#    Name: 2e0n_SAH_1_INTS_M
#    Modification time : Tue Mar 25 10:30:14 2014

@<TRIPOS>MOLECULE
2e0n_SAH_1_INTS_M
   89     0     9     0     0
SMALL
NO_CHARGES


@<TRIPOS>ATOM
      1 O          27.9330   10.6895   36.5095 O.2       1 ALC1        0.0000 
      2 O          28.1320   11.5610   37.6080 O.2       7 ALL1        0.0000 
      3 O          27.7340    9.8180   35.4110 O.2       4 ALP1        0.0000 
      4 O          28.6510   12.4560   38.5550 O.2       1 ALC1        0.0000 
      5 O          29.1700   13.3510   39.5020 O.2       4 ALP1        0.0000 
      6 CA         26.8585   11.7130   35.4330 C.3       3 GLC5        0.0000 
      7 CA         26.6770   11.8390   37.4520 C.3       9 GLL5        0.0000 
      8 CA         27.0400   11.5870   33.4140 C.3       6 GLP5        0.0000 
      9 CA         26.9655   12.0515   41.9605 C.3       3 GLC5        0.0000 
     10 CA         25.5800   10.9150   41.4110 C.3       9 GLL5        0.0000 
     11 CA         28.3510   13.1880   42.5100 C.3       6 GLP5        0.0000 
     12 CA         25.5780   11.2185   43.2890 C.3       3 GLC5        0.0000 
     13 CA         25.5760   11.5220   45.1670 C.3       6 GLP5        0.0000 
     14 N          28.2840   13.1735   35.1485 N.am      2 SEC2        0.0000 
     15 N          27.4850   13.6980   36.1960 N.am      8 SEL2        0.0000 
     16 N          29.0830   12.6490   34.1010 N.am      5 SEP2        0.0000 
     17 N          24.6895   14.2855   35.5125 N.am      2 SEC2        0.0000 
     18 N          25.3450   13.6610   36.5880 N.am      8 SEL2        0.0000 
     19 N          24.0340   14.9100   34.4370 N.am      5 SEP2        0.0000 
     20 CA         23.2400    8.8805   42.2040 C.3       3 GLC5        0.0000 
     21 CA         23.8660   10.3930   41.0770 C.3       9 GLL5        0.0000 
     22 CA         22.6140    7.3680   43.3310 C.3       6 GLP5        0.0000 
     23 CA         23.7040   13.0625   40.7705 C.3       3 GLC5        0.0000 
     24 CA         22.7410   11.4110   40.8960 C.3       9 GLL5        0.0000 
     25 CA         24.6670   14.7140   40.6450 C.3       6 GLP5        0.0000 
     26 CA         21.7805    8.8015   41.5460 C.3       3 GLC5        0.0000 
     27 CA         21.3500   10.7790   40.9630 C.3       9 GLL5        0.0000 
     28 CA         22.2110    6.8240   42.1290 C.3       6 GLP5        0.0000 
     29 CA         21.1760    9.2430   39.5865 C.3       3 GLC5        0.0000 
     30 CA         21.0020    7.7070   38.2100 C.3       6 GLP5        0.0000 
     31 N          19.5470   10.4705   43.2085 N.am      2 SEC2        0.0000 
     32 N          21.0080   10.6200   42.2900 N.am      8 SEL2        0.0000 
     33 N          18.0860   10.3210   44.1270 N.am      5 SEP2        0.0000 
     34 O          19.7350    9.9710   42.0365 O.2       1 ALC1        0.0000 
     35 O          21.0080   10.6200   42.2900 O.2       7 ALL1        0.0000 
     36 O          18.4620    9.3220   41.7830 O.2       4 ALP1        0.0000 
     37 O          19.5470   10.4705   43.2085 O.2       1 ALC1        0.0000 
     38 O          18.0860   10.3210   44.1270 O.2       4 ALP1        0.0000 
     39 CA         19.2525   10.1980   39.7115 C.3       3 GLC5        0.0000 
     40 CA         20.4390   11.7600   40.2460 C.3       9 GLL5        0.0000 
     41 CA         18.0660    8.6360   39.1770 C.3       6 GLP5        0.0000 
     42 CA         18.2525   11.7760   39.8855 C.3       3 GLC5        0.0000 
     43 CA         16.0660   11.7920   39.5250 C.3       6 GLP5        0.0000 
     44 O          18.8755   12.8715   41.0485 O.2       1 ALC1        0.0000 
     45 O          20.2120   12.9250   41.0000 O.2       7 ALL1        0.0000 
     46 O          17.5390   12.8180   41.0970 O.2       4 ALP1        0.0000 
     47 CA         21.6915   12.9725   37.2010 C.3       3 GLC5        0.0000 
     48 CA         21.4170   12.2190   39.1480 C.3       9 GLL5        0.0000 
     49 CA         21.9660   13.7260   35.2540 C.3       6 GLP5        0.0000 
     50 CA         21.8520   14.0910   40.1665 C.3       3 GLC5        0.0000 
     51 CA         22.2870   15.9630   41.1850 C.3       6 GLP5        0.0000 
     52 CA         17.8235    9.9655   34.5515 C.3       3 GLC5        0.0000 
     53 CA         19.6870   10.8320   34.8960 C.3       9 GLL5        0.0000 
     54 CA         15.9600    9.0990   34.2070 C.3       6 GLP5        0.0000 
     55 CA         18.5650   11.9935   33.4145 C.3       3 GLC5        0.0000 
     56 CA         17.4430   13.1550   31.9330 C.3       6 GLP5        0.0000 
     57 CA         20.0390    8.8405   34.1495 C.3       3 GLC5        0.0000 
     58 CA         20.3910    6.8490   33.4030 C.3       6 GLP5        0.0000 
     59 O          20.8960    9.7900   32.8865 O.2       1 ALC1        0.0000 
     60 O          19.8880   10.2350   33.7230 O.2       7 ALL1        0.0000 
     61 O          21.9040    9.3450   32.0500 O.2       4 ALP1        0.0000 
     62 O          19.2800   10.4470   32.2215 O.2       1 ALC1        0.0000 
     63 O          18.6720   10.6590   30.7200 O.2       4 ALP1        0.0000 
     64 N          17.5220   11.1970   33.9445 N.am      2 SEC2        0.0000 
     65 N          18.4370   11.4370   35.1050 N.am      8 SEL2        0.0000 
     66 N          16.6070   10.9570   32.7840 N.am      5 SEP2        0.0000 
     67 CA         20.0330   12.9185   35.7505 C.3       3 GLC5        0.0000 
     68 CA         18.1000   12.1110   36.2470 C.3       9 GLL5        0.0000 
     69 CA         15.9410   11.7890   36.2680 C.3       3 GLC5        0.0000 
     70 CA         13.7820   11.4670   36.2890 C.3       6 GLP5        0.0000 
     71 CA         17.0300   10.6050   35.2270 C.3       3 GLC5        0.0000 
     72 CA         17.3365   13.0470   34.5605 C.3       3 GLC5        0.0000 
     73 CA         16.5730   13.9830   32.8740 C.3       6 GLP5        0.0000 
     74 CA         17.0830   11.9515   37.8860 C.3       3 GLC5        0.0000 
     75 CA         18.7645   13.9475   36.7335 C.3       3 GLC5        0.0000 
     76 CA         19.4290   15.7840   37.2200 C.3       6 GLP5        0.0000 
     77 CA         19.8545   13.7025   37.1230 C.3       3 GLC5        0.0000 
     78 CA         20.2800   11.6210   37.0260 C.3       9 GLL5        0.0000 
     79 CA         27.2427   12.2562   40.8952 C.3       3 GLC5        0.0000 
     80 CA         26.1270   11.9710   38.8820 C.3       9 GLL5        0.0000 
     81 CA         25.4007   13.0193   39.9627 C.3       3 GLC5        0.0000 
     82 CA         26.1420   10.6780   39.6790 C.3       9 GLL5        0.0000 
     83 CA         24.6950   12.6840   40.9445 C.3       3 GLC5        0.0000 
     84 CA         22.7059   11.0593   43.0049 C.3       3 GLC5        0.0000 
     85 CA         23.0850   11.2780   45.0350 C.3       6 GLP5        0.0000 
     86 CA         21.0955   12.4894   35.7306 C.3       3 GLC5        0.0000 
     87 CA         20.6530   10.9370   35.8810 C.3       9 GLL5        0.0000 
     88 CA         19.3675    9.5399   37.0821 C.3       3 GLC5        0.0000 
     89 CA         18.5100    7.8270   37.9570 C.3       6 GLP5        0.0000 
@<TRIPOS>BOND
@<TRIPOS>SUBSTRUCTURE
     1 ALC1        1 GROUP        1 X    ALC  0     ROOT ALC X 1
     2 SEC2       14 GROUP        1 X    SEC  0     **** SEC X 2
     3 GLC5        6 GROUP        1 X    GLC  0     **** GLC X 6
     4 ALP1        3 GROUP        1 Y    ALP  0     ROOT ALP Y 8
     5 SEP2       16 GROUP        1 Y    SEP  0     **** SEP Y 9
     6 GLP5        8 GROUP        1 Y    GLP  0     **** GLP Y 13
     7 ALL1        2 GROUP        1 Z    ALL  0     ROOT ALL Z 15
     8 SEL2       15 GROUP        1 Z    SEL  0     **** SEL Z 16
     9 GLL5        7 GROUP        1 Z    GLL  0     **** GLL Z 20
@<TRIPOS>SET

