#    Name: 2e0n_SAH_1_ligand
#    Modification time : Tue Mar 25 10:30:14 2014

@<TRIPOS>MOLECULE
2e0n_SAH_1_ligand
   46    48     1     0     0
SMALL
NO_CHARGES


@<TRIPOS>ATOM
      1 N          28.1320   11.5610   37.6080 N.4       1 SAH300      0.0000 
      2 CA         26.6770   11.8390   37.4520 C.3       1 SAH300      0.0000 
      3 CB         26.1270   11.9710   38.8820 C.3       1 SAH300      0.0000 
      4 CG         26.1420   10.6780   39.6790 C.3       1 SAH300      0.0000 
      5 SD         25.5800   10.9150   41.4110 S.3       1 SAH300      0.0000 
      6 C          26.4760   13.1480   36.7030 C.2       1 SAH300      0.0000 
      7 O          27.4850   13.6980   36.1960 O.co2     1 SAH300      0.0000 
      8 OXT        25.3450   13.6610   36.5880 O.co2     1 SAH300      0.0000 
      9 C5'        23.8660   10.3930   41.0770 C.3       1 SAH300      0.0000 
     10 C4'        22.7410   11.4110   40.8960 C.3       1 SAH300      0.0000 
     11 O4'        22.7150   11.9200   39.6000 O.3       1 SAH300      0.0000 
     12 C3'        21.3500   10.7790   40.9630 C.3       1 SAH300      0.0000 
     13 O3'        21.0080   10.6200   42.2900 O.3       1 SAH300      0.0000 
     14 C2'        20.4390   11.7600   40.2460 C.3       1 SAH300      0.0000 
     15 O2'        20.2120   12.9250   41.0000 O.3       1 SAH300      0.0000 
     16 C1'        21.4170   12.2190   39.1480 C.3       1 SAH300      0.0000 
     17 N9         21.3410   11.5610   37.8410 N.pl3     1 SAH300      0.0000 
     18 C8         22.3700   10.8590   37.2380 C.2       1 SAH300      0.0000 
     19 N7         21.9360   10.4910   36.0390 N.2       1 SAH300      0.0000 
     20 C5         20.6530   10.9370   35.8810 C.ar      1 SAH300      0.0000 
     21 C6         19.6870   10.8320   34.8960 C.ar      1 SAH300      0.0000 
     22 N6         19.8880   10.2350   33.7230 N.pl3     1 SAH300      0.0000 
     23 N1         18.4370   11.4370   35.1050 N.ar      1 SAH300      0.0000 
     24 C2         18.1000   12.1110   36.2470 C.ar      1 SAH300      0.0000 
     25 N3         19.0170   12.1480   37.2350 N.ar      1 SAH300      0.0000 
     26 C4         20.2800   11.6210   37.0260 C.ar      1 SAH300      0.0000 
     27 H          26.1930   11.0468   36.9658 H         1 SAH300      0.0000 
     28 H          25.0925   12.3517   38.8257 H         1 SAH300      0.0000 
     29 H          26.7189   12.7343   39.4159 H         1 SAH300      0.0000 
     30 H          27.1203   10.2645   39.8231 H         1 SAH300      0.0000 
     31 H          25.4509    9.9387   39.3260 H         1 SAH300      0.0000 
     32 H          23.6778    9.6939   41.9239 H         1 SAH300      0.0000 
     33 H          24.0022    9.7428   40.1825 H         1 SAH300      0.0000 
     34 H          22.7920   12.1729   41.6240 H         1 SAH300      0.0000 
     35 H          21.3848    9.8742   40.4034 H         1 SAH300      0.0000 
     36 H          19.6542   11.3050   39.8176 H         1 SAH300      0.0000 
     37 H          21.3228   13.2920   39.0307 H         1 SAH300      0.0000 
     38 H          23.2197   10.6895   37.6378 H         1 SAH300      0.0000 
     39 H          19.1032   10.2058   33.1040 H         1 SAH300      0.0000 
     40 H          20.8057    9.8697   33.5667 H         1 SAH300      0.0000 
     41 H          17.1902   12.5637   36.3380 H         1 SAH300      0.0000 
     42 H          28.3271   11.0687   38.4563 H         1 SAH300      0.0000 
     43 H          28.4861   11.0032   36.8573 H         1 SAH300      0.0000 
     44 H          28.6711   12.4030   37.6271 H         1 SAH300      0.0000 
     45 H          20.0086   10.6532   42.3053 H         1 SAH300      0.0000 
     46 H          19.3895   12.7309   41.5347 H         1 SAH300      0.0000 
@<TRIPOS>BOND
     1    2    1 1    
     2   42    1 1    
     3   43    1 1    
     4   44    1 1    
     5    3    2 1    
     6    6    2 1    
     7   27    2 1    
     8    4    3 1    
     9   28    3 1    
    10   29    3 1    
    11    5    4 1    
    12   30    4 1    
    13   31    4 1    
    14    9    5 1    
    15    7    6 ar   
    16    8    6 ar   
    17   10    9 1    
    18   32    9 1    
    19   33    9 1    
    20   11   10 1    
    21   12   10 1    
    22   34   10 1    
    23   16   11 1    
    24   13   12 1    
    25   14   12 1    
    26   35   12 1    
    27   45   13 1    
    28   15   14 1    
    29   16   14 1    
    30   36   14 1    
    31   46   15 1    
    32   17   16 1    
    33   37   16 1    
    34   18   17 1    
    35   26   17 1    
    36   19   18 2    
    37   38   18 1    
    38   20   19 1    
    39   21   20 ar   
    40   26   20 ar   
    41   22   21 1    
    42   23   21 ar   
    43   39   22 1    
    44   40   22 1    
    45   24   23 ar   
    46   25   24 ar   
    47   41   24 1    
    48   26   25 ar   
@<TRIPOS>SUBSTRUCTURE
     1 SAH300      1 GROUP   
@<TRIPOS>SET

