#    Name: 4f3x_NAD_2_INTS_M
#    Modification time : Mon Mar 24 18:56:08 2014

@<TRIPOS>MOLECULE
4f3x_NAD_2_INTS_M
   85     0     9     0     0
SMALL
NO_CHARGES


@<TRIPOS>ATOM
      1 N          -7.3710   40.2390  -14.3065 N.am      2 SEC2        0.0000 
      2 N          -7.8710   41.4860  -14.0950 N.am      8 SEL2        0.0000 
      3 N          -6.8710   38.9920  -14.5180 N.am      5 SEP2        0.0000 
      4 N          -8.3375   41.4490  -12.9085 N.am      2 SEC2        0.0000 
      5 N          -8.8040   41.4120  -11.7220 N.am      5 SEP2        0.0000 
      6 CA         -8.8740   40.6490  -16.5800 C.3       3 GLC5        0.0000 
      7 CA         -9.6380   42.4690  -16.5730 C.3       9 GLL5        0.0000 
      8 CA         -8.1100   38.8290  -16.5870 C.3       6 GLP5        0.0000 
      9 CA        -10.3915   45.5925  -18.5835 C.3       3 GLC5        0.0000 
     10 CA        -10.9550   44.6160  -16.9250 C.3       9 GLL5        0.0000 
     11 CA         -9.8280   46.5690  -20.2420 C.3       6 GLP5        0.0000 
     12 N         -12.9940   46.1550  -17.4350 N.am      2 SEC2        0.0000 
     13 N         -12.1090   44.9260  -17.6870 N.am      8 SEL2        0.0000 
     14 N         -13.8790   47.3840  -17.1830 N.am      5 SEP2        0.0000 
     15 O         -11.8645   44.3840  -18.8530 O.2       1 ALC1        0.0000 
     16 O         -12.1090   44.9260  -17.6870 O.2       7 ALL1        0.0000 
     17 O         -11.6200   43.8420  -20.0190 O.2       4 ALP1        0.0000 
     18 N         -12.7955   46.9805  -16.4130 N.am      2 SEC2        0.0000 
     19 N         -11.7120   46.5770  -15.6430 N.am      8 SEL2        0.0000 
     20 O         -11.0185   47.5060  -16.1570 O.2       1 ALC1        0.0000 
     21 O         -11.7120   46.5770  -15.6430 O.2       7 ALL1        0.0000 
     22 O         -10.3250   48.4350  -16.6710 O.2       4 ALP1        0.0000 
     23 CA        -12.3055   42.1430  -15.2245 C.3       3 GLC5        0.0000 
     24 CA        -11.9740   44.2800  -14.8510 C.3       9 GLL5        0.0000 
     25 CA        -12.6370   40.0060  -15.5980 C.3       6 GLP5        0.0000 
     26 CA        -11.5495   42.6160  -13.4895 C.3       3 GLC5        0.0000 
     27 CA        -11.1250   40.9520  -12.1280 C.3       6 GLP5        0.0000 
     28 CA        -12.1355   43.4805   -8.2285 C.3       3 GLC5        0.0000 
     29 CA        -13.0140   44.3740  -10.0090 C.3       9 GLL5        0.0000 
     30 CA        -11.2570   42.5870   -6.4480 C.3       6 GLP5        0.0000 
     31 CA        -15.7225   43.2705  -13.0955 C.3       3 GLC5        0.0000 
     32 CA        -14.7780   43.7790  -11.4560 C.3       9 GLL5        0.0000 
     33 CA        -16.6670   42.7620  -14.7350 C.3       6 GLP5        0.0000 
     34 CA        -13.7225   45.6380  -12.0295 C.3       3 GLC5        0.0000 
     35 CA        -12.6670   47.4970  -12.6030 C.3       6 GLP5        0.0000 
     36 CA        -15.7810   45.0560  -12.2280 C.3       3 GLC5        0.0000 
     37 CA        -16.7840   46.3330  -13.0000 C.3       6 GLP5        0.0000 
     38 CA        -16.0485   44.8635  -10.3665 C.3       3 GLC5        0.0000 
     39 CA        -17.3190   45.9480   -9.2770 C.3       6 GLP5        0.0000 
     40 CA        -15.9525   42.6555  -10.3030 C.3       3 GLC5        0.0000 
     41 CA        -17.1270   41.5320   -9.1500 C.3       6 GLP5        0.0000 
     42 N          -4.6670   44.5565  -17.7930 N.am      2 SEC2        0.0000 
     43 N          -4.9400   43.6930  -16.3950 N.am      8 SEL2        0.0000 
     44 N          -4.3940   45.4200  -19.1910 N.am      5 SEP2        0.0000 
     45 CA         -2.8860   44.0615  -18.3195 C.3       3 GLC5        0.0000 
     46 CA         -3.5410   43.7130  -16.6810 C.3       9 GLL5        0.0000 
     47 CA         -2.2310   44.4100  -19.9580 C.3       6 GLP5        0.0000 
     48 CA         -1.7600   43.6145  -18.0035 C.3       3 GLC5        0.0000 
     49 CA         -1.2890   42.8190  -16.0490 C.3       9 GLL5        0.0000 
     50 CA         -0.8130   41.8975  -18.0180 C.3       3 GLC5        0.0000 
     51 CA         -0.3370   40.9760  -19.9870 C.3       6 GLP5        0.0000 
     52 O           0.1145   44.2975  -16.0855 O.2       1 ALC1        0.0000 
     53 O          -0.3750   43.3110  -15.0620 O.2       7 ALL1        0.0000 
     54 O           0.6040   45.2840  -17.1090 O.2       4 ALP1        0.0000 
     55 CA         -0.3390   40.6450  -17.8495 C.3       3 GLC5        0.0000 
     56 CA         -1.1420   41.3170  -16.2430 C.3       9 GLL5        0.0000 
     57 CA          0.4640   39.9730  -19.4560 C.3       6 GLP5        0.0000 
     58 CA         -3.8280   40.2785  -14.1065 C.3       3 GLC5        0.0000 
     59 CA         -2.2770   40.7260  -15.4190 C.3       9 GLL5        0.0000 
     60 CA         -5.3790   39.8310  -12.7940 C.3       6 GLP5        0.0000 
     61 CA         -4.7565   39.1010  -15.3280 C.3       3 GLC5        0.0000 
     62 CA         -3.6280   39.6130  -17.1350 C.3       9 GLL5        0.0000 
     63 CA         -5.8850   38.5890  -13.5210 C.3       6 GLP5        0.0000 
     64 CA         -6.1460   38.6490  -17.1490 C.3       3 GLC5        0.0000 
     65 CA         -4.1820   38.4690  -17.7110 C.3       9 GLL5        0.0000 
     66 CA         -9.7135   42.7002  -18.6258 C.3       3 GLC5        0.0000 
     67 CA         -9.1020   42.6120  -20.6480 C.3       6 GLP5        0.0000 
     68 CA        -11.4810   41.3972  -16.1007 C.3       3 GLC5        0.0000 
     69 CA        -13.3202   45.7537  -15.9150 C.3       3 GLC5        0.0000 
     70 CA        -15.0990   46.7270  -16.6130 C.3       6 GLP5        0.0000 
     71 CA        -12.1043   46.1388  -13.9100 C.3       3 GLC5        0.0000 
     72 CA        -12.6621   45.9179  -12.0789 C.3       3 GLC5        0.0000 
     73 CA        -12.1350   44.5010  -11.1940 C.3       9 GLL5        0.0000 
     74 CA        -11.8911   42.6454  -11.8414 C.3       3 GLC5        0.0000 
     75 CA        -12.7400   44.2400  -12.5080 C.3       9 GLL5        0.0000 
     76 CA         -3.6442   35.4605  -16.3505 C.3       3 GLC5        0.0000 
     77 CA         -3.1300   37.1670  -15.9870 C.3       9 GLL5        0.0000 
     78 CA         -3.7610   33.7210  -16.1460 C.3       6 GLP5        0.0000 
     79 CA         -3.3919   36.5190  -18.1555 C.3       3 GLC5        0.0000 
     80 CA         -3.1920   35.5290  -19.6090 C.3       6 GLP5        0.0000 
     81 CA         -4.4746   38.1792  -14.7645 C.3       3 GLC5        0.0000 
     82 CA         -3.9250   37.2330  -17.1230 C.3       9 GLL5        0.0000 
     83 CA        -12.8462   43.6016  -16.3386 C.3       3 GLC5        0.0000 
     84 CA        -11.0120   43.1080  -16.6340 C.3       9 GLL5        0.0000 
     85 CA        -14.4300   42.8820  -16.6790 C.3       6 GLP5        0.0000 
@<TRIPOS>BOND
@<TRIPOS>SUBSTRUCTURE
     1 ALC1       15 GROUP        1 X    ALC  0     ROOT ALC X 1
     2 SEC2        1 GROUP        1 X    SEC  0     **** SEC X 2
     3 GLC5        6 GROUP        1 X    GLC  0     **** GLC X 6
     4 ALP1       17 GROUP        1 Y    ALP  0     ROOT ALP Y 8
     5 SEP2        3 GROUP        1 Y    SEP  0     **** SEP Y 9
     6 GLP5        8 GROUP        1 Y    GLP  0     **** GLP Y 13
     7 ALL1       16 GROUP        1 Z    ALL  0     ROOT ALL Z 15
     8 SEL2        2 GROUP        1 Z    SEL  0     **** SEL Z 16
     9 GLL5        7 GROUP        1 Z    GLL  0     **** GLL Z 20
@<TRIPOS>SET

