#    Name: 4f3x_NAD_2_ligand
#    Modification time : Mon Mar 24 18:56:08 2014

@<TRIPOS>MOLECULE
4f3x_NAD_2_ligand
   70    74     1     0     0
SMALL
NO_CHARGES


@<TRIPOS>ATOM
      1 PA         -7.5150   42.6750  -14.9490 P.3       1 NAD502      0.0000 
      2 O1A        -7.8710   41.4860  -14.0950 O.co2     1 NAD502      0.0000 
      3 O2A        -6.8230   43.8660  -14.3280 O.co2     1 NAD502      0.0000 
      4 O5B        -8.8520   43.2300  -15.6510 O.3       1 NAD502      0.0000 
      5 C5B        -9.6380   42.4690  -16.5730 C.3       1 NAD502      0.0000 
      6 C4B       -11.0120   43.1080  -16.6340 C.3       1 NAD502      0.0000 
      7 O4B       -11.6270   42.9630  -15.3520 O.3       1 NAD502      0.0000 
      8 C3B       -10.9550   44.6160  -16.9250 C.3       1 NAD502      0.0000 
      9 O3B       -12.1090   44.9260  -17.6870 O.3       1 NAD502      0.0000 
     10 C2B       -11.1090   45.2810  -15.5830 C.3       1 NAD502      0.0000 
     11 O2B       -11.7120   46.5770  -15.6430 O.3       1 NAD502      0.0000 
     12 C1B       -11.9740   44.2800  -14.8510 C.3       1 NAD502      0.0000 
     13 N9A       -11.7740   44.4190  -13.4050 N.pl3     1 NAD502      0.0000 
     14 C8A       -10.6410   44.7640  -12.7570 C.2       1 NAD502      0.0000 
     15 N7A       -10.8580   44.8290  -11.4160 N.2       1 NAD502      0.0000 
     16 C5A       -12.1350   44.5010  -11.1940 C.ar      1 NAD502      0.0000 
     17 C6A       -13.0140   44.3740  -10.0090 C.ar      1 NAD502      0.0000 
     18 N6A       -12.5440   44.5970   -8.7630 N.pl3     1 NAD502      0.0000 
     19 N1A       -14.2980   44.0160  -10.2200 N.ar      1 NAD502      0.0000 
     20 C2A       -14.7780   43.7790  -11.4560 C.ar      1 NAD502      0.0000 
     21 N3A       -14.0440   43.8890  -12.5800 N.ar      1 NAD502      0.0000 
     22 C4A       -12.7400   44.2400  -12.5080 C.ar      1 NAD502      0.0000 
     23 O3         -6.7540   42.0870  -16.2280 O.3       1 NAD502      0.0000 
     24 PN         -6.0450   42.9830  -17.3440 P.3       1 NAD502      0.0000 
     25 O1N        -5.4180   42.0220  -18.3380 O.co2     1 NAD502      0.0000 
     26 O2N        -7.0180   44.0390  -17.8400 O.co2     1 NAD502      0.0000 
     27 O5D        -4.9400   43.6930  -16.3950 O.3       1 NAD502      0.0000 
     28 C5D        -3.5410   43.7130  -16.6810 C.3       1 NAD502      0.0000 
     29 C4D        -2.7220   43.0410  -15.5810 C.3       1 NAD502      0.0000 
     30 O4D        -3.2670   41.7540  -15.2640 O.3       1 NAD502      0.0000 
     31 C3D        -1.2890   42.8190  -16.0490 C.3       1 NAD502      0.0000 
     32 O3D        -0.3750   43.3110  -15.0620 O.3       1 NAD502      0.0000 
     33 C2D        -1.1420   41.3170  -16.2430 C.3       1 NAD502      0.0000 
     34 O2D         0.1220   40.8230  -15.7840 O.3       1 NAD502      0.0000 
     35 C1D        -2.2770   40.7260  -15.4190 C.3       1 NAD502      0.0000 
     36 N1N        -2.8550   39.5250  -16.0350 N.pl3     1 NAD502      0.0000 
     37 C2N        -3.6280   39.6130  -17.1350 C.ar      1 NAD502      0.0000 
     38 C3N        -4.1820   38.4690  -17.7110 C.ar      1 NAD502      0.0000 
     39 C7N        -5.0450   38.5620  -18.9420 C.2       1 NAD502      0.0000 
     40 O7N        -5.6490   37.5740  -19.3390 O.2       1 NAD502      0.0000 
     41 N7N        -5.1340   39.7300  -19.5810 N.am      1 NAD502      0.0000 
     42 C4N        -3.9250   37.2330  -17.1230 C.ar      1 NAD502      0.0000 
     43 C5N        -3.1300   37.1670  -15.9870 C.ar      1 NAD502      0.0000 
     44 C6N        -2.6010   38.3390  -15.4610 C.ar      1 NAD502      0.0000 
     45 H          -9.7553   41.4378  -16.2482 H         1 NAD502      0.0000 
     46 H          -9.2112   42.4811  -17.5732 H         1 NAD502      0.0000 
     47 H         -11.5968   42.6352  -17.3920 H         1 NAD502      0.0000 
     48 H         -10.0632   44.8578  -17.3636 H         1 NAD502      0.0000 
     49 H         -10.1469   45.2789  -15.1038 H         1 NAD502      0.0000 
     50 H         -13.0077   44.5088  -15.1054 H         1 NAD502      0.0000 
     51 H          -9.7816   44.9433  -13.1867 H         1 NAD502      0.0000 
     52 H         -13.1981   44.4717   -8.0170 H         1 NAD502      0.0000 
     53 H         -11.5836   44.8676   -8.6969 H         1 NAD502      0.0000 
     54 H         -15.8021   43.4863  -11.5505 H         1 NAD502      0.0000 
     55 H          -3.1650   44.7469  -16.7917 H         1 NAD502      0.0000 
     56 H          -3.3141   43.1929  -17.6300 H         1 NAD502      0.0000 
     57 H          -2.7007   43.6778  -14.7206 H         1 NAD502      0.0000 
     58 H          -1.1713   43.2975  -16.9952 H         1 NAD502      0.0000 
     59 H          -1.3340   41.0916  -17.2695 H         1 NAD502      0.0000 
     60 H          -1.8629   40.4744  -14.4393 H         1 NAD502      0.0000 
     61 H          -3.8266   40.5339  -17.5757 H         1 NAD502      0.0000 
     62 H          -5.6755   39.7315  -20.4217 H         1 NAD502      0.0000 
     63 H          -4.6512   40.4989  -19.1617 H         1 NAD502      0.0000 
     64 H          -4.3213   36.3786  -17.5281 H         1 NAD502      0.0000 
     65 H          -2.9356   36.2663  -15.5420 H         1 NAD502      0.0000 
     66 H          -2.0025   38.2742  -14.6103 H         1 NAD502      0.0000 
     67 H         -11.7849   44.9960  -18.6304 H         1 NAD502      0.0000 
     68 H         -10.9490   47.2205  -15.5816 H         1 NAD502      0.0000 
     69 H           0.1079   44.0639  -15.5091 H         1 NAD502      0.0000 
     70 H           0.4718   41.5344  -15.1745 H         1 NAD502      0.0000 
@<TRIPOS>BOND
     1    2    1 ar   
     2    3    1 ar   
     3    4    1 1    
     4   23    1 1    
     5    5    4 1    
     6    6    5 1    
     7   45    5 1    
     8   46    5 1    
     9    7    6 1    
    10    8    6 1    
    11   47    6 1    
    12   12    7 1    
    13    9    8 1    
    14   10    8 1    
    15   48    8 1    
    16   67    9 1    
    17   11   10 1    
    18   12   10 1    
    19   49   10 1    
    20   68   11 1    
    21   13   12 1    
    22   50   12 1    
    23   14   13 1    
    24   22   13 1    
    25   15   14 2    
    26   51   14 1    
    27   16   15 1    
    28   17   16 ar   
    29   22   16 ar   
    30   18   17 1    
    31   19   17 ar   
    32   52   18 1    
    33   53   18 1    
    34   20   19 ar   
    35   21   20 ar   
    36   54   20 1    
    37   22   21 ar   
    38   24   23 1    
    39   25   24 ar   
    40   26   24 ar   
    41   27   24 1    
    42   28   27 1    
    43   29   28 1    
    44   55   28 1    
    45   56   28 1    
    46   30   29 1    
    47   31   29 1    
    48   57   29 1    
    49   35   30 1    
    50   32   31 1    
    51   33   31 1    
    52   58   31 1    
    53   69   32 1    
    54   34   33 1    
    55   35   33 1    
    56   59   33 1    
    57   70   34 1    
    58   36   35 1    
    59   60   35 1    
    60   37   36 ar   
    61   44   36 ar   
    62   38   37 ar   
    63   61   37 1    
    64   39   38 1    
    65   42   38 ar   
    66   40   39 2    
    67   41   39 am   
    68   62   41 1    
    69   63   41 1    
    70   43   42 ar   
    71   64   42 1    
    72   44   43 ar   
    73   65   43 1    
    74   66   44 1    
@<TRIPOS>SUBSTRUCTURE
     1 NAD502      1 GROUP   
@<TRIPOS>SET

