#    Name: 1lhn_AON_1_INTS_M
#    Modification time : Tue Mar 25 11:07:07 2014

@<TRIPOS>MOLECULE
1lhn_AON_1_INTS_M
   74     0     9     0     0
SMALL
NO_CHARGES


@<TRIPOS>ATOM
      1 CA         22.0515    7.6795   31.2915 C.3       3 GLC5        0.0000 
      2 CA         21.1160    8.9290   32.3030 C.3       9 GLL5        0.0000 
      3 CA         22.9870    6.4300   30.2800 C.3       6 GLP5        0.0000 
      4 CA         22.1050    7.1930   32.9210 C.3       3 GLC5        0.0000 
      5 CA         23.0940    5.4570   33.5390 C.3       6 GLP5        0.0000 
      6 CA         18.9030    6.8200   31.7595 C.3       3 GLC5        0.0000 
      7 CA         19.5610    8.7480   32.3230 C.3       9 GLL5        0.0000 
      8 CA         18.2450    4.8920   31.1960 C.3       6 GLP5        0.0000 
      9 CA         19.1015    9.4680   30.4865 C.3       3 GLC5        0.0000 
     10 CA         18.6420   10.1880   28.6500 C.3       6 GLP5        0.0000 
     11 CA         17.8965   13.6965   34.7065 C.3       3 GLC5        0.0000 
     12 CA         18.4300   11.6960   34.4860 C.3       9 GLL5        0.0000 
     13 CA         17.3630   15.6970   34.9270 C.3       6 GLP5        0.0000 
     14 CA         15.3325   11.2890   35.3105 C.3       3 GLC5        0.0000 
     15 CA         17.1370   10.7990   34.5060 C.3       9 GLL5        0.0000 
     16 CA         13.5280   11.7790   36.1150 C.3       6 GLP5        0.0000 
     17 CA         15.8905    8.5170   34.5530 C.3       3 GLC5        0.0000 
     18 CA         17.4010    9.6570   33.5000 C.3       9 GLL5        0.0000 
     19 CA         14.3800    7.3770   35.6060 C.3       6 GLP5        0.0000 
     20 CA         20.2080   10.1360   35.9575 C.3       3 GLC5        0.0000 
     21 CA         19.3530    8.7900   34.8500 C.3       9 GLL5        0.0000 
     22 CA         21.0630   11.4820   37.0650 C.3       6 GLP5        0.0000 
     23 CA         19.4405    7.6035   36.3970 C.3       3 GLC5        0.0000 
     24 CA         19.5280    6.4170   37.9440 C.3       6 GLP5        0.0000 
     25 CA         23.8610    9.5300   35.2685 C.3       3 GLC5        0.0000 
     26 CA         23.7370   10.0350   33.5120 C.3       9 GLL5        0.0000 
     27 CA         23.9850    9.0250   37.0250 C.3       6 GLP5        0.0000 
     28 CA         25.7140    9.6640   33.7645 C.3       3 GLC5        0.0000 
     29 CA         27.6910    9.2930   34.0170 C.3       6 GLP5        0.0000 
     30 CA         24.4960    8.0655   34.0470 C.3       3 GLC5        0.0000 
     31 CA         25.2550    6.0960   34.5820 C.3       6 GLP5        0.0000 
     32 CA         26.4790    9.7495   32.4305 C.3       3 GLC5        0.0000 
     33 CA         25.2670   10.2060   30.8440 C.3       9 GLL5        0.0000 
     34 CA         26.7990    8.8240   30.3955 C.3       3 GLC5        0.0000 
     35 CA         28.3310    7.4420   29.9470 C.3       6 GLP5        0.0000 
     36 CA         27.4550   12.8725   30.8665 C.3       3 GLC5        0.0000 
     37 CA         25.5120   11.7420   30.7820 C.3       9 GLL5        0.0000 
     38 CA         29.3980   14.0030   30.9510 C.3       6 GLP5        0.0000 
     39 CA         24.8775   12.8090   29.1430 C.3       3 GLC5        0.0000 
     40 CA         24.2430   13.8760   27.5040 C.3       6 GLP5        0.0000 
     41 CA         25.4580   13.4805   33.7375 C.3       3 GLC5        0.0000 
     42 CA         24.9290   12.4820   32.0050 C.3       9 GLL5        0.0000 
     43 CA         25.9870   14.4790   35.4700 C.3       6 GLP5        0.0000 
     44 CA         24.3820   13.7210   34.3915 C.3       3 GLC5        0.0000 
     45 CA         22.7770   12.9630   33.3130 C.3       9 GLL5        0.0000 
     46 CA         23.1730   12.3755   35.2505 C.3       3 GLC5        0.0000 
     47 CA         23.5690   11.7880   37.1880 C.3       6 GLP5        0.0000 
     48 N          27.5775   13.2245   30.4850 N.am      2 SEC2        0.0000 
     49 N          26.9300   11.9900   30.6610 N.am      8 SEL2        0.0000 
     50 N          28.2250   14.4590   30.3090 N.am      5 SEP2        0.0000 
     51 O          26.5990   11.4765   29.3100 O.2       1 ALC1        0.0000 
     52 O          26.9300   11.9900   30.6610 O.2       7 ALL1        0.0000 
     53 O          26.2680   10.9630   27.9590 O.2       4 ALP1        0.0000 
     54 O          15.6495   10.4690   32.7155 O.2       1 ALC1        0.0000 
     55 O          16.8390   10.0500   32.1840 O.2       7 ALL1        0.0000 
     56 O          14.4600   10.8880   33.2470 O.2       4 ALP1        0.0000 
     57 CA         24.0185    8.6190   29.8167 C.3       3 GLC5        0.0000 
     58 CA         23.7310    9.9380   30.9730 C.3       9 GLL5        0.0000 
     59 CA         23.5380    7.1660   28.7250 C.3       6 GLP5        0.0000 
     60 CA         19.9677   11.4167   35.5085 C.3       3 GLC5        0.0000 
     61 CA         19.3150   11.0070   33.4180 C.3       9 GLL5        0.0000 
     62 CA         17.2948   12.0077   36.1155 C.3       3 GLC5        0.0000 
     63 CA         16.8060   12.7680   37.7350 C.3       6 GLP5        0.0000 
     64 CA         21.5400   14.4295   34.5153 C.3       3 GLC5        0.0000 
     65 CA         21.0690   16.0140   35.6940 C.3       6 GLP5        0.0000 
     66 CA         23.5366   14.6439   32.6059 C.3       3 GLC5        0.0000 
     67 CA         23.6020   16.6310   32.5290 C.3       6 GLP5        0.0000 
     68 CA         21.0575   11.7290   35.2322 C.3       3 GLC5        0.0000 
     69 CA         21.2450   12.7270   33.3600 C.3       9 GLL5        0.0000 
     70 CA         21.5196   13.6360   31.4581 C.3       3 GLC5        0.0000 
     71 CA         20.8720   14.6130   29.8830 C.3       6 GLP5        0.0000 
     72 CA         20.1970   12.0820   31.2921 C.3       3 GLC5        0.0000 
     73 CA         21.5250   10.4360   32.2360 C.3       9 GLL5        0.0000 
     74 CA         19.5880   13.3880   29.7520 C.3       6 GLP5        0.0000 
@<TRIPOS>BOND
@<TRIPOS>SUBSTRUCTURE
     1 ALC1       51 GROUP        1 X    ALC  0     ROOT ALC X 1
     2 SEC2       48 GROUP        1 X    SEC  0     **** SEC X 2
     3 GLC5        1 GROUP        1 X    GLC  0     **** GLC X 6
     4 ALP1       53 GROUP        1 Y    ALP  0     ROOT ALP Y 8
     5 SEP2       50 GROUP        1 Y    SEP  0     **** SEP Y 9
     6 GLP5        3 GROUP        1 Y    GLP  0     **** GLP Y 13
     7 ALL1       52 GROUP        1 Z    ALL  0     ROOT ALL Z 15
     8 SEL2       49 GROUP        1 Z    SEL  0     **** SEL Z 16
     9 GLL5        2 GROUP        1 Z    GLL  0     **** GLL Z 20
@<TRIPOS>SET

