#    Name: 1lhn_AON_1_ligand
#    Modification time : Tue Mar 25 11:07:07 2014

@<TRIPOS>MOLECULE
1lhn_AON_1_ligand
   53    56     1     0     0
SMALL
NO_CHARGES


@<TRIPOS>ATOM
      1 C1         23.7310    9.9380   30.9730 C.3       1 AON301      0.0000 
      2 C10        23.0970   10.6580   32.2060 C.3       1 AON301      0.0000 
      3 C11        21.1160    8.9290   32.3030 C.3       1 AON301      0.0000 
      4 C12        19.5610    8.7480   32.3230 C.3       1 AON301      0.0000 
      5 C13        18.9290    9.4890   33.5220 C.3       1 AON301      0.0000 
      6 C14        19.3150   11.0070   33.4180 C.3       1 AON301      0.0000 
      7 C15        18.4300   11.6960   34.4860 C.3       1 AON301      0.0000 
      8 C16        17.1370   10.7990   34.5060 C.3       1 AON301      0.0000 
      9 C17        17.4010    9.6570   33.5000 C.3       1 AON301      0.0000 
     10 C18        19.3530    8.7900   34.8500 C.3       1 AON301      0.0000 
     11 C19        23.7370   10.0350   33.5120 C.3       1 AON301      0.0000 
     12 C2         25.2670   10.2060   30.8440 C.3       1 AON301      0.0000 
     13 C3         25.5120   11.7420   30.7820 C.3       1 AON301      0.0000 
     14 C4         24.9290   12.4820   32.0050 C.3       1 AON301      0.0000 
     15 C5         23.4020   12.2190   32.1000 C.3       1 AON301      0.0000 
     16 C6         22.7770   12.9630   33.3130 C.3       1 AON301      0.0000 
     17 C7         21.2450   12.7270   33.3600 C.3       1 AON301      0.0000 
     18 C8         20.8590   11.2250   33.4390 C.3       1 AON301      0.0000 
     19 C9         21.5250   10.4360   32.2360 C.3       1 AON301      0.0000 
     20 O3         26.9300   11.9900   30.6610 O.3       1 AON301      0.0000 
     21 O17        16.8390   10.0500   32.1840 O.3       1 AON301      0.0000 
     22 H          23.2371   10.2889   30.0684 H         1 AON301      0.0000 
     23 H          23.5696    8.8657   31.0704 H         1 AON301      0.0000 
     24 H          21.5170    8.4165   31.4347 H         1 AON301      0.0000 
     25 H          21.5311    8.4914   33.2050 H         1 AON301      0.0000 
     26 H          19.3370    7.6896   32.3944 H         1 AON301      0.0000 
     27 H          19.1548    9.1445   31.3993 H         1 AON301      0.0000 
     28 H          18.9235   11.3215   32.4269 H         1 AON301      0.0000 
     29 H          18.1705   12.6623   34.1686 H         1 AON301      0.0000 
     30 H          18.8955   11.6453   35.4255 H         1 AON301      0.0000 
     31 H          16.3111   11.3824   34.1836 H         1 AON301      0.0000 
     32 H          17.0121   10.4009   35.4818 H         1 AON301      0.0000 
     33 H          16.9470    8.7810   33.8893 H         1 AON301      0.0000 
     34 H          25.6262    9.7523   29.9390 H         1 AON301      0.0000 
     35 H          25.7660    9.8013   31.7048 H         1 AON301      0.0000 
     36 H          24.9939   12.1104   29.8925 H         1 AON301      0.0000 
     37 H          25.0972   13.5431   31.8952 H         1 AON301      0.0000 
     38 H          25.4052   12.1190   32.9037 H         1 AON301      0.0000 
     39 H          22.9291   12.5766   31.1981 H         1 AON301      0.0000 
     40 H          22.9703   14.0224   33.2148 H         1 AON301      0.0000 
     41 H          23.2222   12.5881   34.2244 H         1 AON301      0.0000 
     42 H          20.7926   13.1604   32.4633 H         1 AON301      0.0000 
     43 H          20.8342   13.2427   34.2329 H         1 AON301      0.0000 
     44 H          21.2547   10.8091   34.3509 H         1 AON301      0.0000 
     45 H          21.1135   10.8567   31.3178 H         1 AON301      0.0000 
     46 H          20.3459    8.7895   34.9689 H         1 AON301      0.0000 
     47 H          18.9622    9.2448   35.6503 H         1 AON301      0.0000 
     48 H          19.0538    7.8363   34.8797 H         1 AON301      0.0000 
     49 H          24.7293   10.1571   33.5339 H         1 AON301      0.0000 
     50 H          23.3715   10.4562   34.3420 H         1 AON301      0.0000 
     51 H          23.5610    9.0530   33.5797 H         1 AON301      0.0000 
     52 H          27.1548   11.7506   29.7165 H         1 AON301      0.0000 
     53 H          15.8485   10.0681   32.3206 H         1 AON301      0.0000 
@<TRIPOS>BOND
     1    2    1 1    
     2   12    1 1    
     3   22    1 1    
     4   23    1 1    
     5   11    2 1    
     6   15    2 1    
     7   19    2 1    
     8    4    3 1    
     9   19    3 1    
    10   24    3 1    
    11   25    3 1    
    12    5    4 1    
    13   26    4 1    
    14   27    4 1    
    15    6    5 1    
    16    9    5 1    
    17   10    5 1    
    18    7    6 1    
    19   18    6 1    
    20   28    6 1    
    21    8    7 1    
    22   29    7 1    
    23   30    7 1    
    24    9    8 1    
    25   31    8 1    
    26   32    8 1    
    27   21    9 1    
    28   33    9 1    
    29   46   10 1    
    30   47   10 1    
    31   48   10 1    
    32   49   11 1    
    33   50   11 1    
    34   51   11 1    
    35   13   12 1    
    36   34   12 1    
    37   35   12 1    
    38   14   13 1    
    39   20   13 1    
    40   36   13 1    
    41   15   14 1    
    42   37   14 1    
    43   38   14 1    
    44   16   15 1    
    45   39   15 1    
    46   17   16 1    
    47   40   16 1    
    48   41   16 1    
    49   18   17 1    
    50   42   17 1    
    51   43   17 1    
    52   19   18 1    
    53   44   18 1    
    54   45   19 1    
    55   52   20 1    
    56   53   21 1    
@<TRIPOS>SUBSTRUCTURE
     1 AON301      1 GROUP   
@<TRIPOS>SET

