#    Name: 1SM4_1_CAVITY_N1_ALL.mol2
#    Modification time : Tue Mar 11 08:30:51 2014

@<TRIPOS>MOLECULE
1SM4_1_CAVITY_N1_ALL.mol2
   79     0     6     0     0
SMALL
NO_CHARGES


@<TRIPOS>ATOM
      1 O          13.0214   31.7601   45.6643 O.2       2 ALA2        0.0000 
      2 CA         11.1152   32.4919   46.2392 C.3       5 GLY6        0.0000 
      3 OG         16.0287   38.4843   47.0753 O.2       1 SER1        0.0000 
      4 CA         13.3582   39.2875   48.9390 C.3       5 GLY6        0.0000 
      5 OG         14.1225   39.2162   47.6502 O.2       1 SER1        0.0000 
      6 DU         14.8867   39.1448   46.3615 H         6 CUB7        0.0000 
      7 N          11.4520   40.0194   49.5139 N.2       2 ALA2        0.0000 
      8 N          12.2162   39.9481   48.2252 N.2       2 ALA2        0.0000 
      9 DU         12.9805   39.8767   46.9364 H         6 CUB7        0.0000 
     10 DU         13.7447   39.8053   45.6477 H         6 CUB7        0.0000 
     11 CA         10.3100   40.6800   48.8001 C.3       5 GLY6        0.0000 
     12 DU         11.0742   40.6086   47.5114 H         6 CUB7        0.0000 
     13 DU         11.8384   40.5372   46.2226 H         6 CUB7        0.0000 
     14 CA          8.4037   41.4119   49.3750 C.3       5 GLY6        0.0000 
     15 CA          9.1680   41.3405   48.0863 C.3       5 GLY6        0.0000 
     16 DU          9.9322   41.2691   46.7976 H         6 CUB7        0.0000 
     17 OD1         7.2617   42.0724   48.6612 O.3       3 ASP3        0.0000 
     18 CZ         16.6302   39.8291   47.3575 C.ar      4 PHE5        0.0000 
     19 N          17.3944   39.7577   46.0687 N.2       2 ALA2        0.0000 
     20 N          13.9597   40.6324   49.2212 N.2       2 ALA2        0.0000 
     21 CZ         14.7239   40.5610   47.9324 C.ar      4 PHE5        0.0000 
     22 DU         15.4882   40.4896   46.6437 H         6 CUB7        0.0000 
     23 N          12.0535   41.3643   49.7961 N.2       2 ALA2        0.0000 
     24 N          12.8177   41.2929   48.5074 N.2       2 ALA2        0.0000 
     25 DU         13.5819   41.2215   47.2186 H         6 CUB7        0.0000 
     26 CZ         14.3462   41.1502   45.9299 C.ar      4 PHE5        0.0000 
     27 CA         10.9114   42.0248   49.0823 C.3       5 GLY6        0.0000 
     28 DU         11.6757   41.9534   47.7936 H         6 CUB7        0.0000 
     29 CZ         12.4399   41.8821   46.5048 C.ar      4 PHE5        0.0000 
     30 CZ         13.2041   41.8107   45.2161 C.ar      4 PHE5        0.0000 
     31 CA          9.7694   42.6853   48.3685 C.3       5 GLY6        0.0000 
     32 CA         10.5337   42.6140   47.0798 C.3       5 GLY6        0.0000 
     33 CA         11.2979   42.5426   45.7910 C.3       5 GLY6        0.0000 
     34 CA         10.1559   43.2031   45.0772 C.3       5 GLY6        0.0000 
     35 N          17.2316   41.1740   47.6397 N.2       2 ALA2        0.0000 
     36 CZ         14.5612   41.9772   49.5034 C.ar      4 PHE5        0.0000 
     37 CZ         15.3254   41.9059   48.2146 C.ar      4 PHE5        0.0000 
     38 CZ         16.0896   41.8345   46.9259 C.ar      4 PHE5        0.0000 
     39 N          16.8539   41.7631   45.6371 N.2       2 ALA2        0.0000 
     40 OG         13.4192   42.6378   48.7896 O.2       1 SER1        0.0000 
     41 CZ         14.1834   42.5664   47.5008 C.ar      4 PHE5        0.0000 
     42 OG         12.2771   43.2983   48.0758 O.2       1 SER1        0.0000 
     43 CZ         13.0414   43.2269   46.7870 C.ar      4 PHE5        0.0000 
     44 CA         11.1351   43.9588   47.3620 C.3       5 GLY6        0.0000 
     45 CA         11.8994   43.8875   46.0732 C.3       5 GLY6        0.0000 
     46 CA         12.6959   34.5925   48.8062 C.3       5 GLY6        0.0000 
     47 CA         13.4601   34.5211   47.5174 C.3       5 GLY6        0.0000 
     48 O          14.2243   34.4497   46.2287 O.2       2 ALA2        0.0000 
     49 CA         11.5538   35.2530   48.0924 C.3       5 GLY6        0.0000 
     50 CA         12.3181   35.1816   46.8036 C.3       5 GLY6        0.0000 
     51 DU         13.0823   35.1103   45.5149 H         6 CUB7        0.0000 
     52 OG         14.0616   35.8659   47.7996 O.2       1 SER1        0.0000 
     53 O          14.8258   35.7946   46.5109 O.2       2 ALA2        0.0000 
     54 CA         15.5900   35.7232   45.2221 C.3       5 GLY6        0.0000 
     55 OG         12.1553   36.5978   48.3746 O.2       1 SER1        0.0000 
     56 CA         12.9195   36.5265   47.0858 C.3       5 GLY6        0.0000 
     57 DU         13.6838   36.4551   45.7971 H         6 CUB7        0.0000 
     58 OG         14.6630   37.2108   48.0818 O.2       1 SER1        0.0000 
     59 OG         15.4273   37.1394   46.7931 O.2       1 SER1        0.0000 
     60 OG         12.7568   37.9427   48.6568 O.2       1 SER1        0.0000 
     61 DU         13.5210   37.8713   47.3680 H         6 CUB7        0.0000 
     62 DU         14.2852   37.8000   46.0793 H         6 CUB7        0.0000 
     63 CA         11.6148   38.6032   47.9430 C.3       5 GLY6        0.0000 
     64 CA         12.3790   38.5319   46.6542 C.3       5 GLY6        0.0000 
     65 CA         10.4728   39.2638   47.2292 C.3       5 GLY6        0.0000 
     66 N          17.8331   42.5188   47.9219 N.2       2 ALA2        0.0000 
     67 CZ         15.9269   43.2507   48.4968 C.ar      4 PHE5        0.0000 
     68 CZ         16.6911   43.1793   47.2081 C.ar      4 PHE5        0.0000 
     69 CZ         17.4553   43.1080   45.9193 C.ar      4 PHE5        0.0000 
     70 OG         11.7366   45.3037   47.6442 O.2       1 SER1        0.0000 
     71 CZ         17.6703   43.9350   49.4928 C.ar      4 PHE5        0.0000 
     72 O          18.4346   43.8636   48.2041 O.2       2 ALA2        0.0000 
     73 O          19.1988   43.7923   46.9153 O.2       2 ALA2        0.0000 
     74 OG         17.2926   44.5242   47.4903 O.2       1 SER1        0.0000 
     75 CZ         18.0568   44.4528   46.2015 C.ar      4 PHE5        0.0000 
     76 O          12.8586   33.1763   47.2352 O.2       2 ALA2        0.0000 
     77 O          13.6229   33.1049   45.9465 O.2       2 ALA2        0.0000 
     78 CA         11.7166   33.8368   46.5214 C.3       5 GLY6        0.0000 
     79 CA         10.5746   34.4973   45.8076 C.3       5 GLY6        0.0000 
@<TRIPOS>BOND
@<TRIPOS>SUBSTRUCTURE
     1 SER1        3 GROUP   
     2 ALA2        1 GROUP   
     3 ASP3       17 GROUP   
     4 PHE5       18 GROUP   
     5 GLY6        2 GROUP   
     6 CUB7        6 GROUP   
@<TRIPOS>SET

