#    Name: 1sm4_FAD_1_INTS_M
#    Modification time : Tue Mar 25 02:30:32 2014

@<TRIPOS>MOLECULE
1sm4_FAD_1_INTS_M
   86     0    12     0     0
SMALL
NO_CHARGES


@<TRIPOS>ATOM
      1 NZ         14.9265   32.1550   45.3635 N.4       3 LYC4        0.0000 
      2 NZ         14.0140   33.3290   45.0100 N.4      11 LYL4        0.0000 
      3 NZ         16.9160   31.7600   45.7380 N.4       7 LYP4        0.0000 
      4 N          15.3945   33.2085   45.3665 N.am      2 SEC2        0.0000 
      5 N          14.0140   33.3290   45.0100 N.am     10 SEL2        0.0000 
      6 N          16.7750   33.0880   45.7230 N.am      6 SEP2        0.0000 
      7 N          14.9265   32.1550   45.3635 N.am      2 SEC2        0.0000 
      8 N          15.8390   30.9810   45.7170 N.am      6 SEP2        0.0000 
      9 N          14.3175   31.3290   46.1810 N.am      2 SEC2        0.0000 
     10 N          12.7960   31.6770   46.6450 N.am     10 SEL2        0.0000 
     11 N          12.5540   31.7005   48.2620 N.am      2 SEC2        0.0000 
     12 N          12.3120   31.7240   49.8790 N.am      6 SEP2        0.0000 
     13 CA         10.5205   35.3690   45.6575 C.3       4 GLC5        0.0000 
     14 CA         11.4640   34.1410   44.1020 C.3      12 GLL5        0.0000 
     15 CA          9.5770   36.5970   47.2130 C.3       8 GLP5        0.0000 
     16 CA          6.8730   34.4645   43.9935 C.3       4 GLC5        0.0000 
     17 CA          8.3280   35.4150   42.8830 C.3      12 GLL5        0.0000 
     18 CA          5.4180   33.5140   45.1040 C.3       8 GLP5        0.0000 
     19 CA          4.2610   36.6190   45.5465 C.3       4 GLC5        0.0000 
     20 CA          5.0770   36.8260   43.4730 C.3      12 GLL5        0.0000 
     21 CA          3.4450   36.4120   47.6200 C.3       8 GLP5        0.0000 
     22 O           1.5025   37.3515   43.0265 O.2       1 ALC1        0.0000 
     23 O           2.7340   37.4230   43.7200 O.2       9 ALL1        0.0000 
     24 O           0.2710   37.2800   42.3330 O.2       5 ALP1        0.0000 
     25 N          13.9730   42.5400   51.7430 N.am      2 SEC2        0.0000 
     26 N          14.7090   42.5700   50.5200 N.am     10 SEL2        0.0000 
     27 N          13.2370   42.5100   52.9660 N.am      6 SEP2        0.0000 
     28 O          16.6550   44.3355   51.4105 O.2       1 ALC1        0.0000 
     29 O          16.4760   43.9350   50.0820 O.2       9 ALL1        0.0000 
     30 O          16.8340   44.7360   52.7390 O.2       5 ALP1        0.0000 
     31 N          19.7965   44.9610   49.1515 N.am      2 SEC2        0.0000 
     32 N          18.2480   45.3350   49.7050 N.am     10 SEL2        0.0000 
     33 N          21.3450   44.5870   48.5980 N.am      6 SEP2        0.0000 
     34 N          19.9885   44.4450   47.8530 N.am      2 SEC2        0.0000 
     35 N          18.6320   44.3030   47.1080 N.am     10 SEL2        0.0000 
     36 N          19.6225   45.4830   46.9870 N.am      2 SEC2        0.0000 
     37 N          20.6130   46.6630   46.8660 N.am      6 SEP2        0.0000 
     38 CA         20.4905   45.5690   46.5405 C.3       4 GLC5        0.0000 
     39 CA         19.7770   44.1500   44.9690 C.3      12 GLL5        0.0000 
     40 CA         21.2040   46.9880   48.1120 C.3       8 GLP5        0.0000 
     41 CA         20.8710   46.0190   42.3775 C.3       4 GLC5        0.0000 
     42 CA         21.0890   44.1420   42.8210 C.3      12 GLL5        0.0000 
     43 CA         20.6530   47.8960   41.9340 C.3       8 GLP5        0.0000 
     44 CA         15.3480   42.5825   45.2235 C.3       4 GLC5        0.0000 
     45 CA         15.9210   41.0740   46.0530 C.3      12 GLL5        0.0000 
     46 CA         14.7750   44.0910   44.3940 C.3       8 GLP5        0.0000 
     47 CA         16.9575   39.7825   48.3210 C.3       4 GLC5        0.0000 
     48 CA         16.4420   39.7690   46.5230 C.3      12 GLL5        0.0000 
     49 CA         17.4730   39.7960   50.1190 C.3       8 GLP5        0.0000 
     50 O          18.7470   40.0495   46.3600 O.2       1 ALC1        0.0000 
     51 O          17.7680   39.4850   45.8360 O.2       9 ALL1        0.0000 
     52 O          19.7260   40.6140   46.8840 O.2       5 ALP1        0.0000 
     53 CA         13.9970   37.6955   49.5750 C.3       4 GLC5        0.0000 
     54 CA         14.7460   38.1070   47.5010 C.3      12 GLL5        0.0000 
     55 CA         13.2480   37.2840   51.6490 C.3       8 GLP5        0.0000 
     56 N          15.9830   37.9870   49.2895 N.am      2 SEC2        0.0000 
     57 N          15.0410   38.4790   48.8520 N.am     10 SEL2        0.0000 
     58 N          16.9250   37.4950   49.7270 N.am      6 SEP2        0.0000 
     59 CA         11.6240   36.8840   47.1645 C.3       4 GLC5        0.0000 
     60 CA         13.6710   37.1710   47.1160 C.3      12 GLL5        0.0000 
     61 NZ         16.0540   32.7405   46.8160 N.4       3 LYC4        0.0000 
     62 NZ         15.1920   33.7210   47.8940 N.4      11 LYL4        0.0000 
     63 N          15.1750   33.1770   49.2075 N.am      2 SEC2        0.0000 
     64 N          15.1920   33.7210   47.8940 N.am     10 SEL2        0.0000 
     65 N          15.1580   32.6330   50.5210 N.am      6 SEP2        0.0000 
     66 N          13.9740   35.3220   50.3210 N.am      2 SEC2        0.0000 
     67 N          13.1670   35.2940   49.0590 N.am     10 SEL2        0.0000 
     68 N          14.7810   35.3500   51.5830 N.am      6 SEP2        0.0000 
     69 N          12.7285   35.8710   50.0490 N.am      2 SEC2        0.0000 
     70 N          12.2900   36.4480   51.0390 N.am      6 SEP2        0.0000 
     71 CA         20.1445   43.0588   47.0830 C.3       4 GLC5        0.0000 
     72 CA         18.7610   43.6890   45.8670 C.3      12 GLL5        0.0000 
     73 CA         21.0200   42.1980   48.7480 C.3       8 GLP5        0.0000 
     74 CA         21.2986   42.1928   44.1549 C.3       4 GLC5        0.0000 
     75 CA         22.1190   40.3800   44.7320 C.3       8 GLP5        0.0000 
     76 CA         17.3143   42.9525   42.2807 C.3       4 GLC5        0.0000 
     77 CA         19.1030   42.5410   43.2560 C.3      12 GLL5        0.0000 
     78 CA         15.4660   43.6950   41.9830 C.3       8 GLP5        0.0000 
     79 CA         20.3716   41.2617   44.0491 C.3       4 GLC5        0.0000 
     80 CA         16.7252   43.0200   43.3860 C.3       4 GLC5        0.0000 
     81 CA         18.0860   42.0770   44.1540 C.3      12 GLL5        0.0000 
     82 CA         17.4520   37.6822   46.6060 C.3       4 GLC5        0.0000 
     83 CA         18.9310   36.0920   46.7830 C.3       8 GLP5        0.0000 
     84 CA         16.4930   38.4637   48.4080 C.3       4 GLC5        0.0000 
     85 CA         15.5040   38.7760   46.3350 C.3      12 GLL5        0.0000 
     86 CA         17.8610   38.4860   49.8980 C.3       8 GLP5        0.0000 
@<TRIPOS>BOND
@<TRIPOS>SUBSTRUCTURE
     1 ALC1       22 GROUP        1 X    ALC  0     ROOT ALC X 1
     2 SEC2        4 GROUP        1 X    SEC  0     **** SEC X 2
     3 LYC4        1 GROUP        1 X    LYC  0     **** LYC X 4
     4 GLC5       13 GROUP        1 X    GLC  0     **** GLC X 6
     5 ALP1       24 GROUP        1 Y    ALP  0     ROOT ALP Y 8
     6 SEP2        6 GROUP        1 Y    SEP  0     **** SEP Y 9
     7 LYP4        3 GROUP        1 Y    LYP  0     **** LYP Y 11
     8 GLP5       15 GROUP        1 Y    GLP  0     **** GLP Y 13
     9 ALL1       23 GROUP        1 Z    ALL  0     ROOT ALL Z 15
    10 SEL2        5 GROUP        1 Z    SEL  0     **** SEL Z 16
    11 LYL4        2 GROUP        1 Z    LYL  0     **** LYL Z 18
    12 GLL5       14 GROUP        1 Z    GLL  0     **** GLL Z 20
@<TRIPOS>SET

