#    Name: 1sm4_FAD_1_ligand
#    Modification time : Tue Mar 25 02:30:32 2014

@<TRIPOS>MOLECULE
1sm4_FAD_1_ligand
   84    89     1     0     0
SMALL
NO_CHARGES


@<TRIPOS>ATOM
      1 PA         12.7050   32.9300   45.9440 P.3       1 FAD364      0.0000 
      2 O1A        14.0140   33.3290   45.0100 O.co2     1 FAD364      0.0000 
      3 O2A        12.7960   31.6770   46.6450 O.co2     1 FAD364      0.0000 
      4 O5B        11.4280   33.5960   45.3780 O.3       1 FAD364      0.0000 
      5 C5B        11.4640   34.1410   44.1020 C.3       1 FAD364      0.0000 
      6 C4B        10.2180   34.3560   43.2430 C.3       1 FAD364      0.0000 
      7 O4B         9.2830   35.2050   43.9090 O.3       1 FAD364      0.0000 
      8 C3B        10.4400   35.2360   41.9880 C.3       1 FAD364      0.0000 
      9 O3B        11.3480   34.7280   41.0690 O.3       1 FAD364      0.0000 
     10 C2B         8.9750   35.3900   41.5580 C.3       1 FAD364      0.0000 
     11 O2B         8.5140   34.1470   40.9410 O.3       1 FAD364      0.0000 
     12 C1B         8.3280   35.4150   42.8830 C.3       1 FAD364      0.0000 
     13 N9A         7.1800   36.2610   43.3360 N.pl3     1 FAD364      0.0000 
     14 C8A         7.0130   37.2620   44.2860 C.2       1 FAD364      0.0000 
     15 N7A         5.7280   37.6570   44.3980 N.2       1 FAD364      0.0000 
     16 C5A         5.0770   36.8260   43.4730 C.ar      1 FAD364      0.0000 
     17 C6A         3.7130   36.7110   43.0910 C.ar      1 FAD364      0.0000 
     18 N6A         2.7340   37.4230   43.7200 N.pl3     1 FAD364      0.0000 
     19 N1A         3.3870   35.8100   42.1190 N.ar      1 FAD364      0.0000 
     20 C2A         4.3860   35.0780   41.4890 C.ar      1 FAD364      0.0000 
     21 N3A         5.6850   35.1160   41.7790 N.ar      1 FAD364      0.0000 
     22 C4A         5.9780   36.0440   42.8030 C.ar      1 FAD364      0.0000 
     23 N1         15.7200   42.3370   48.4460 N.2       1 FAD364      0.0000 
     24 C2         15.5980   42.9290   49.6790 C.2       1 FAD364      0.0000 
     25 O2         14.7090   42.5700   50.5200 O.2       1 FAD364      0.0000 
     26 N3         16.4760   43.9350   50.0820 N.am      1 FAD364      0.0000 
     27 C4         17.4970   44.4340   49.2680 C.2       1 FAD364      0.0000 
     28 O4         18.2480   45.3350   49.7050 O.2       1 FAD364      0.0000 
     29 C4X        17.6140   43.8410   47.9740 C.2       1 FAD364      0.0000 
     30 N5         18.6320   44.3030   47.1080 N.2       1 FAD364      0.0000 
     31 C5X        18.7610   43.6890   45.8670 C.ar      1 FAD364      0.0000 
     32 C6         19.7770   44.1500   44.9690 C.ar      1 FAD364      0.0000 
     33 C7         19.9580   43.5880   43.7000 C.ar      1 FAD364      0.0000 
     34 C7M        21.0890   44.1420   42.8210 C.3       1 FAD364      0.0000 
     35 C8         19.1030   42.5410   43.2560 C.ar      1 FAD364      0.0000 
     36 C8M        19.2220   41.8790   41.9010 C.3       1 FAD364      0.0000 
     37 C9         18.0860   42.0770   44.1540 C.ar      1 FAD364      0.0000 
     38 C9A        17.8830   42.6130   45.4240 C.ar      1 FAD364      0.0000 
     39 N10        16.8910   42.1390   46.3230 N.pl3     1 FAD364      0.0000 
     40 C10        16.7080   42.7940   47.6290 C.2       1 FAD364      0.0000 
     41 C1'        15.9210   41.0740   46.0530 C.3       1 FAD364      0.0000 
     42 C2'        16.4420   39.7690   46.5230 C.3       1 FAD364      0.0000 
     43 O2'        17.7680   39.4850   45.8360 O.3       1 FAD364      0.0000 
     44 C3'        15.5040   38.7760   46.3350 C.3       1 FAD364      0.0000 
     45 O3'        15.0650   38.4040   45.0680 O.3       1 FAD364      0.0000 
     46 C4'        14.7460   38.1070   47.5010 C.3       1 FAD364      0.0000 
     47 O4'        15.0410   38.4790   48.8520 O.3       1 FAD364      0.0000 
     48 C5'        13.6710   37.1710   47.1160 C.3       1 FAD364      0.0000 
     49 O5'        14.7350   35.9970   47.0440 O.3       1 FAD364      0.0000 
     50 P          14.0370   34.7450   47.8410 P.3       1 FAD364      0.0000 
     51 O1P        15.1920   33.7210   47.8940 O.co2     1 FAD364      0.0000 
     52 O2P        13.1670   35.2940   49.0590 O.co2     1 FAD364      0.0000 
     53 O3P        12.9360   33.7500   47.2580 O.3       1 FAD364      0.0000 
     54 H          12.2005   33.5470   43.4270 H         1 FAD364      0.0000 
     55 H          12.0066   35.1688   44.1142 H         1 FAD364      0.0000 
     56 H           9.7711   33.4612   42.9442 H         1 FAD364      0.0000 
     57 H          10.7174   36.2216   42.4053 H         1 FAD364      0.0000 
     58 H           8.8245   36.2256   41.0391 H         1 FAD364      0.0000 
     59 H           7.7897   34.2768   42.8960 H         1 FAD364      0.0000 
     60 H           7.7634   37.6276   44.8079 H         1 FAD364      0.0000 
     61 H           1.8069   37.3059   43.3639 H         1 FAD364      0.0000 
     62 H           3.0295   37.9994   44.4818 H         1 FAD364      0.0000 
     63 H           4.0558   34.4250   40.6944 H         1 FAD364      0.0000 
     64 H          16.3656   44.3386   51.0448 H         1 FAD364      0.0000 
     65 H          20.3895   44.9235   45.2810 H         1 FAD364      0.0000 
     66 H          17.4747   41.2967   43.8238 H         1 FAD364      0.0000 
     67 H          15.7134   41.0176   44.9752 H         1 FAD364      0.0000 
     68 H          14.9708   41.2921   46.5605 H         1 FAD364      0.0000 
     69 H          16.6755   39.8924   47.6036 H         1 FAD364      0.0000 
     70 H          16.4617   37.7409   46.3595 H         1 FAD364      0.0000 
     71 H          15.7025   37.0549   47.5113 H         1 FAD364      0.0000 
     72 H          13.3352   37.3394   46.1763 H         1 FAD364      0.0000 
     73 H          13.0442   36.9708   47.8849 H         1 FAD364      0.0000 
     74 H          21.9835   44.0335   43.2547 H         1 FAD364      0.0000 
     75 H          21.1337   43.6772   41.9367 H         1 FAD364      0.0000 
     76 H          20.9703   45.1171   42.6339 H         1 FAD364      0.0000 
     77 H          20.1144   41.4453   41.7766 H         1 FAD364      0.0000 
     78 H          18.5303   41.1682   41.7729 H         1 FAD364      0.0000 
     79 H          19.1089   42.5359   41.1555 H         1 FAD364      0.0000 
     80 H          12.2212   35.1540   41.3056 H         1 FAD364      0.0000 
     81 H           7.5215   34.1500   41.0634 H         1 FAD364      0.0000 
     82 H          18.3246   40.2991   46.0015 H         1 FAD364      0.0000 
     83 H          15.7014   38.8437   44.4343 H         1 FAD364      0.0000 
     84 H          14.1658   38.7728   49.2363 H         1 FAD364      0.0000 
@<TRIPOS>BOND
     1    2    1 ar   
     2    3    1 ar   
     3    4    1 1    
     4   53    1 1    
     5    5    4 1    
     6    6    5 1    
     7   54    5 1    
     8   55    5 1    
     9    7    6 1    
    10    8    6 1    
    11   56    6 1    
    12   12    7 1    
    13    9    8 1    
    14   10    8 1    
    15   57    8 1    
    16   80    9 1    
    17   11   10 1    
    18   12   10 1    
    19   58   10 1    
    20   81   11 1    
    21   13   12 1    
    22   59   12 1    
    23   14   13 1    
    24   22   13 1    
    25   15   14 2    
    26   60   14 1    
    27   16   15 1    
    28   17   16 ar   
    29   22   16 ar   
    30   18   17 1    
    31   19   17 ar   
    32   61   18 1    
    33   62   18 1    
    34   20   19 ar   
    35   21   20 ar   
    36   63   20 1    
    37   22   21 ar   
    38   24   23 1    
    39   40   23 2    
    40   25   24 2    
    41   26   24 am   
    42   27   26 am   
    43   64   26 1    
    44   28   27 2    
    45   29   27 1    
    46   30   29 2    
    47   40   29 1    
    48   31   30 1    
    49   32   31 ar   
    50   38   31 ar   
    51   33   32 ar   
    52   65   32 1    
    53   34   33 1    
    54   35   33 ar   
    55   74   34 1    
    56   75   34 1    
    57   76   34 1    
    58   36   35 1    
    59   37   35 ar   
    60   77   36 1    
    61   78   36 1    
    62   79   36 1    
    63   38   37 ar   
    64   66   37 1    
    65   39   38 1    
    66   40   39 1    
    67   41   39 1    
    68   42   41 1    
    69   67   41 1    
    70   68   41 1    
    71   43   42 1    
    72   44   42 1    
    73   69   42 1    
    74   82   43 1    
    75   45   44 1    
    76   46   44 1    
    77   70   44 1    
    78   83   45 1    
    79   47   46 1    
    80   48   46 1    
    81   71   46 1    
    82   84   47 1    
    83   49   48 1    
    84   72   48 1    
    85   73   48 1    
    86   50   49 1    
    87   51   50 ar   
    88   52   50 ar   
    89   53   50 1    
@<TRIPOS>SUBSTRUCTURE
     1 FAD364      1 GROUP   
@<TRIPOS>SET

