#    Name: 3zze_6XP_1_INTS_M
#    Modification time : Tue Mar 25 04:44:15 2014

@<TRIPOS>MOLECULE
3zze_6XP_1_INTS_M
   68     0     9     0     0
SMALL
NO_CHARGES


@<TRIPOS>ATOM
      1 CA         20.4645    5.0470    7.8175 C.3       3 GLC5        0.0000 
      2 CA         19.7130    7.1210    8.2550 C.3       9 GLL5        0.0000 
      3 CA         21.2160    2.9730    7.3800 C.3       6 GLP5        0.0000 
      4 CA         19.1025    5.9625    9.2095 C.3       3 GLC5        0.0000 
      5 CA         18.4920    4.8040   10.1640 C.3       6 GLP5        0.0000 
      6 CA         20.6755    7.4325    9.7150 C.3       3 GLC5        0.0000 
      7 CA         21.6380    7.7440   11.1750 C.3       6 GLP5        0.0000 
      8 CA         17.3800    8.6945    9.8160 C.3       3 GLC5        0.0000 
      9 CA         16.9290    8.1040    7.8770 C.3       9 GLL5        0.0000 
     10 CA         17.8310    9.2850   11.7550 C.3       6 GLP5        0.0000 
     11 CA         16.5585    6.6815    9.4310 C.3       3 GLC5        0.0000 
     12 CA         16.1880    5.2590   10.9850 C.3       6 GLP5        0.0000 
     13 CA         14.3035    9.5000    7.9795 C.3       3 GLC5        0.0000 
     14 CA         15.5250    8.1100    7.5120 C.3       9 GLL5        0.0000 
     15 CA         13.0820   10.8900    8.4470 C.3       6 GLP5        0.0000 
     16 CA         15.9315    7.9960    3.1935 C.3       3 GLC5        0.0000 
     17 CA         16.1480    8.4120    5.1220 C.3       9 GLL5        0.0000 
     18 CA         15.7150    7.5800    1.2650 C.3       6 GLP5        0.0000 
     19 CA         21.7955   16.5110    2.2175 C.3       3 GLC5        0.0000 
     20 CA         21.1430   14.8090    1.3270 C.3       9 GLL5        0.0000 
     21 CA         22.4480   18.2130    3.1080 C.3       6 GLP5        0.0000 
     22 CA         19.7865    6.8805    5.6130 C.3       3 GLC5        0.0000 
     23 CA         19.4560    8.2530    7.2430 C.3       9 GLL5        0.0000 
     24 CA         20.1170    5.5080    3.9830 C.3       6 GLP5        0.0000 
     25 CA         21.3735    8.5025    6.4760 C.3       3 GLC5        0.0000 
     26 CA         23.2910    8.7520    5.7090 C.3       6 GLP5        0.0000 
     27 O          20.7480   14.9195    4.3520 O.2       1 ALC1        0.0000 
     28 O          20.9090   13.6360    4.1290 O.2       7 ALL1        0.0000 
     29 O          20.5870   16.2030    4.5750 O.2       4 ALP1        0.0000 
     30 N          20.7630   10.8975    9.7380 N.am      2 SEC2        0.0000 
     31 N          19.9710    9.7730    9.0510 N.am      8 SEL2        0.0000 
     32 N          21.5550   12.0220   10.4250 N.am      5 SEP2        0.0000 
     33 N          12.5885    8.6060    6.3575 N.am      2 SEC2        0.0000 
     34 N          13.8350    8.2710    5.7940 N.am      8 SEL2        0.0000 
     35 N          11.3420    8.9410    6.9210 N.am      5 SEP2        0.0000 
     36 CA         17.6980    8.2475    1.8895 C.3       3 GLC5        0.0000 
     37 CA         19.6810    8.9150    2.5140 C.3       9 GLL5        0.0000 
     38 CA         19.8990    7.2115    3.2485 C.3       3 GLC5        0.0000 
     39 CA         21.5000    9.1325    2.9535 C.3       3 GLC5        0.0000 
     40 CA         23.3190    9.3500    3.3930 C.3       6 GLP5        0.0000 
     41 CA         13.7980    9.6960    6.6045 C.3       3 GLC5        0.0000 
     42 CA         15.1550    8.2650    6.1330 C.3       9 GLL5        0.0000 
     43 CA         12.4410   11.1270    7.0760 C.3       6 GLP5        0.0000 
     44 CA         18.4595   12.2555    5.1595 C.3       3 GLC5        0.0000 
     45 CA         20.3610   11.4340    4.7020 C.3       9 GLL5        0.0000 
     46 CA         16.5580   13.0770    5.6170 C.3       6 GLP5        0.0000 
     47 CA         22.0950   11.2095    4.8790 C.3       3 GLC5        0.0000 
     48 CA         23.8290   10.9850    5.0560 C.3       6 GLP5        0.0000 
     49 CA         19.1325   14.3900    3.1225 C.3       3 GLC5        0.0000 
     50 CA         20.7030   12.9230    3.0700 C.3       9 GLL5        0.0000 
     51 CA         17.5620   15.8570    3.1750 C.3       6 GLP5        0.0000 
     52 CA         15.5535    6.4560    7.0347 C.3       3 GLC5        0.0000 
     53 CA         14.8800    4.8050    6.3750 C.3       6 GLP5        0.0000 
     54 CA         17.2797    6.6078    4.5992 C.3       3 GLC5        0.0000 
     55 CA         17.7200    4.8070    3.8940 C.3       6 GLP5        0.0000 
     56 CA         15.2658    6.5717    6.0012 C.3       3 GLC5        0.0000 
     57 CA         19.2632   14.9747    2.3193 C.3       3 GLC5        0.0000 
     58 CA         20.7860   13.3760    1.6000 C.3       9 GLL5        0.0000 
     59 CA         22.4108   12.8972    2.0473 C.3       3 GLC5        0.0000 
     60 CA         23.8570   11.7020    2.6310 C.3       6 GLP5        0.0000 
     61 CA         15.6146   10.2039    5.4034 C.3       3 GLC5        0.0000 
     62 CA         17.5310    8.4050    5.4870 C.3       9 GLL5        0.0000 
     63 CA         15.2320   12.0710    5.0880 C.3       6 GLP5        0.0000 
     64 CA         22.1032   11.7110    1.7012 C.3       3 GLC5        0.0000 
     65 CA         20.1740   11.0110    0.9300 C.3       9 GLL5        0.0000 
     66 CA         19.9021    8.9206    0.4706 C.3       3 GLC5        0.0000 
     67 CA         19.7750    7.4660   -0.7110 C.3       6 GLP5        0.0000 
     68 CA         22.1586   11.8392    2.7822 C.3       3 GLC5        0.0000 
@<TRIPOS>BOND
@<TRIPOS>SUBSTRUCTURE
     1 ALC1       27 GROUP        1 X    ALC  0     ROOT ALC X 1
     2 SEC2       30 GROUP        1 X    SEC  0     **** SEC X 2
     3 GLC5        1 GROUP        1 X    GLC  0     **** GLC X 6
     4 ALP1       29 GROUP        1 Y    ALP  0     ROOT ALP Y 8
     5 SEP2       32 GROUP        1 Y    SEP  0     **** SEP Y 9
     6 GLP5        3 GROUP        1 Y    GLP  0     **** GLP Y 13
     7 ALL1       28 GROUP        1 Z    ALL  0     ROOT ALL Z 15
     8 SEL2       31 GROUP        1 Z    SEL  0     **** SEL Z 16
     9 GLL5        2 GROUP        1 Z    GLL  0     **** GLL Z 20
@<TRIPOS>SET

