#    Name: 3zze_6XP_1_ligand
#    Modification time : Tue Mar 25 04:44:15 2014

@<TRIPOS>MOLECULE
3zze_6XP_1_ligand
   42    44     1     0     0
SMALL
NO_CHARGES


@<TRIPOS>ATOM
      1 C50        19.7130    7.1210    8.2550 C.3       1 6XP2345     0.0000 
      2 C2         16.9290    8.1040    7.8770 C.ar      1 6XP2345     0.0000 
      3 C6         17.5310    8.4050    5.4870 C.ar      1 6XP2345     0.0000 
      4 C3         15.5250    8.1100    7.5120 C.ar      1 6XP2345     0.0000 
      5 C5         16.1480    8.4120    5.1220 C.ar      1 6XP2345     0.0000 
      6 C19        19.9560    9.5880    7.8300 C.2       1 6XP2345     0.0000 
      7 C24        21.1430   14.8090    1.3270 C.3       1 6XP2345     0.0000 
      8 C20        19.4560    8.2530    7.2430 C.3       1 6XP2345     0.0000 
      9 N13        20.9090   13.6360    4.1290 N.am      1 6XP2345     0.0000 
     10 N17        20.1210   10.4080    5.5880 N.3       1 6XP2345     0.0000 
     11 N18        20.3730   10.5830    6.9720 N.am      1 6XP2345     0.0000 
     12 O16        20.8300   13.1160    6.3960 O.2       1 6XP2345     0.0000 
     13 O21        19.9710    9.7730    9.0510 O.2       1 6XP2345     0.0000 
     14 O22        13.8350    8.2710    5.7940 O.3       1 6XP2345     0.0000 
     15 CL2        19.6810    8.9150    2.5140 Cl        1 6XP2345     0.0000 
     16 C1         17.9610    8.2510    6.8590 C.ar      1 6XP2345     0.0000 
     17 C4         15.1550    8.2650    6.1330 C.ar      1 6XP2345     0.0000 
     18 C8         20.5250   12.4290    0.6130 C.ar      1 6XP2345     0.0000 
     19 C7         20.1740   11.0110    0.9300 C.ar      1 6XP2345     0.0000 
     20 C11        20.3470   11.4960    3.3590 C.ar      1 6XP2345     0.0000 
     21 C9         20.7860   13.3760    1.6000 C.ar      1 6XP2345     0.0000 
     22 C15        20.3610   11.4340    4.7020 C.3       1 6XP2345     0.0000 
     23 C10        20.0880   10.5640    2.2350 C.ar      1 6XP2345     0.0000 
     24 C12        20.7030   12.9230    3.0700 C.ar      1 6XP2345     0.0000 
     25 C14        20.7230   12.8080    5.2020 C.2       1 6XP2345     0.0000 
     26 H          17.1969    7.9969    8.8467 H         1 6XP2345     0.0000 
     27 H          18.2456    8.5122    4.7571 H         1 6XP2345     0.0000 
     28 H          14.8211    8.0060    8.2239 H         1 6XP2345     0.0000 
     29 H          15.8794    8.5207    4.1520 H         1 6XP2345     0.0000 
     30 H          20.0391    8.0260    6.3526 H         1 6XP2345     0.0000 
     31 H          21.1474   14.5664    4.1971 H         1 6XP2345     0.0000 
     32 H          20.8431   11.4145    7.2997 H         1 6XP2345     0.0000 
     33 H          20.5645   12.6734   -0.3874 H         1 6XP2345     0.0000 
     34 H          20.0024   10.3953    0.1299 H         1 6XP2345     0.0000 
     35 H          18.9811   11.8710    4.7412 H         1 6XP2345     0.0000 
     36 H          20.6859    7.0242    8.4648 H         1 6XP2345     0.0000 
     37 H          19.2410    7.2833    9.1215 H         1 6XP2345     0.0000 
     38 H          19.3980    6.2365    7.9108 H         1 6XP2345     0.0000 
     39 H          21.2944   15.3215    2.1722 H         1 6XP2345     0.0000 
     40 H          21.9789   14.8865    0.7836 H         1 6XP2345     0.0000 
     41 H          20.4206   15.2821    0.8227 H         1 6XP2345     0.0000 
     42 H          13.8244    8.2377    4.7946 H         1 6XP2345     0.0000 
@<TRIPOS>BOND
     1    8    1 1    
     2   36    1 1    
     3   37    1 1    
     4   38    1 1    
     5    4    2 ar   
     6   16    2 ar   
     7   26    2 1    
     8    5    3 ar   
     9   16    3 ar   
    10   27    3 1    
    11   17    4 ar   
    12   28    4 1    
    13   17    5 ar   
    14   29    5 1    
    15    8    6 1    
    16   11    6 am   
    17   13    6 2    
    18   21    7 1    
    19   39    7 1    
    20   40    7 1    
    21   41    7 1    
    22   16    8 1    
    23   30    8 1    
    24   24    9 1    
    25   25    9 am   
    26   31    9 1    
    27   11   10 1    
    28   22   10 1    
    29   32   11 1    
    30   25   12 2    
    31   17   14 1    
    32   42   14 1    
    33   23   15 1    
    34   19   18 ar   
    35   21   18 ar   
    36   33   18 1    
    37   23   19 ar   
    38   34   19 1    
    39   22   20 1    
    40   23   20 ar   
    41   24   20 ar   
    42   24   21 ar   
    43   25   22 1    
    44   35   22 1    
@<TRIPOS>SUBSTRUCTURE
     1 6XP2345     1 GROUP   
@<TRIPOS>SET

