#    Name: 3qiy_QI1_1_INTS_M
#    Modification time : Mon Apr  7 19:35:30 2014

@<TRIPOS>MOLECULE
3qiy_QI1_1_INTS_M
   63     0    12     0     0
SMALL
NO_CHARGES


@<TRIPOS>ATOM
      1 Zn        -17.1965   33.9195   -6.0745 Zn        3 ZIC7        0.0000 
      2 Zn        -17.9760   33.2180   -5.9740 Zn       11 ZIL7        0.0000 
      3 Zn        -16.4170   34.6210   -6.1750 Zn        7 ZIP7        0.0000 
      4 O         -18.0535   31.9955   -6.7895 O.2       1 ALC1        0.0000 
      5 O         -17.9760   33.2180   -5.9740 O.2       9 ALL1        0.0000 
      6 O         -18.1310   30.7730   -7.6050 O.2       5 ALP1        0.0000 
      7 O         -18.6775   32.8245   -7.1535 O.2       1 ALC1        0.0000 
      8 O         -19.3790   32.4310   -8.3330 O.2       5 ALP1        0.0000 
      9 O         -20.3755   33.0065   -5.5730 O.2       1 ALC1        0.0000 
     10 O         -19.1450   33.8030   -5.5880 O.2       9 ALL1        0.0000 
     11 O         -21.6060   32.2100   -5.5580 O.2       5 ALP1        0.0000 
     12 Zn        -17.3555   35.2345   -6.0620 Zn        3 ZIC7        0.0000 
     13 Zn        -18.2940   35.8480   -5.9490 Zn       11 ZIL7        0.0000 
     14 N         -18.1770   36.8925   -5.0015 N.am      2 SEC2        0.0000 
     15 N         -18.2940   35.8480   -5.9490 N.am     10 SEL2        0.0000 
     16 N         -18.0600   37.9370   -4.0540 N.am      6 SEP2        0.0000 
     17 CA        -19.0435   37.3510   -4.9680 C.3       4 GLC5        0.0000 
     18 CA        -20.5650   35.7250   -5.1650 C.3      12 GLL5        0.0000 
     19 CA        -17.5220   38.9770   -4.7710 C.3       8 GLP5        0.0000 
     20 CA        -18.9065   38.3825   -6.3045 C.3       4 GLC5        0.0000 
     21 CA        -20.6150   37.9200   -6.4950 C.3      12 GLL5        0.0000 
     22 CA        -17.1980   38.8450   -6.1140 C.3       8 GLP5        0.0000 
     23 CA        -23.9545   39.5425   -5.5550 C.3       4 GLC5        0.0000 
     24 CA        -22.8250   38.7070   -7.2430 C.3      12 GLL5        0.0000 
     25 CA        -25.0840   40.3780   -3.8670 C.3       8 GLP5        0.0000 
     26 CA        -24.5155   37.8200   -8.1360 C.3       4 GLC5        0.0000 
     27 CA        -26.2060   36.9330   -9.0290 C.3       8 GLP5        0.0000 
     28 CA        -19.1210   39.5865   -6.3115 C.3       4 GLC5        0.0000 
     29 CA        -21.0440   40.3280   -6.5090 C.3      12 GLL5        0.0000 
     30 CA        -24.4760   40.6445   -5.9285 C.3       4 GLC5        0.0000 
     31 CA        -23.8680   40.9110   -7.9900 C.3      12 GLL5        0.0000 
     32 CA        -25.3395   41.4765  -11.6760 C.3       4 GLC5        0.0000 
     33 CA        -24.0840   42.8210  -11.5120 C.3      12 GLL5        0.0000 
     34 CA        -26.5950   40.1320  -11.8400 C.3       8 GLP5        0.0000 
     35 CA        -24.1355   44.3685  -12.5780 C.3       4 GLC5        0.0000 
     36 CA        -24.1870   45.9160  -13.6440 C.3       8 GLP5        0.0000 
     37 CA        -22.3340   43.1940  -11.2810 C.3       4 GLC5        0.0000 
     38 CA        -20.5840   43.5670  -11.0500 C.3       8 GLP5        0.0000 
     39 CA        -23.2240   44.0370   -9.9310 C.3       4 GLC5        0.0000 
     40 CA        -22.3640   45.2530   -8.3500 C.3       8 GLP5        0.0000 
     41 CA        -22.9100   40.5310   -2.2215 C.3       4 GLC5        0.0000 
     42 CA        -21.1000   41.3830   -2.8320 C.3      12 GLL5        0.0000 
     43 CA        -24.7200   39.6790   -1.6110 C.3       8 GLP5        0.0000 
     44 CA        -23.5265   41.5195   -1.5205 C.3       4 GLC5        0.0000 
     45 CA        -22.3330   43.3600   -1.4300 C.3      12 GLL5        0.0000 
     46 CA        -22.3065   45.2440   -1.8290 C.3       4 GLC5        0.0000 
     47 CA        -22.2800   47.1280   -2.2280 C.3       8 GLP5        0.0000 
     48 CA        -25.1796   40.8004  -10.7761 C.3       4 GLC5        0.0000 
     49 CA        -23.7270   41.6550  -10.2860 C.3      12 GLL5        0.0000 
     50 CA        -22.1741   42.5179  -10.3811 C.3       4 GLC5        0.0000 
     51 CA        -23.1532   43.5050   -8.9900 C.3       4 GLC5        0.0000 
     52 CA        -20.4117   43.2578   -5.2547 C.3       4 GLC5        0.0000 
     53 CA        -22.2070   42.1940   -5.2620 C.3      12 GLL5        0.0000 
     54 CA        -19.0460   44.8710   -5.2680 C.3       8 GLP5        0.0000 
     55 CA        -22.3340   44.2127   -5.8210 C.3       4 GLC5        0.0000 
     56 CA        -22.3120   45.8820   -6.9650 C.3       8 GLP5        0.0000 
     57 CA        -23.6572   41.5343   -3.6753 C.3       4 GLC5        0.0000 
     58 CA        -22.5050   42.8930   -4.0920 C.3      12 GLL5        0.0000 
     59 CA        -20.6382   43.7808   -4.3758 C.3       4 GLC5        0.0000 
     60 CA        -23.1861   40.7706   -4.2446 C.3       4 GLC5        0.0000 
     61 CA        -23.7922   43.5725   -1.3958 C.3       4 GLC5        0.0000 
     62 CA        -21.9560   42.4880   -2.8750 C.3      12 GLL5        0.0000 
     63 CA        -25.4400   44.2210   -0.6390 C.3       8 GLP5        0.0000 
@<TRIPOS>BOND
@<TRIPOS>SUBSTRUCTURE
     1 ALC1        4 GROUP        1 X    ALC  0     ROOT ALC X 1
     2 SEC2       14 GROUP        1 X    SEC  0     **** SEC X 2
     3 ZIC7        1 GROUP        1 X    ZIC  0     **** ZIC X 5
     4 GLC5       17 GROUP        1 X    GLC  0     **** GLC X 6
     5 ALP1        6 GROUP        1 Y    ALP  0     ROOT ALP Y 8
     6 SEP2       16 GROUP        1 Y    SEP  0     **** SEP Y 9
     7 ZIP7        3 GROUP        1 Y    ZIP  0     **** ZIP Y 12
     8 GLP5       19 GROUP        1 Y    GLP  0     **** GLP Y 13
     9 ALL1        5 GROUP        1 Z    ALL  0     ROOT ALL Z 15
    10 SEL2       15 GROUP        1 Z    SEL  0     **** SEL Z 16
    11 ZIL7        2 GROUP        1 Z    ZIL  0     **** ZIL Z 19
    12 GLL5       18 GROUP        1 Z    GLL  0     **** GLL Z 20
@<TRIPOS>SET

