#    Name: 3qiy_QI1_1_ligand
#    Modification time : Mon Apr  7 19:35:31 2014

@<TRIPOS>MOLECULE
3qiy_QI1_1_ligand
   45    46     1     0     0
SMALL
NO_CHARGES


@<TRIPOS>ATOM
      1 O1        -17.9760   33.2180   -5.9740 O.3       1 QI1432      0.0000 
      2 N1        -19.1450   33.8030   -5.5880 N.am      1 QI1432      0.0000 
      3 C1        -19.2260   35.1270   -5.6100 C.2       1 QI1432      0.0000 
      4 O2        -18.2940   35.8480   -5.9490 O.2       1 QI1432      0.0000 
      5 C2        -20.5650   35.7250   -5.1650 C.3       1 QI1432      0.0000 
      6 C3        -21.2340   36.5250   -6.2940 C.3       1 QI1432      0.0000 
      7 C4        -20.6150   37.9200   -6.4950 C.3       1 QI1432      0.0000 
      8 N2        -21.6400   38.9800   -6.3950 N.4       1 QI1432      0.0000 
      9 C5        -22.8250   38.7070   -7.2430 C.3       1 QI1432      0.0000 
     10 C6        -23.1230   39.7710   -8.3140 C.ar      1 QI1432      0.0000 
     11 C7        -22.7120   39.5600   -9.6310 C.ar      1 QI1432      0.0000 
     12 C8        -23.0140   40.5020  -10.6150 C.ar      1 QI1432      0.0000 
     13 C9        -21.0440   40.3280   -6.5090 C.3       1 QI1432      0.0000 
     14 C10       -23.8680   40.9110   -7.9900 C.ar      1 QI1432      0.0000 
     15 C11       -24.1580   41.8590   -8.9740 C.ar      1 QI1432      0.0000 
     16 C12       -23.7270   41.6550  -10.2860 C.ar      1 QI1432      0.0000 
     17 CL1       -24.0840   42.8210  -11.5120 Cl        1 QI1432      0.0000 
     18 C13       -21.3480   41.0950   -5.2210 C.ar      1 QI1432      0.0000 
     19 C14       -22.2070   42.1940   -5.2620 C.ar      1 QI1432      0.0000 
     20 C15       -22.5050   42.8930   -4.0920 C.ar      1 QI1432      0.0000 
     21 C16       -20.7990   40.6820   -4.0030 C.ar      1 QI1432      0.0000 
     22 C17       -21.1000   41.3830   -2.8320 C.ar      1 QI1432      0.0000 
     23 C18       -21.9560   42.4880   -2.8750 C.ar      1 QI1432      0.0000 
     24 CL2       -22.3330   43.3600   -1.4300 Cl        1 QI1432      0.0000 
     25 H         -19.9393   33.2144   -5.2883 H         1 QI1432      0.0000 
     26 H         -20.3977   36.3848   -4.3123 H         1 QI1432      0.0000 
     27 H         -21.2328   34.9195   -4.8558 H         1 QI1432      0.0000 
     28 H         -22.3005   36.6392   -6.0668 H         1 QI1432      0.0000 
     29 H         -21.1489   35.9606   -7.2301 H         1 QI1432      0.0000 
     30 H         -20.1338   37.9410   -7.4784 H         1 QI1432      0.0000 
     31 H         -19.8392   38.0615   -5.7352 H         1 QI1432      0.0000 
     32 H         -22.0217   38.9072   -5.3021 H         1 QI1432      0.0000 
     33 H         -23.7311   38.6022   -6.6074 H         1 QI1432      0.0000 
     34 H         -22.7057   37.7297   -7.7595 H         1 QI1432      0.0000 
     35 H         -22.1877   38.7120   -9.8755 H         1 QI1432      0.0000 
     36 H         -22.7104   40.3459  -11.5845 H         1 QI1432      0.0000 
     37 H         -21.4736   40.8682   -7.3439 H         1 QI1432      0.0000 
     38 H         -19.9693   40.2636   -6.6288 H         1 QI1432      0.0000 
     39 H         -24.2004   41.0490   -7.0294 H         1 QI1432      0.0000 
     40 H         -24.6871   42.7040   -8.7325 H         1 QI1432      0.0000 
     41 H         -22.6205   42.4887   -6.1551 H         1 QI1432      0.0000 
     42 H         -23.1302   43.7079   -4.1266 H         1 QI1432      0.0000 
     43 H         -20.1780   39.8679   -3.9695 H         1 QI1432      0.0000 
     44 H         -20.6918   41.0862   -1.9376 H         1 QI1432      0.0000 
     45 H         -18.2500   32.4477   -6.5498 H         1 QI1432      0.0000 
@<TRIPOS>BOND
     1    2    1 1    
     2   45    1 1    
     3    3    2 am   
     4   25    2 1    
     5    4    3 2    
     6    5    3 1    
     7    6    5 1    
     8   26    5 1    
     9   27    5 1    
    10    7    6 1    
    11   28    6 1    
    12   29    6 1    
    13    8    7 1    
    14   30    7 1    
    15   31    7 1    
    16    9    8 1    
    17   13    8 1    
    18   32    8 1    
    19   10    9 1    
    20   33    9 1    
    21   34    9 1    
    22   11   10 ar   
    23   14   10 ar   
    24   12   11 ar   
    25   35   11 1    
    26   16   12 ar   
    27   36   12 1    
    28   18   13 1    
    29   37   13 1    
    30   38   13 1    
    31   15   14 ar   
    32   39   14 1    
    33   16   15 ar   
    34   40   15 1    
    35   17   16 1    
    36   19   18 ar   
    37   21   18 ar   
    38   20   19 ar   
    39   41   19 1    
    40   23   20 ar   
    41   42   20 1    
    42   22   21 ar   
    43   43   21 1    
    44   23   22 ar   
    45   44   22 1    
    46   24   23 1    
@<TRIPOS>SUBSTRUCTURE
     1 QI1432      1 GROUP   
@<TRIPOS>SET

