#    Name: 4oa9_ANP_1_INTS_M
#    Modification time : Tue Mar 25 13:34:17 2014

@<TRIPOS>MOLECULE
4oa9_ANP_1_INTS_M
   71     0    18     0     0
SMALL
NO_CHARGES


@<TRIPOS>ATOM
      1 NZ         43.9310   30.1805   19.0600 N.4       4 LYC4        0.0000 
      2 NZ         43.5480   31.0270   18.3410 N.4      16 LYL4        0.0000 
      3 NZ         44.3140   29.3340   19.7790 N.4      10 LYP4        0.0000 
      4 N          43.9310   30.1805   19.0600 N.am      2 SEC2        0.0000 
      5 N          43.5480   31.0270   18.3410 N.am     14 SEL2        0.0000 
      6 N          44.3140   29.3340   19.7790 N.am      8 SEP2        0.0000 
      7 NZ         43.8835   30.9140   20.1085 N.4       4 LYC4        0.0000 
      8 NZ         43.4530   32.4940   20.4380 N.4      16 LYL4        0.0000 
      9 N          41.6960   35.9650   18.3590 N.am      2 SEC2        0.0000 
     10 N          40.6900   34.7030   18.9900 N.am     14 SEL2        0.0000 
     11 N          42.7020   37.2270   17.7280 N.am      8 SEP2        0.0000 
     12 NZ         38.4165   33.2355   16.2985 N.4       4 LYC4        0.0000 
     13 NZ         39.8610   33.1180   17.1160 N.4      16 LYL4        0.0000 
     14 NZ         36.9720   33.3530   15.4810 N.4      10 LYP4        0.0000 
     15 Zn         40.6125   32.6580   16.3855 Zn        5 ZIC7        0.0000 
     16 Zn         39.8610   33.1180   17.1160 Zn       17 ZIL7        0.0000 
     17 Zn         41.3640   32.1980   15.6550 Zn       11 ZIP7        0.0000 
     18 N          38.4165   33.2355   16.2985 N.am      2 SEC2        0.0000 
     19 N          39.8610   33.1180   17.1160 N.am     14 SEL2        0.0000 
     20 N          36.9720   33.3530   15.4810 N.am      8 SEP2        0.0000 
     21 OD1        40.7880   31.2485   18.2330 O.co2     3 ASC3        0.0000 
     22 OD1        41.2440   32.1300   19.2480 O.co2    15 ASL3        0.0000 
     23 OD1        40.3320   30.3670   17.2180 O.co2     9 ASP3        0.0000 
     24 NZ         36.9070   32.6485   17.0540 N.4       4 LYC4        0.0000 
     25 NZ         36.8420   31.9440   18.6270 N.4      16 LYL4        0.0000 
     26 Zn         39.8295   30.5065   19.6300 Zn        5 ZIC7        0.0000 
     27 Zn         38.8770   30.6150   19.7430 Zn       17 ZIL7        0.0000 
     28 Zn         40.7820   30.3980   19.5170 Zn       11 ZIP7        0.0000 
     29 CA         36.7590   33.9620   21.7570 C.3       6 GLC5        0.0000 
     30 CA         38.1390   32.5180   22.2500 C.3      18 GLL5        0.0000 
     31 CA         35.3790   35.4060   21.2640 C.3      12 GLP5        0.0000 
     32 O          38.7375   28.4735   23.0150 O.2       1 ALC1        0.0000 
     33 O          38.5350   29.7600   23.6020 O.2      13 ALL1        0.0000 
     34 O          38.9400   27.1870   22.4280 O.2       7 ALP1        0.0000 
     35 CA         35.3795   28.4380   23.4640 C.3       6 GLC5        0.0000 
     36 CA         36.1070   30.1460   24.3100 C.3      18 GLL5        0.0000 
     37 CA         34.6520   26.7300   22.6180 C.3      12 GLP5        0.0000 
     38 O          37.4015   28.5530   26.0470 O.2       1 ALC1        0.0000 
     39 O          36.4840   29.9910   25.6870 O.2      13 ALL1        0.0000 
     40 O          38.3190   27.1150   26.4070 O.2       7 ALP1        0.0000 
     41 CA         34.2515   33.1175   23.3425 C.3       6 GLC5        0.0000 
     42 CA         35.2260   31.3590   24.1380 C.3      18 GLL5        0.0000 
     43 CA         33.2770   34.8760   22.5470 C.3      12 GLP5        0.0000 
     44 CA         28.7820   29.6930   22.5280 C.3       6 GLC5        0.0000 
     45 CA         30.9010   29.7790   22.2020 C.3      18 GLL5        0.0000 
     46 CA         26.6630   29.6070   22.8540 C.3      12 GLP5        0.0000 
     47 CA         30.2510   27.8685   22.7920 C.3       6 GLC5        0.0000 
     48 CA         29.6010   25.9580   23.3820 C.3      12 GLP5        0.0000 
     49 O          28.8815   29.2495   20.6560 O.2       1 ALC1        0.0000 
     50 O          30.2310   29.6540   21.0160 O.2      13 ALL1        0.0000 
     51 O          27.5320   28.8450   20.2960 O.2       7 ALP1        0.0000 
     52 N          29.2500   28.5685   23.4675 N.am      2 SEC2        0.0000 
     53 N          30.4190   29.3850   23.4380 N.am     14 SEL2        0.0000 
     54 N          28.0810   27.7520   23.4970 N.am      8 SEP2        0.0000 
     55 CA         31.3720   31.6120   25.1785 C.3       6 GLC5        0.0000 
     56 CA         31.1460   29.5290   24.5630 C.3      18 GLL5        0.0000 
     57 CA         31.5980   33.6950   25.7940 C.3      12 GLP5        0.0000 
     58 CA         30.3735   27.7435   23.9725 C.3       6 GLC5        0.0000 
     59 CA         32.1545   28.1770   25.7440 C.3       6 GLC5        0.0000 
     60 CA         33.1630   26.8250   26.9250 C.3      12 GLP5        0.0000 
     61 CA         32.2835   32.0960   24.6205 C.3       6 GLC5        0.0000 
     62 CA         32.9690   30.4970   23.4470 C.3      18 GLL5        0.0000 
     63 CA         33.1230   32.6865   22.9970 C.3       6 GLC5        0.0000 
     64 CA         33.8105   28.6135   23.0325 C.3       6 GLC5        0.0000 
     65 CA         37.1920   28.3697   24.5887 C.3       6 GLC5        0.0000 
     66 CA         37.6870   26.4500   25.3340 C.3      12 GLP5        0.0000 
     67 CA         30.6103   31.5768   21.9435 C.3       6 GLC5        0.0000 
     68 CA         32.2300   30.3660   22.1560 C.3      18 GLL5        0.0000 
     69 CA         29.6550   33.0810   21.7080 C.3      12 GLP5        0.0000 
     70 CA         32.1983   28.5753   21.5710 C.3       6 GLC5        0.0000 
     71 CA         32.8310   27.0780   20.9630 C.3      12 GLP5        0.0000 
@<TRIPOS>BOND
@<TRIPOS>SUBSTRUCTURE
     1 ALC1       32 GROUP        1 X    ALC  0     ROOT ALC X 1
     2 SEC2        4 GROUP        1 X    SEC  0     **** SEC X 2
     3 ASC3       21 GROUP        1 X    ASC  0     **** ASC X 3
     4 LYC4        1 GROUP        1 X    LYC  0     **** LYC X 4
     5 ZIC7       15 GROUP        1 X    ZIC  0     **** ZIC X 5
     6 GLC5       29 GROUP        1 X    GLC  0     **** GLC X 6
     7 ALP1       34 GROUP        1 Y    ALP  0     ROOT ALP Y 8
     8 SEP2        6 GROUP        1 Y    SEP  0     **** SEP Y 9
     9 ASP3       23 GROUP        1 Y    ASP  0     **** ASP Y 10
    10 LYP4        3 GROUP        1 Y    LYP  0     **** LYP Y 11
    11 ZIP7       17 GROUP        1 Y    ZIP  0     **** ZIP Y 12
    12 GLP5       31 GROUP        1 Y    GLP  0     **** GLP Y 13
    13 ALL1       33 GROUP        1 Z    ALL  0     ROOT ALL Z 15
    14 SEL2        5 GROUP        1 Z    SEL  0     **** SEL Z 16
    15 ASL3       22 GROUP        1 Z    ASL  0     **** ASL Z 17
    16 LYL4        2 GROUP        1 Z    LYL  0     **** LYL Z 18
    17 ZIL7       16 GROUP        1 Z    ZIL  0     **** ZIL Z 19
    18 GLL5       30 GROUP        1 Z    GLL  0     **** GLL Z 20
@<TRIPOS>SET

