#    Name: 4oa9_ANP_1_ligand
#    Modification time : Tue Mar 25 13:34:17 2014

@<TRIPOS>MOLECULE
4oa9_ANP_1_ligand
   43    45     1     0     0
SMALL
NO_CHARGES


@<TRIPOS>ATOM
      1 PG         42.9970   32.2640   18.9950 P.3       1 ANP1200     0.0000 
      2 O1G        43.1620   33.4420   18.0410 O.co2     1 ANP1200     0.0000 
      3 O2G        43.5480   31.0270   18.3410 O.co2     1 ANP1200     0.0000 
      4 O3G        43.4530   32.4940   20.4380 O.co2     1 ANP1200     0.0000 
      5 PB         40.1240   33.3400   18.6000 P.3       1 ANP1200     0.0000 
      6 O1B        40.6900   34.7030   18.9900 O.co2     1 ANP1200     0.0000 
      7 O2B        39.8610   33.1180   17.1160 O.co2     1 ANP1200     0.0000 
      8 N3B        41.2440   32.1300   19.2480 N.4       1 ANP1200     0.0000 
      9 PA         37.9440   31.8450   19.6430 P.3       1 ANP1200     0.0000 
     10 O1A        36.8420   31.9440   18.6270 O.co2     1 ANP1200     0.0000 
     11 O2A        38.8770   30.6150   19.7430 O.co2     1 ANP1200     0.0000 
     12 O3A        38.7180   33.2330   19.3750 O.3       1 ANP1200     0.0000 
     13 O5'        37.3350   32.2060   21.1070 O.3       1 ANP1200     0.0000 
     14 C5'        38.1390   32.5180   22.2500 C.3       1 ANP1200     0.0000 
     15 C4'        37.4650   31.9160   23.4830 C.3       1 ANP1200     0.0000 
     16 O4'        36.1210   32.3810   23.6600 O.3       1 ANP1200     0.0000 
     17 C3'        37.2870   30.4330   23.3770 C.3       1 ANP1200     0.0000 
     18 O3'        38.5350   29.7600   23.6020 O.3       1 ANP1200     0.0000 
     19 C2'        36.1070   30.1460   24.3100 C.3       1 ANP1200     0.0000 
     20 O2'        36.4840   29.9910   25.6870 O.3       1 ANP1200     0.0000 
     21 C1'        35.2260   31.3590   24.1380 C.3       1 ANP1200     0.0000 
     22 N9         34.1420   31.0490   23.1480 N.pl3     1 ANP1200     0.0000 
     23 C8         34.1480   31.2610   21.7750 C.2       1 ANP1200     0.0000 
     24 N7         32.9880   30.8450   21.1810 N.2       1 ANP1200     0.0000 
     25 C5         32.2300   30.3660   22.1560 C.ar      1 ANP1200     0.0000 
     26 C6         30.9010   29.7790   22.2020 C.ar      1 ANP1200     0.0000 
     27 N6         30.2310   29.6540   21.0160 N.pl3     1 ANP1200     0.0000 
     28 N1         30.4190   29.3850   23.4380 N.ar      1 ANP1200     0.0000 
     29 C2         31.1460   29.5290   24.5630 C.ar      1 ANP1200     0.0000 
     30 N3         32.3930   30.0770   24.5970 N.ar      1 ANP1200     0.0000 
     31 C4         32.9690   30.4970   23.4470 C.ar      1 ANP1200     0.0000 
     32 H          38.2243   33.5923   22.4051 H         1 ANP1200     0.0000 
     33 H          39.1379   32.0920   22.1720 H         1 ANP1200     0.0000 
     34 H          38.0497   32.1236   24.3588 H         1 ANP1200     0.0000 
     35 H          36.9174   30.2583   22.3466 H         1 ANP1200     0.0000 
     36 H          35.5780   29.3010   23.9204 H         1 ANP1200     0.0000 
     37 H          34.8152   31.6126   25.0820 H         1 ANP1200     0.0000 
     38 H          34.9027   31.6634   21.2971 H         1 ANP1200     0.0000 
     39 H          30.7162   29.9709   20.2010 H         1 ANP1200     0.0000 
     40 H          29.3148   29.2567   21.0680 H         1 ANP1200     0.0000 
     41 H          30.7258   29.1960   25.4856 H         1 ANP1200     0.0000 
     42 H          38.4585   28.8985   23.1001 H         1 ANP1200     0.0000 
     43 H          37.4500   29.7336   25.6633 H         1 ANP1200     0.0000 
@<TRIPOS>BOND
     1    2    1 ar   
     2    3    1 ar   
     3    4    1 ar   
     4    8    1 1    
     5    6    5 ar   
     6    7    5 ar   
     7    8    5 1    
     8   12    5 1    
     9   10    9 ar   
    10   11    9 ar   
    11   12    9 1    
    12   13    9 1    
    13   14   13 1    
    14   15   14 1    
    15   32   14 1    
    16   33   14 1    
    17   16   15 1    
    18   17   15 1    
    19   34   15 1    
    20   21   16 1    
    21   18   17 1    
    22   19   17 1    
    23   35   17 1    
    24   42   18 1    
    25   20   19 1    
    26   21   19 1    
    27   36   19 1    
    28   43   20 1    
    29   22   21 1    
    30   37   21 1    
    31   23   22 1    
    32   31   22 1    
    33   24   23 2    
    34   38   23 1    
    35   25   24 1    
    36   26   25 ar   
    37   31   25 ar   
    38   27   26 1    
    39   28   26 ar   
    40   39   27 1    
    41   40   27 1    
    42   29   28 ar   
    43   30   29 ar   
    44   41   29 1    
    45   31   30 ar   
@<TRIPOS>SUBSTRUCTURE
     1 ANP1200     1 GROUP   
@<TRIPOS>SET

