#    Name: 1RH0_2_CAVITY_N1_6.mol2
#    Modification time : Tue Mar 11 05:57:13 2014

@<TRIPOS>MOLECULE
1RH0_2_CAVITY_N1_6.mol2
   63     0     5     0     0
SMALL
NO_CHARGES


@<TRIPOS>ATOM
      1 N           9.5505   39.4458   62.4586 N.2       2 ALA2        0.0000 
      2 OG         10.6151   38.3982   62.3205 O.2       1 SER1        0.0000 
      3 N           8.5724   38.5431   61.7669 N.2       2 ALA2        0.0000 
      4 O           9.6370   37.4955   61.6287 O.2       2 ALA2        0.0000 
      5 O           8.6590   36.5928   60.9370 O.2       2 ALA2        0.0000 
      6 CA          6.6163   36.7377   60.3835 C.3       4 GLY6        0.0000 
      7 O           7.6809   35.6901   60.2453 O.2       2 ALA2        0.0000 
      8 OG          8.7455   34.6424   60.1071 O.2       1 SER1        0.0000 
      9 O           8.0808   36.2711   58.9215 O.2       2 ALA2        0.0000 
     10 OG          7.7776   41.0223   69.4136 O.2       1 SER1        0.0000 
     11 N           8.8422   39.9746   69.2754 N.2       2 ALA2        0.0000 
     12 CA          5.7349   41.1672   68.8600 C.3       4 GLY6        0.0000 
     13 DU          6.7995   40.1196   68.7219 H         5 CUB7        0.0000 
     14 N           7.8641   39.0719   68.5837 N.2       2 ALA2        0.0000 
     15 CA          5.8214   39.2168   68.0301 C.3       4 GLY6        0.0000 
     16 N           6.8860   38.1692   67.8920 N.2       2 ALA2        0.0000 
     17 N           7.9507   37.1216   67.7538 N.2       2 ALA2        0.0000 
     18 DU          5.9080   37.2665   67.2002 H         5 CUB7        0.0000 
     19 CA          7.0591   34.2686   66.2322 C.3       4 GLY6        0.0000 
     20 N           8.4422   39.3936   70.5992 N.2       2 ALA2        0.0000 
     21 N          10.1286   39.7675   64.4742 N.2       2 ALA2        0.0000 
     22 N           8.0859   39.9124   63.9206 N.2       2 ALA2        0.0000 
     23 N           9.1505   38.8647   63.7824 N.2       2 ALA2        0.0000 
     24 CA         10.2151   37.8171   63.6443 C.3       4 GLY6        0.0000 
     25 CZ          7.1078   39.0097   63.2289 C.ar      3 PHE5        0.0000 
     26 N           8.1725   37.9620   63.0907 N.2       2 ALA2        0.0000 
     27 CA          9.2371   36.9144   62.9525 C.3       4 GLY6        0.0000 
     28 CZ          6.1298   38.1069   62.5371 C.ar      3 PHE5        0.0000 
     29 N           7.1944   37.0593   62.3990 N.2       2 ALA2        0.0000 
     30 OG          8.2590   36.0117   62.2608 O.2       1 SER1        0.0000 
     31 CZ          5.1517   37.2042   61.8454 C.ar      3 PHE5        0.0000 
     32 CZ          6.2163   36.1566   61.7072 C.ar      3 PHE5        0.0000 
     33 OG          7.2809   35.1090   61.5691 O.2       1 SER1        0.0000 
     34 OG          4.1736   36.3015   61.1537 O.2       1 SER1        0.0000 
     35 DU          7.1995   40.7006   67.3981 H         5 CUB7        0.0000 
     36 CA          8.2641   39.6530   67.2599 C.3       4 GLY6        0.0000 
     37 CA          9.3287   38.6054   67.1217 C.3       4 GLY6        0.0000 
     38 CA          6.2214   39.7979   66.7064 C.3       4 GLY6        0.0000 
     39 DU          7.2860   38.7503   66.5682 H         5 CUB7        0.0000 
     40 N           8.3506   37.7027   66.4300 N.2       2 ALA2        0.0000 
     41 CZ          5.2433   38.8952   66.0146 C.ar      3 PHE5        0.0000 
     42 CZ          6.3079   37.8476   65.8765 C.ar      3 PHE5        0.0000 
     43 CA          7.3725   36.7999   65.7383 C.3       4 GLY6        0.0000 
     44 CZ          5.3299   36.9449   65.1847 C.ar      3 PHE5        0.0000 
     45 CZ          6.3945   35.8972   65.0465 C.ar      3 PHE5        0.0000 
     46 CA          7.4591   34.8496   64.9084 C.3       4 GLY6        0.0000 
     47 OG          5.4164   34.9945   64.3548 O.2       1 SER1        0.0000 
     48 CA          6.4810   33.9469   64.2166 C.3       4 GLY6        0.0000 
     49 CA          7.5456   32.8993   64.0785 C.3       4 GLY6        0.0000 
     50 DU          5.5029   33.0442   63.5249 H         5 CUB7        0.0000 
     51 N           8.6640   40.2340   65.9361 N.2       2 ALA2        0.0000 
     52 CA          9.7286   39.1864   65.7979 C.3       4 GLY6        0.0000 
     53 O           6.6213   40.3789   65.3826 O.2       2 ALA2        0.0000 
     54 DU          7.6860   39.3313   65.2444 H         5 CUB7        0.0000 
     55 CA          8.7506   38.2837   65.1062 C.3       4 GLY6        0.0000 
     56 CZ          5.6433   39.4762   64.6908 C.ar      3 PHE5        0.0000 
     57 CZ          6.7079   38.4286   64.5527 C.ar      3 PHE5        0.0000 
     58 CA          7.7725   37.3810   64.4145 C.3       4 GLY6        0.0000 
     59 CZ          6.7944   36.4783   63.7228 C.ar      3 PHE5        0.0000 
     60 CA          7.8590   35.4307   63.5846 C.3       4 GLY6        0.0000 
     61 CZ          5.8164   35.5756   63.0310 C.ar      3 PHE5        0.0000 
     62 DU          6.8810   34.5280   62.8929 H         5 CUB7        0.0000 
     63 OG          7.9456   33.4803   62.7547 O.2       1 SER1        0.0000 
@<TRIPOS>BOND
@<TRIPOS>SUBSTRUCTURE
     1 SER1        2 GROUP   
     2 ALA2        1 GROUP   
     3 PHE5       25 GROUP   
     4 GLY6        6 GROUP   
     5 CUB7       13 GROUP   
@<TRIPOS>SET

