#    Name: 1rh0_OTS_2_INTS_M
#    Modification time : Tue Mar 25 00:42:35 2014

@<TRIPOS>MOLECULE
1rh0_OTS_2_INTS_M
   19     0     6     0     0
SMALL
NO_CHARGES


@<TRIPOS>ATOM
      1 CA          4.7715   40.1075   66.0760 C.3       2 GLC5        0.0000 
      2 CA          6.5260   39.2620   66.0390 C.3       6 GLL5        0.0000 
      3 CA          3.0170   40.9530   66.1130 C.3       4 GLP5        0.0000 
      4 CA          9.9480   40.6270   64.0830 C.3       2 GLC5        0.0000 
      5 CA          8.3940   39.1890   64.4930 C.3       6 GLL5        0.0000 
      6 CA         11.5020   42.0650   63.6730 C.3       4 GLP5        0.0000 
      7 O           9.6000   40.7425   63.2595 O.2       1 ALC1        0.0000 
      8 O           8.9830   39.5550   63.3180 O.2       5 ALL1        0.0000 
      9 O          10.2170   41.9300   63.2010 O.2       3 ALP1        0.0000 
     10 CA         10.3110   36.9610   65.3550 C.3       2 GLC5        0.0000 
     11 CA          9.0690   38.3570   65.3820 C.3       6 GLL5        0.0000 
     12 CA         11.5530   35.5650   65.3280 C.3       4 GLP5        0.0000 
     13 CA          9.3755   36.3920   65.8835 C.3       2 GLC5        0.0000 
     14 CA          8.4850   37.9830   66.5870 C.3       6 GLL5        0.0000 
     15 CA         10.2660   34.8010   65.1800 C.3       4 GLP5        0.0000 
     16 CA          4.2955   39.9960   67.4450 C.3       2 GLC5        0.0000 
     17 CA          5.5740   39.0390   68.7770 C.3       6 GLL5        0.0000 
     18 CA         10.2065   38.6990   66.9463 C.3       2 GLC5        0.0000 
     19 CA         11.6360   39.2280   67.9080 C.3       4 GLP5        0.0000 
@<TRIPOS>BOND
@<TRIPOS>SUBSTRUCTURE
     1 ALC1        7 GROUP        1 X    ALC  0     ROOT ALC X 1
     2 GLC5        1 GROUP        1 X    GLC  0     **** GLC X 6
     3 ALP1        9 GROUP        1 Y    ALP  0     ROOT ALP Y 8
     4 GLP5        3 GROUP        1 Y    GLP  0     **** GLP Y 13
     5 ALL1        8 GROUP        1 Z    ALL  0     ROOT ALL Z 15
     6 GLL5        2 GROUP        1 Z    GLL  0     **** GLL Z 20
@<TRIPOS>SET

