#    Name: 1rh0_OTS_2_ligand
#    Modification time : Tue Mar 25 00:42:35 2014

@<TRIPOS>MOLECULE
1rh0_OTS_2_ligand
   23    23     1     0     0
SMALL
NO_CHARGES


@<TRIPOS>ATOM
      1 C2          6.5260   39.2620   66.0390 C.ar      1 OTS996      0.0000 
      2 C3          7.1240   39.6410   64.8230 C.ar      1 OTS996      0.0000 
      3 C4          8.3940   39.1890   64.4930 C.ar      1 OTS996      0.0000 
      4 O4          8.9830   39.5550   63.3180 O.3       1 OTS996      0.0000 
      5 C5          9.0690   38.3570   65.3820 C.ar      1 OTS996      0.0000 
      6 C6          8.4850   37.9830   66.5870 C.ar      1 OTS996      0.0000 
      7 C1          7.2060   38.4270   66.9260 C.ar      1 OTS996      0.0000 
      8 C7          6.5840   37.9880   68.2670 C.3       1 OTS996      0.0000 
      9 O7          5.9180   36.7130   68.0950 O.3       1 OTS996      0.0000 
     10 C8          5.5740   39.0390   68.7770 C.3       1 OTS996      0.0000 
     11 N8          6.2830   40.0990   69.5430 N.4       1 OTS996      0.0000 
     12 H           5.5860   39.6039   66.2694 H         1 OTS996      0.0000 
     13 H           6.6093   40.2578   64.1798 H         1 OTS996      0.0000 
     14 H          10.0137   38.0143   65.1431 H         1 OTS996      0.0000 
     15 H           9.0005   37.3710   67.2389 H         1 OTS996      0.0000 
     16 H           7.3784   37.9077   68.9934 H         1 OTS996      0.0000 
     17 H           4.8448   38.5341   69.4080 H         1 OTS996      0.0000 
     18 H           5.0620   39.4664   67.9168 H         1 OTS996      0.0000 
     19 H           6.7628   39.7256   70.3370 H         1 OTS996      0.0000 
     20 H           6.9651   40.5689   68.9827 H         1 OTS996      0.0000 
     21 H           5.6522   40.7964   69.8831 H         1 OTS996      0.0000 
     22 H           9.0996   40.5460   63.3848 H         1 OTS996      0.0000 
     23 H           6.7810   37.2018   68.2235 H         1 OTS996      0.0000 
@<TRIPOS>BOND
     1    2    1 ar   
     2    7    1 ar   
     3   12    1 1    
     4    3    2 ar   
     5   13    2 1    
     6    4    3 1    
     7    5    3 ar   
     8   22    4 1    
     9    6    5 ar   
    10   14    5 1    
    11    7    6 ar   
    12   15    6 1    
    13    8    7 1    
    14    9    8 1    
    15   10    8 1    
    16   16    8 1    
    17   23    9 1    
    18   11   10 1    
    19   17   10 1    
    20   18   10 1    
    21   19   11 1    
    22   20   11 1    
    23   21   11 1    
@<TRIPOS>SUBSTRUCTURE
     1 OTS996      1 GROUP   
@<TRIPOS>SET

