#    Name: 4jlm_1NN_1_INTS_M
#    Modification time : Tue Mar 25 06:01:39 2014

@<TRIPOS>MOLECULE
4jlm_1NN_1_INTS_M
   59     0     9     0     0
SMALL
NO_CHARGES


@<TRIPOS>ATOM
      1 CA        -35.1270   -7.1685  -24.7770 C.3       3 GLC5        0.0000 
      2 CA        -37.2290   -7.3760  -25.5390 C.3       9 GLL5        0.0000 
      3 CA        -33.0250   -6.9610  -24.0150 C.3       6 GLP5        0.0000 
      4 CA        -36.5160   -6.1260  -26.7325 C.3       3 GLC5        0.0000 
      5 CA        -35.8030   -4.8760  -27.9260 C.3       6 GLP5        0.0000 
      6 CA        -34.0755   -8.9140  -23.6520 C.3       3 GLC5        0.0000 
      7 CA        -35.1260  -10.8670  -23.2890 C.3       9 GLL5        0.0000 
      8 CA        -32.9920  -11.6880  -19.8195 C.3       3 GLC5        0.0000 
      9 CA        -32.8240  -13.3710  -21.1220 C.3       9 GLL5        0.0000 
     10 CA        -33.1600  -10.0050  -18.5170 C.3       6 GLP5        0.0000 
     11 CA        -29.0845  -12.7700  -19.7365 C.3       3 GLC5        0.0000 
     12 CA        -29.9730  -13.9860  -21.1880 C.3       9 GLL5        0.0000 
     13 CA        -28.1960  -11.5540  -18.2850 C.3       6 GLP5        0.0000 
     14 CA        -32.1750  -15.8885  -20.3495 C.3       3 GLC5        0.0000 
     15 CA        -30.2340  -15.3740  -20.5910 C.3       9 GLL5        0.0000 
     16 CA        -34.1160  -16.4030  -20.1080 C.3       6 GLP5        0.0000 
     17 CA        -28.9165  -12.0095  -24.9925 C.3       3 GLC5        0.0000 
     18 CA        -30.0100  -12.1300  -23.5700 C.3       9 GLL5        0.0000 
     19 CA        -27.8230  -11.8890  -26.4150 C.3       6 GLP5        0.0000 
     20 CA        -30.6230   -9.6770  -21.5950 C.3       3 GLC5        0.0000 
     21 CA        -29.0870  -10.8350  -22.6470 C.3       9 GLL5        0.0000 
     22 CA        -32.1590   -8.5190  -20.5430 C.3       6 GLP5        0.0000 
     23 CA        -28.3925  -10.6225  -20.7600 C.3       3 GLC5        0.0000 
     24 CA        -27.6980  -10.4100  -18.8730 C.3       6 GLP5        0.0000 
     25 CA        -28.4100  -10.6990  -24.3430 C.3       3 GLC5        0.0000 
     26 CA        -27.7330  -10.5630  -26.0390 C.3       6 GLP5        0.0000 
     27 CA        -26.8885   -9.8900  -23.9175 C.3       3 GLC5        0.0000 
     28 CA        -27.3540  -11.2270  -22.5600 C.3       9 GLL5        0.0000 
     29 CA        -26.4230   -8.5530  -25.2750 C.3       6 GLP5        0.0000 
     30 N         -27.1280   -8.9725  -21.9995 N.am      2 SEC2        0.0000 
     31 N         -26.4920  -10.2010  -22.3520 N.am      8 SEL2        0.0000 
     32 N         -27.7640   -7.7440  -21.6470 N.am      5 SEP2        0.0000 
     33 CA        -25.7910   -9.4835  -23.7785 C.3       3 GLC5        0.0000 
     34 CA        -25.1590  -10.4140  -22.2820 C.3       9 GLL5        0.0000 
     35 O         -25.0970   -7.9535  -22.0035 O.2       1 ALC1        0.0000 
     36 O         -24.3030   -9.3880  -22.1160 O.2       7 ALL1        0.0000 
     37 O         -25.8910   -6.5190  -21.8910 O.2       4 ALP1        0.0000 
     38 O         -22.8635   -9.4485  -22.1370 O.2       1 ALC1        0.0000 
     39 O         -21.4240   -9.5090  -22.1580 O.2       4 ALP1        0.0000 
     40 O         -23.4955  -14.2125  -22.5735 O.2       1 ALC1        0.0000 
     41 O         -25.1930  -13.9770  -22.6860 O.2       7 ALL1        0.0000 
     42 O         -21.7980  -14.4480  -22.4610 O.2       4 ALP1        0.0000 
     43 O         -24.1620  -14.9985  -22.2150 O.2       1 ALC1        0.0000 
     44 O         -23.1310  -16.0200  -21.7440 O.2       4 ALP1        0.0000 
     45 CA        -37.9155   -7.6230  -23.4205 C.3       3 GLC5        0.0000 
     46 CA        -38.0220   -7.4320  -21.2990 C.3       6 GLP5        0.0000 
     47 CA        -37.5165   -9.1870  -22.2410 C.3       3 GLC5        0.0000 
     48 CA        -36.4920  -10.5650  -23.4920 C.3       9 GLL5        0.0000 
     49 CA        -36.6932  -12.5742  -20.0135 C.3       3 GLC5        0.0000 
     50 CA        -37.1890  -12.4060  -22.0550 C.3       9 GLL5        0.0000 
     51 CA        -36.8810  -12.6040  -18.0570 C.3       6 GLP5        0.0000 
     52 CA        -31.6815  -14.0003  -19.5370 C.3       3 GLC5        0.0000 
     53 CA        -31.3240  -14.6710  -17.6470 C.3       6 GLP5        0.0000 
     54 CA        -28.2752  -14.9735  -20.1837 C.3       3 GLC5        0.0000 
     55 CA        -26.4470  -15.2670  -19.4780 C.3       6 GLP5        0.0000 
     56 CA        -30.7138  -14.6755  -19.2682 C.3       3 GLC5        0.0000 
     57 CA        -25.1859  -12.5761  -20.6292 C.3       3 GLC5        0.0000 
     58 CA        -24.6760  -11.7090  -22.4020 C.3       9 GLL5        0.0000 
     59 CA        -25.1130  -13.2540  -18.7970 C.3       6 GLP5        0.0000 
@<TRIPOS>BOND
@<TRIPOS>SUBSTRUCTURE
     1 ALC1       35 GROUP        1 X    ALC  0     ROOT ALC X 1
     2 SEC2       30 GROUP        1 X    SEC  0     **** SEC X 2
     3 GLC5        1 GROUP        1 X    GLC  0     **** GLC X 6
     4 ALP1       37 GROUP        1 Y    ALP  0     ROOT ALP Y 8
     5 SEP2       32 GROUP        1 Y    SEP  0     **** SEP Y 9
     6 GLP5        3 GROUP        1 Y    GLP  0     **** GLP Y 13
     7 ALL1       36 GROUP        1 Z    ALL  0     ROOT ALL Z 15
     8 SEL2       31 GROUP        1 Z    SEL  0     **** SEL Z 16
     9 GLL5        2 GROUP        1 Z    GLL  0     **** GLL Z 20
@<TRIPOS>SET

