#    Name: 4jlm_1NN_1_ligand
#    Modification time : Tue Mar 25 06:01:39 2014

@<TRIPOS>MOLECULE
4jlm_1NN_1_ligand
   51    53     1     0     0
SMALL
NO_CHARGES


@<TRIPOS>ATOM
      1 FAE       -37.2290   -7.3760  -25.5390 F         1 1NN301      0.0000 
      2 CAJ       -38.3890   -8.2520  -25.5450 C.3       1 1NN301      0.0000 
      3 CAL       -37.8710   -9.6550  -25.2300 C.3       1 1NN301      0.0000 
      4 OAR       -36.8150   -9.4960  -24.2760 O.3       1 1NN301      0.0000 
      5 CAZ       -36.4920  -10.5650  -23.4920 C.ar      1 1NN301      0.0000 
      6 CAI       -35.1260  -10.8670  -23.2890 C.ar      1 1NN301      0.0000 
      7 CAY       -37.5300  -11.3190  -22.8740 C.ar      1 1NN301      0.0000 
      8 OAQ       -38.8360  -10.9540  -23.1000 O.3       1 1NN301      0.0000 
      9 CAB       -39.8650  -11.8170  -22.5770 C.3       1 1NN301      0.0000 
     10 CAG       -37.1890  -12.4060  -22.0550 C.ar      1 1NN301      0.0000 
     11 CAF       -35.8220  -12.6830  -21.8850 C.ar      1 1NN301      0.0000 
     12 CAW       -34.7760  -11.9360  -22.4600 C.ar      1 1NN301      0.0000 
     13 CBC       -33.4800  -12.3070  -22.2830 C.2       1 1NN301      0.0000 
     14 NAP       -32.4650  -11.9380  -23.1010 N.2       1 1NN301      0.0000 
     15 SAT       -32.8240  -13.3710  -21.1220 S.3       1 1NN301      0.0000 
     16 CBB       -31.2540  -13.2880  -21.7320 C.2       1 1NN301      0.0000 
     17 CAK       -29.9730  -13.9860  -21.1880 C.3       1 1NN301      0.0000 
     18 CAA       -30.2340  -15.3740  -20.5910 C.3       1 1NN301      0.0000 
     19 CBA       -31.2660  -12.4720  -22.7920 C.2       1 1NN301      0.0000 
     20 CAM       -30.0100  -12.1300  -23.5700 C.3       1 1NN301      0.0000 
     21 SAS       -29.0870  -10.8350  -22.6470 S.3       1 1NN301      0.0000 
     22 C2        -27.3540  -11.2270  -22.5600 C.ar      1 1NN301      0.0000 
     23 N3        -26.8950  -12.4830  -22.6750 N.ar      1 1NN301      0.0000 
     24 N1        -26.4920  -10.2010  -22.3520 N.ar      1 1NN301      0.0000 
     25 C6        -25.1590  -10.4140  -22.2820 C.ar      1 1NN301      0.0000 
     26 NAC       -24.3030   -9.3880  -22.1160 N.pl3     1 1NN301      0.0000 
     27 C5        -24.6760  -11.7090  -22.4020 C.ar      1 1NN301      0.0000 
     28 C4        -25.6000  -12.7350  -22.5810 C.ar      1 1NN301      0.0000 
     29 NAD       -25.1930  -13.9770  -22.6860 N.pl3     1 1NN301      0.0000 
     30 H         -38.8641   -8.2727  -26.5137 H         1 1NN301      0.0000 
     31 H         -39.1005   -7.9715  -24.7836 H         1 1NN301      0.0000 
     32 H         -37.5207  -10.0993  -26.1532 H         1 1NN301      0.0000 
     33 H         -38.6937  -10.2357  -24.8321 H         1 1NN301      0.0000 
     34 H         -34.4088  -10.3059  -23.7463 H         1 1NN301      0.0000 
     35 H         -37.8942  -12.9652  -21.6070 H         1 1NN301      0.0000 
     36 H         -35.5590  -13.5103  -21.2832 H         1 1NN301      0.0000 
     37 H         -29.5262  -13.3399  -20.4217 H         1 1NN301      0.0000 
     38 H         -29.2519  -14.0748  -22.0105 H         1 1NN301      0.0000 
     39 H         -30.1856  -11.6503  -24.4933 H         1 1NN301      0.0000 
     40 H         -29.2990  -12.9083  -23.6149 H         1 1NN301      0.0000 
     41 H         -24.7147   -8.4804  -22.0335 H         1 1NN301      0.0000 
     42 H         -23.3318   -9.6250  -22.0900 H         1 1NN301      0.0000 
     43 H         -23.6820  -11.9045  -22.3610 H         1 1NN301      0.0000 
     44 H         -25.7791  -14.5887  -23.2173 H         1 1NN301      0.0000 
     45 H         -24.3337  -14.1989  -22.2251 H         1 1NN301      0.0000 
     46 H         -39.8015  -12.7412  -22.9536 H         1 1NN301      0.0000 
     47 H         -39.8087  -11.9014  -21.5822 H         1 1NN301      0.0000 
     48 H         -40.7802  -11.4756  -22.7909 H         1 1NN301      0.0000 
     49 H         -29.3939  -15.7954  -20.2495 H         1 1NN301      0.0000 
     50 H         -30.8745  -15.3340  -19.8241 H         1 1NN301      0.0000 
     51 H         -30.6233  -16.0012  -21.2656 H         1 1NN301      0.0000 
@<TRIPOS>BOND
     1    2    1 1    
     2    3    2 1    
     3   30    2 1    
     4   31    2 1    
     5    4    3 1    
     6   32    3 1    
     7   33    3 1    
     8    5    4 1    
     9    6    5 ar   
    10    7    5 ar   
    11   12    6 ar   
    12   34    6 1    
    13    8    7 1    
    14   10    7 ar   
    15    9    8 1    
    16   46    9 1    
    17   47    9 1    
    18   48    9 1    
    19   11   10 ar   
    20   35   10 1    
    21   12   11 ar   
    22   36   11 1    
    23   13   12 1    
    24   14   13 2    
    25   15   13 1    
    26   19   14 1    
    27   16   15 1    
    28   17   16 1    
    29   19   16 2    
    30   18   17 1    
    31   37   17 1    
    32   38   17 1    
    33   49   18 1    
    34   50   18 1    
    35   51   18 1    
    36   20   19 1    
    37   21   20 1    
    38   39   20 1    
    39   40   20 1    
    40   22   21 1    
    41   23   22 ar   
    42   24   22 ar   
    43   28   23 ar   
    44   25   24 ar   
    45   26   25 1    
    46   27   25 ar   
    47   41   26 1    
    48   42   26 1    
    49   28   27 ar   
    50   43   27 1    
    51   29   28 1    
    52   44   29 1    
    53   45   29 1    
@<TRIPOS>SUBSTRUCTURE
     1 1NN301      1 GROUP   
@<TRIPOS>SET

