#    Name: 2w3r_MPN_1_INTS_M
#    Modification time : Tue Mar 25 03:35:15 2014

@<TRIPOS>MOLECULE
2w3r_MPN_1_INTS_M
   56     0     9     0     0
SMALL
NO_CHARGES


@<TRIPOS>ATOM
      1 N          20.4610    9.0375   12.1030 N.am      2 SEC2        0.0000 
      2 N          21.8750    8.6320   13.0130 N.am      8 SEL2        0.0000 
      3 N          19.0470    9.4430   11.1930 N.am      5 SEP2        0.0000 
      4 N          22.6160    7.1730   13.3860 N.am      2 SEC2        0.0000 
      5 N          23.3570    5.7140   13.7590 N.am      5 SEP2        0.0000 
      6 N          21.4660    7.5595   15.8460 N.am      2 SEC2        0.0000 
      7 N          21.1380    8.9070   15.4170 N.am      8 SEL2        0.0000 
      8 N          21.7940    6.2120   16.2750 N.am      5 SEP2        0.0000 
      9 N          19.7000    9.9450   12.4340 N.am      2 SEC2        0.0000 
     10 N          20.3530   10.4470   13.6750 N.am      8 SEL2        0.0000 
     11 CA         17.7475   10.9000   13.8545 C.3       3 GLC5        0.0000 
     12 CA         19.5980   11.1830   14.6690 C.3       9 GLL5        0.0000 
     13 CA         15.8970   10.6170   13.0400 C.3       6 GLP5        0.0000 
     14 CA         20.2250   11.0350   12.5770 C.3       3 GLC5        0.0000 
     15 CA         20.8520   10.8870   10.4850 C.3       6 GLP5        0.0000 
     16 CA         18.5120    9.3210   14.4300 C.3       3 GLC5        0.0000 
     17 CA         17.4260    7.4590   14.1910 C.3       6 GLP5        0.0000 
     18 CA         18.2970   10.9170   18.2750 C.3       3 GLC5        0.0000 
     19 CA         18.8600   12.2990   17.5650 C.3       9 GLL5        0.0000 
     20 CA         17.7340    9.5350   18.9850 C.3       6 GLP5        0.0000 
     21 CA         22.3760   14.1550   14.6440 C.3       3 GLC5        0.0000 
     22 CA         20.3920   14.6090   14.1450 C.3       9 GLL5        0.0000 
     23 CA         24.3600   13.7010   15.1430 C.3       6 GLP5        0.0000 
     24 CA         17.3380   13.5950   13.7990 C.3       3 GLC5        0.0000 
     25 CA         18.9700   14.7970   14.6760 C.3       9 GLL5        0.0000 
     26 CA         15.7060   12.3930   12.9220 C.3       6 GLP5        0.0000 
     27 CA         16.5405   16.0660   16.0975 C.3       3 GLC5        0.0000 
     28 CA         17.7550   15.0260   17.0240 C.3       9 GLL5        0.0000 
     29 CA         15.3260   17.1060   15.1710 C.3       6 GLP5        0.0000 
     30 CA         15.7680   15.1530   17.5780 C.3       3 GLC5        0.0000 
     31 CA         13.7810   15.2800   18.1320 C.3       6 GLP5        0.0000 
     32 CA         18.3000   16.3725   18.0955 C.3       3 GLC5        0.0000 
     33 CA         18.8450   17.7190   19.1670 C.3       6 GLP5        0.0000 
     34 O          22.0135   14.9910   12.2260 O.2       1 ALC1        0.0000 
     35 O          20.6320   15.0750   12.7760 O.2       7 ALL1        0.0000 
     36 O          23.3950   14.9070   11.6760 O.2       4 ALP1        0.0000 
     37 CA         20.3170   13.9260   11.0955 C.3       3 GLC5        0.0000 
     38 CA         19.6300   15.4630   11.9520 C.3       9 GLL5        0.0000 
     39 CA         21.0040   12.3890   10.2390 C.3       6 GLP5        0.0000 
     40 CA         16.7865   16.3035   13.8130 C.3       3 GLC5        0.0000 
     41 CA         18.2470   15.5010   12.4550 C.3       9 GLL5        0.0000 
     42 CA         17.2015   14.0730   11.8270 C.3       3 GLC5        0.0000 
     43 CA         16.1560   12.6450   11.1990 C.3       6 GLP5        0.0000 
     44 N          14.6425   16.0785   11.7015 N.am      2 SEC2        0.0000 
     45 N          16.0010   15.9880   11.8490 N.am      8 SEL2        0.0000 
     46 N          13.2840   16.1690   11.5540 N.am      5 SEP2        0.0000 
     47 N          15.2955   16.1665   12.9990 N.am      2 SEC2        0.0000 
     48 N          14.5900   16.3450   14.1490 N.am      5 SEP2        0.0000 
     49 O          19.7505   15.4680    7.5640 O.2       1 ALC1        0.0000 
     50 O          19.1580   16.5560    8.5610 O.2       7 ALL1        0.0000 
     51 O          20.3430   14.3800    6.5670 O.2       4 ALP1        0.0000 
     52 CA         20.4087   13.8072   17.9692 C.3       3 GLC5        0.0000 
     53 CA         19.1690   13.0400   16.1100 C.3       9 GLL5        0.0000 
     54 CA         21.8030   14.9450   19.1010 C.3       6 GLP5        0.0000 
     55 CA         17.0750   15.8148   15.2203 C.3       3 GLC5        0.0000 
     56 CA         18.6780   14.2500   15.8630 C.3       9 GLL5        0.0000 
@<TRIPOS>BOND
@<TRIPOS>SUBSTRUCTURE
     1 ALC1       34 GROUP        1 X    ALC  0     ROOT ALC X 1
     2 SEC2        1 GROUP        1 X    SEC  0     **** SEC X 2
     3 GLC5       11 GROUP        1 X    GLC  0     **** GLC X 6
     4 ALP1       36 GROUP        1 Y    ALP  0     ROOT ALP Y 8
     5 SEP2        3 GROUP        1 Y    SEP  0     **** SEP Y 9
     6 GLP5       13 GROUP        1 Y    GLP  0     **** GLP Y 13
     7 ALL1       35 GROUP        1 Z    ALL  0     ROOT ALL Z 15
     8 SEL2        2 GROUP        1 Z    SEL  0     **** SEL Z 16
     9 GLL5       12 GROUP        1 Z    GLL  0     **** GLL Z 20
@<TRIPOS>SET

