#    Name: 2w3r_MPN_1_ligand
#    Modification time : Tue Mar 25 03:35:15 2014

@<TRIPOS>MOLECULE
2w3r_MPN_1_ligand
   33    35     1     0     0
SMALL
NO_CHARGES


@<TRIPOS>ATOM
      1 O3P        22.6600   10.6550   14.3740 O.co2     1 MPN1778     0.0000 
      2 P          21.6150    9.5830   14.1560 P.3       1 MPN1778     0.0000 
      3 O1P        21.8750    8.6320   13.0130 O.co2     1 MPN1778     0.0000 
      4 O2P        21.1380    8.9070   15.4170 O.co2     1 MPN1778     0.0000 
      5 O4'        20.3530   10.4470   13.6750 O.3       1 MPN1778     0.0000 
      6 C4'        19.5980   11.1830   14.6690 C.3       1 MPN1778     0.0000 
      7 C3'        19.9390   12.4220   15.0460 C.3       1 MPN1778     0.0000 
      8 C2'        19.1690   13.0400   16.1100 C.2       1 MPN1778     0.0000 
      9 S2'        18.8600   12.2990   17.5650 S.2       1 MPN1778     0.0000 
     10 O3'        20.8530   13.2480   14.2730 O.3       1 MPN1778     0.0000 
     11 C7         20.3920   14.6090   14.1450 C.3       1 MPN1778     0.0000 
     12 C6         18.9700   14.7970   14.6760 C.3       1 MPN1778     0.0000 
     13 C1'        18.6780   14.2500   15.8630 C.2       1 MPN1778     0.0000 
     14 S1'        17.7550   15.0260   17.0240 S.2       1 MPN1778     0.0000 
     15 N5         17.9830   15.1190   13.8300 N.3       1 MPN1778     0.0000 
     16 N8         20.6320   15.0750   12.7760 N.pl3     1 MPN1778     0.0000 
     17 C10        19.6300   15.4630   11.9520 C.2       1 MPN1778     0.0000 
     18 C9         18.2470   15.5010   12.4550 C.2       1 MPN1778     0.0000 
     19 C4         17.1970   15.9290   11.5040 C.2       1 MPN1778     0.0000 
     20 O4         16.0010   15.9880   11.8490 O.2       1 MPN1778     0.0000 
     21 N3         17.5630   16.2620   10.2430 N.2       1 MPN1778     0.0000 
     22 C2         18.8610   16.2080    9.8360 C.2       1 MPN1778     0.0000 
     23 N1         19.8690   15.8200   10.6660 N.pl3     1 MPN1778     0.0000 
     24 N2         19.1580   16.5560    8.5610 N.pl3     1 MPN1778     0.0000 
     25 H          19.5102   10.4820   15.5997 H         1 MPN1778     0.0000 
     26 H          18.4826   11.1536   14.3219 H         1 MPN1778     0.0000 
     27 H          20.9271   12.0087   15.9190 H         1 MPN1778     0.0000 
     28 H          21.0561   15.2371   14.8227 H         1 MPN1778     0.0000 
     29 H          19.2136   16.0348   15.1288 H         1 MPN1778     0.0000 
     30 H          21.6270   15.0911   12.4694 H         1 MPN1778     0.0000 
     31 H          20.8517   15.7978   10.2992 H         1 MPN1778     0.0000 
     32 H          18.5859   17.2686    8.1548 H         1 MPN1778     0.0000 
     33 H          19.9230   16.0695    8.1389 H         1 MPN1778     0.0000 
@<TRIPOS>BOND
     1    2    1 ar   
     2    3    2 ar   
     3    4    2 ar   
     4    5    2 1    
     5    6    5 1    
     6    7    6 1    
     7   25    6 1    
     8   26    6 1    
     9    8    7 1    
    10   10    7 1    
    11   27    7 1    
    12    9    8 2    
    13   13    8 1    
    14   11   10 1    
    15   12   11 1    
    16   16   11 1    
    17   28   11 1    
    18   13   12 1    
    19   15   12 1    
    20   29   12 1    
    21   14   13 2    
    22   18   15 1    
    23   17   16 1    
    24   30   16 1    
    25   18   17 2    
    26   23   17 1    
    27   19   18 1    
    28   20   19 2    
    29   21   19 1    
    30   22   21 2    
    31   23   22 1    
    32   24   22 1    
    33   31   23 1    
    34   32   24 1    
    35   33   24 1    
@<TRIPOS>SUBSTRUCTURE
     1 MPN1778     1 GROUP   
@<TRIPOS>SET

