#    Name: 1DGK_1_CAVITY_N1_ALL.mol2
#    Modification time : Mon Mar 10 18:17:42 2014

@<TRIPOS>MOLECULE
1DGK_1_CAVITY_N1_ALL.mol2
   89     0     6     0     0
SMALL
NO_CHARGES


@<TRIPOS>ATOM
      1 OD1        94.1312   66.1256  -16.3340 O.3       3 ASP3        0.0000 
      2 N          93.5791   67.4887  -16.6296 N.2       2 ALA2        0.0000 
      3 O          95.5240   60.1002  -16.2721 O.2       2 ALA2        0.0000 
      4 DU         94.9719   61.4632  -16.5678 H         6 CUB7        0.0000 
      5 O          94.4198   62.8262  -16.8634 O.2       2 ALA2        0.0000 
      6 O          93.8677   64.1892  -17.1591 O.2       2 ALA2        0.0000 
      7 CA         94.7084   59.5267  -17.3929 C.3       5 GLY6        0.0000 
      8 O          94.1563   60.8897  -17.6885 O.2       2 ALA2        0.0000 
      9 O          93.6043   62.2528  -17.9842 O.2       2 ALA2        0.0000 
     10 CA         97.3912   60.2057  -11.6621 C.3       5 GLY6        0.0000 
     11 O          97.1278   58.2692  -12.4872 O.2       2 ALA2        0.0000 
     12 CA         96.5757   59.6323  -12.7829 C.3       5 GLY6        0.0000 
     13 CA         96.0236   60.9953  -13.0785 C.3       5 GLY6        0.0000 
     14 NZ         95.4715   62.3583  -13.3742 N.2       4 LYS4        0.0000 
     15 OG         96.3122   57.6958  -13.6080 O.2       1 SER1        0.0000 
     16 O          95.7601   59.0588  -13.9036 O.2       2 ALA2        0.0000 
     17 OG         95.2081   60.4218  -14.1993 O.2       1 SER1        0.0000 
     18 OG         94.6560   61.7849  -14.4949 O.2       1 SER1        0.0000 
     19 O          94.9446   58.4854  -15.0244 O.2       2 ALA2        0.0000 
     20 OG         94.3925   59.8484  -15.3200 O.2       1 SER1        0.0000 
     21 OG         93.8405   61.2114  -15.6157 O.2       1 SER1        0.0000 
     22 OD1        93.2884   62.5744  -15.9113 O.3       3 ASP3        0.0000 
     23 OD1        92.7363   63.9374  -16.2070 O.3       3 ASP3        0.0000 
     24 CA         93.5770   59.2750  -16.4408 C.3       5 GLY6        0.0000 
     25 OG         93.0249   60.6380  -16.7364 O.2       1 SER1        0.0000 
     26 CA         95.4443   59.3805  -11.8308 C.3       5 GLY6        0.0000 
     27 O          94.6287   58.8071  -12.9515 O.2       2 ALA2        0.0000 
     28 OG         93.8132   58.2336  -14.0723 O.2       1 SER1        0.0000 
     29 OG         92.9977   57.6602  -15.1930 O.2       1 SER1        0.0000 
     30 OG         91.3414   61.7492  -16.0800 O.2       1 SER1        0.0000 
     31 NZ        100.2334   62.3240  -14.8141 N.2       4 LYS4        0.0000 
     32 NZ         99.6813   63.6870  -15.1097 N.2       4 LYS4        0.0000 
     33 NZ         99.9699   60.3875  -15.6392 N.2       4 LYS4        0.0000 
     34 NZ         99.4179   61.7505  -15.9348 N.2       4 LYS4        0.0000 
     35 NZ         98.3137   64.4766  -16.5261 N.2       4 LYS4        0.0000 
     36 CA         99.1544   59.8141  -16.7599 C.3       5 GLY6        0.0000 
     37 NZ         98.6023   61.1771  -17.0556 N.2       4 LYS4        0.0000 
     38 NZ         98.0502   62.5401  -17.3512 N.2       4 LYS4        0.0000 
     39 NZ         97.4982   63.9031  -17.6469 N.2       4 LYS4        0.0000 
     40 O          96.9461   65.2661  -17.9425 O.2       2 ALA2        0.0000 
     41 N          96.3940   66.6292  -18.2382 N.2       2 ALA2        0.0000 
     42 N          95.8419   67.9922  -18.5338 N.2       2 ALA2        0.0000 
     43 N          97.7868   60.6037  -18.1763 N.2       2 ALA2        0.0000 
     44 O          97.2347   61.9667  -18.4720 O.2       2 ALA2        0.0000 
     45 O          95.0264   67.4187  -19.6546 O.2       2 ALA2        0.0000 
     46 OG         99.9175   62.6456  -12.7412 O.2       1 SER1        0.0000 
     47 NZ         99.6541   60.7092  -13.5663 N.2       4 LYS4        0.0000 
     48 DU         99.1020   62.0722  -13.8620 H         6 CUB7        0.0000 
     49 NZ         98.5499   63.4352  -14.1576 N.2       4 LYS4        0.0000 
     50 CA         98.8385   60.1358  -14.6871 C.3       5 GLY6        0.0000 
     51 DU         98.2864   61.4988  -14.9827 H         6 CUB7        0.0000 
     52 NZ         97.7344   62.8618  -15.2784 N.2       4 LYS4        0.0000 
     53 NZ         97.1823   64.2248  -15.5740 N.2       4 LYS4        0.0000 
     54 CA         96.6302   65.5878  -15.8697 C.3       5 GLY6        0.0000 
     55 CA         96.0781   66.9508  -16.1653 C.3       5 GLY6        0.0000 
     56 CA         98.0230   59.5623  -15.8078 C.3       5 GLY6        0.0000 
     57 DU         97.4709   60.9254  -16.1035 H         6 CUB7        0.0000 
     58 DU         96.9188   62.2884  -16.3991 H         6 CUB7        0.0000 
     59 DU         96.3667   63.6514  -16.6948 H         6 CUB7        0.0000 
     60 O          95.8147   65.0144  -16.9904 O.2       2 ALA2        0.0000 
     61 DU         95.2626   66.3774  -17.2861 H         6 CUB7        0.0000 
     62 N          94.7105   67.7404  -17.5817 N.2       2 ALA2        0.0000 
     63 N          94.1584   69.1034  -17.8774 N.2       2 ALA2        0.0000 
     64 O          96.6554   60.3519  -17.2242 O.2       2 ALA2        0.0000 
     65 O          96.1033   61.7149  -17.5199 O.2       2 ALA2        0.0000 
     66 O          95.5512   63.0779  -17.8155 O.2       2 ALA2        0.0000 
     67 O          94.4471   65.8040  -18.4068 O.2       2 ALA2        0.0000 
     68 CA        102.9141   54.7892   -8.8945 C.3       5 GLY6        0.0000 
     69 NZ        102.3620   56.1523   -9.1901 N.2       4 LYS4        0.0000 
     70 OD1       101.5465   55.5788  -10.3109 O.3       3 ASP3        0.0000 
     71 NZ        100.9944   56.9418  -10.6065 N.2       4 LYS4        0.0000 
     72 CA         98.7861   62.3939  -11.7891 C.3       5 GLY6        0.0000 
     73 NZ         99.6268   57.7314  -12.0229 N.2       4 LYS4        0.0000 
     74 NZ         99.0747   59.0944  -12.3186 N.2       4 LYS4        0.0000 
     75 NZ         98.5226   60.4574  -12.6142 N.2       4 LYS4        0.0000 
     76 NZ         97.9705   61.8205  -12.9099 N.2       4 LYS4        0.0000 
     77 CA         98.8113   57.1580  -13.1437 C.3       5 GLY6        0.0000 
     78 CA         98.2592   58.5210  -13.4393 C.3       5 GLY6        0.0000 
     79 CA         97.7071   59.8840  -13.7350 C.3       5 GLY6        0.0000 
     80 DU         97.1550   61.2470  -14.0306 H         6 CUB7        0.0000 
     81 NZ         96.6029   62.6100  -14.3263 N.2       4 LYS4        0.0000 
     82 NZ         96.0509   63.9730  -14.6219 N.2       4 LYS4        0.0000 
     83 NZ         95.4988   65.3361  -14.9176 N.2       4 LYS4        0.0000 
     84 OD1        94.9467   66.6991  -15.2132 O.3       3 ASP3        0.0000 
     85 CA         96.8916   59.3106  -14.8557 C.3       5 GLY6        0.0000 
     86 DU         96.3395   60.6736  -15.1514 H         6 CUB7        0.0000 
     87 DU         95.7874   62.0366  -15.4470 H         6 CUB7        0.0000 
     88 OD1        95.2353   63.3996  -15.7427 O.3       3 ASP3        0.0000 
     89 OD1        94.6832   64.7626  -16.0383 O.3       3 ASP3        0.0000 
@<TRIPOS>BOND
@<TRIPOS>SUBSTRUCTURE
     1 SER1       15 GROUP   
     2 ALA2        2 GROUP   
     3 ASP3        1 GROUP   
     4 LYS4       14 GROUP   
     5 GLY6        7 GROUP   
     6 CUB7        4 GROUP   
@<TRIPOS>SET

