#    Name: 1dgk_ADP_1_INTS_M
#    Modification time : Mon Mar 24 21:56:17 2014

@<TRIPOS>MOLECULE
1dgk_ADP_1_INTS_M
   64     0     9     0     0
SMALL
NO_CHARGES


@<TRIPOS>ATOM
      1 N          96.1265   58.9495  -18.4400 N.am      2 SEC2        0.0000 
      2 N          95.9640   59.8380  -17.3150 N.am      8 SEL2        0.0000 
      3 N          96.2890   58.0610  -19.5650 N.am      5 SEP2        0.0000 
      4 N          95.6175   56.5190  -12.3545 N.am      2 SEC2        0.0000 
      5 N          95.9750   57.3860  -13.2530 N.am      8 SEL2        0.0000 
      6 N          95.2600   55.6520  -11.4560 N.am      5 SEP2        0.0000 
      7 N          95.7680   56.0820  -13.6310 N.am      2 SEC2        0.0000 
      8 N          95.5610   54.7780  -14.0090 N.am      5 SEP2        0.0000 
      9 N          94.0175   59.9665  -12.3220 N.am      2 SEC2        0.0000 
     10 N          95.5290   59.6110  -13.0830 N.am      8 SEL2        0.0000 
     11 N          92.5060   60.3220  -11.5610 N.am      5 SEP2        0.0000 
     12 N          95.7510   57.7155  -16.1370 N.am      2 SEC2        0.0000 
     13 N          95.0350   58.4800  -15.3360 N.am      8 SEL2        0.0000 
     14 N          96.4670   56.9510  -16.9380 N.am      5 SEP2        0.0000 
     15 N          93.0225   59.1540  -12.4845 N.am      2 SEC2        0.0000 
     16 N          93.5390   57.9860  -13.4080 N.am      8 SEL2        0.0000 
     17 N          92.7170   58.9405  -13.7765 N.am      2 SEC2        0.0000 
     18 N          91.8950   59.8950  -14.1450 N.am      5 SEP2        0.0000 
     19 CA         93.4870   56.8110  -15.8095 C.3       3 GLC5        0.0000 
     20 CA         92.9370   56.7890  -13.9530 C.3       9 GLL5        0.0000 
     21 CA         94.0370   56.8330  -17.6660 C.3       6 GLP5        0.0000 
     22 O          90.0875   52.3695  -11.7680 O.2       1 ALC1        0.0000 
     23 O          89.6800   53.2270  -12.9740 O.2       7 ALL1        0.0000 
     24 O          90.4950   51.5120  -10.5620 O.2       4 ALP1        0.0000 
     25 CA         90.3695   57.5205  -12.7910 C.3       3 GLC5        0.0000 
     26 CA         89.7850   55.6500  -12.4030 C.3       9 GLL5        0.0000 
     27 CA         90.9540   59.3910  -13.1790 C.3       6 GLP5        0.0000 
     28 CA         84.0195   57.9045  -10.6590 C.3       3 GLC5        0.0000 
     29 CA         85.3690   57.5360  -11.7440 C.3       9 GLL5        0.0000 
     30 CA         82.6700   58.2730   -9.5740 C.3       6 GLP5        0.0000 
     31 O          83.3175   56.9605  -12.5350 O.2       1 ALC1        0.0000 
     32 O          84.2630   58.0130  -12.3000 O.2       7 ALL1        0.0000 
     33 O          82.3720   55.9080  -12.7700 O.2       4 ALP1        0.0000 
     34 N          84.6625   57.9660   -9.6310 N.am      2 SEC2        0.0000 
     35 N          85.4470   57.5080  -10.4040 N.am      8 SEL2        0.0000 
     36 N          83.8780   58.4240   -8.8580 N.am      5 SEP2        0.0000 
     37 CA         86.7105   55.2085   -9.4055 C.3       3 GLC5        0.0000 
     38 CA         86.6020   57.0380   -9.8260 C.3       9 GLL5        0.0000 
     39 CA         86.8190   53.3790   -8.9850 C.3       6 GLP5        0.0000 
     40 CA         84.6360   57.6555   -9.7000 C.3       3 GLC5        0.0000 
     41 CA         87.3475   56.7815   -8.3995 C.3       3 GLC5        0.0000 
     42 CA         88.0930   56.5250   -6.9730 C.3       6 GLP5        0.0000 
     43 CA         86.0955   59.0910  -10.5535 C.3       3 GLC5        0.0000 
     44 CA         85.5890   61.1440  -11.2810 C.3       6 GLP5        0.0000 
     45 CA         87.1960   55.0125  -10.3335 C.3       3 GLC5        0.0000 
     46 CA         87.5730   56.6460  -11.6820 C.3       9 GLL5        0.0000 
     47 CA         88.5790   57.6045  -10.2955 C.3       3 GLC5        0.0000 
     48 CA         89.5850   58.5630   -8.9090 C.3       6 GLP5        0.0000 
     49 CA         93.4905   56.9903  -11.8247 C.3       3 GLC5        0.0000 
     50 CA         91.9710   56.0360  -13.1000 C.3       9 GLL5        0.0000 
     51 CA         94.5270   57.5680  -10.1230 C.3       6 GLP5        0.0000 
     52 CA         91.7040   57.9017  -13.3528 C.3       3 GLC5        0.0000 
     53 CA         93.7405   54.8626  -12.5911 C.3       3 GLC5        0.0000 
     54 CA         95.4200   54.2200  -11.6910 C.3       6 GLP5        0.0000 
     55 CA         90.9441   54.2286  -11.1600 C.3       3 GLC5        0.0000 
     56 CA         91.6680   54.5980  -13.4560 C.3       9 GLL5        0.0000 
     57 CA         91.5480   53.3500   -9.4040 C.3       6 GLP5        0.0000 
     58 CA         88.3060   58.2388  -12.9045 C.3       3 GLC5        0.0000 
     59 CA         86.4850   57.0850  -12.4000 C.3       9 GLL5        0.0000 
     60 CA         89.5830   59.6120  -13.7680 C.3       6 GLP5        0.0000 
     61 CA         85.5620   55.9481  -12.8015 C.3       3 GLC5        0.0000 
     62 CA         84.3740   54.9180  -13.7260 C.3       6 GLP5        0.0000 
     63 CA         86.4230   58.4971  -12.6795 C.3       3 GLC5        0.0000 
     64 CA         86.0960   60.0160  -13.4820 C.3       6 GLP5        0.0000 
@<TRIPOS>BOND
@<TRIPOS>SUBSTRUCTURE
     1 ALC1       22 GROUP        1 X    ALC  0     ROOT ALC X 1
     2 SEC2        1 GROUP        1 X    SEC  0     **** SEC X 2
     3 GLC5       19 GROUP        1 X    GLC  0     **** GLC X 6
     4 ALP1       24 GROUP        1 Y    ALP  0     ROOT ALP Y 8
     5 SEP2        3 GROUP        1 Y    SEP  0     **** SEP Y 9
     6 GLP5       21 GROUP        1 Y    GLP  0     **** GLP Y 13
     7 ALL1       23 GROUP        1 Z    ALL  0     ROOT ALL Z 15
     8 SEL2        2 GROUP        1 Z    SEL  0     **** SEL Z 16
     9 GLL5       20 GROUP        1 Z    GLL  0     **** GLL Z 20
@<TRIPOS>SET

