#    Name: 1dgk_ADP_1_ligand
#    Modification time : Mon Mar 24 21:56:17 2014

@<TRIPOS>MOLECULE
1dgk_ADP_1_ligand
   38    40     1     0     0
SMALL
NO_CHARGES


@<TRIPOS>ATOM
      1 PB         94.8140   59.6540  -16.3810 P.3       1 ADP921      0.0000 
      2 O1B        94.6020   60.9560  -15.6540 O.co2     1 ADP921      0.0000 
      3 O2B        93.5580   59.5170  -17.1870 O.co2     1 ADP921      0.0000 
      4 O3B        95.9640   59.8380  -17.3150 O.co2     1 ADP921      0.0000 
      5 PA         95.0350   58.4280  -13.7610 P.3       1 ADP921      0.0000 
      6 O1A        95.9750   57.3860  -13.2530 O.co2     1 ADP921      0.0000 
      7 O2A        95.5290   59.6110  -13.0830 O.co2     1 ADP921      0.0000 
      8 O3A        95.0350   58.4800  -15.3360 O.3       1 ADP921      0.0000 
      9 O5'        93.5390   57.9860  -13.4080 O.3       1 ADP921      0.0000 
     10 C5'        92.9370   56.7890  -13.9530 C.3       1 ADP921      0.0000 
     11 C4'        91.9710   56.0360  -13.1000 C.3       1 ADP921      0.0000 
     12 O4'        90.7450   56.6320  -12.6890 O.3       1 ADP921      0.0000 
     13 C3'        91.6680   54.5980  -13.4560 C.3       1 ADP921      0.0000 
     14 O3'        92.3430   53.6330  -12.6140 O.3       1 ADP921      0.0000 
     15 C2'        90.1230   54.5310  -13.4020 C.3       1 ADP921      0.0000 
     16 O2'        89.6800   53.2270  -12.9740 O.3       1 ADP921      0.0000 
     17 C1'        89.7850   55.6500  -12.4030 C.3       1 ADP921      0.0000 
     18 N9         88.5090   56.2840  -12.6250 N.pl3     1 ADP921      0.0000 
     19 C8         87.8810   56.5580  -13.7940 C.2       1 ADP921      0.0000 
     20 N7         86.6910   57.0320  -13.7010 N.2       1 ADP921      0.0000 
     21 C5         86.4850   57.0850  -12.4000 C.ar      1 ADP921      0.0000 
     22 C6         85.3690   57.5360  -11.7440 C.ar      1 ADP921      0.0000 
     23 N6         84.2630   58.0130  -12.3000 N.pl3     1 ADP921      0.0000 
     24 N1         85.4470   57.5080  -10.4040 N.ar      1 ADP921      0.0000 
     25 C2         86.6020   57.0380   -9.8260 C.ar      1 ADP921      0.0000 
     26 N3         87.7170   56.5790  -10.3530 N.ar      1 ADP921      0.0000 
     27 C4         87.5730   56.6460  -11.6820 C.ar      1 ADP921      0.0000 
     28 H          93.7500   56.0676  -14.2760 H         1 ADP921      0.0000 
     29 H          92.4177   57.0355  -14.9303 H         1 ADP921      0.0000 
     30 H          92.5606   55.8841  -12.0578 H         1 ADP921      0.0000 
     31 H          91.9351   54.4740  -14.5119 H         1 ADP921      0.0000 
     32 H          89.7622   54.8196  -14.3573 H         1 ADP921      0.0000 
     33 H          89.8983   55.2821  -11.4239 H         1 ADP921      0.0000 
     34 H          88.3599   56.3840  -14.6862 H         1 ADP921      0.0000 
     35 H          86.5689   57.0570   -8.7027 H         1 ADP921      0.0000 
     36 H          92.8817   53.0727  -13.2432 H         1 ADP921      0.0000 
     37 H          90.4772   52.8149  -12.5329 H         1 ADP921      0.0000 
     38 H          83.6805   57.2132  -12.4446 H         1 ADP921      0.0000 
@<TRIPOS>BOND
     1    2    1 ar   
     2    3    1 ar   
     3    4    1 ar   
     4    8    1 1    
     5    6    5 ar   
     6    7    5 ar   
     7    8    5 1    
     8    9    5 1    
     9   10    9 1    
    10   11   10 1    
    11   28   10 1    
    12   29   10 1    
    13   12   11 1    
    14   13   11 1    
    15   30   11 1    
    16   17   12 1    
    17   14   13 1    
    18   15   13 1    
    19   31   13 1    
    20   36   14 1    
    21   16   15 1    
    22   17   15 1    
    23   32   15 1    
    24   37   16 1    
    25   18   17 1    
    26   33   17 1    
    27   19   18 1    
    28   27   18 1    
    29   20   19 2    
    30   34   19 1    
    31   21   20 1    
    32   22   21 ar   
    33   27   21 ar   
    34   23   22 1    
    35   24   22 ar   
    36   38   23 1    
    37   25   24 ar   
    38   26   25 ar   
    39   35   25 1    
    40   27   26 ar   
@<TRIPOS>SUBSTRUCTURE
     1 ADP921      1 GROUP   
@<TRIPOS>SET

