#    Name: 4bfx_ZVX_1_INTS_M
#    Modification time : Tue Mar 25 07:39:36 2014

@<TRIPOS>MOLECULE
4bfx_ZVX_1_INTS_M
   51     0     6     0     0
SMALL
NO_CHARGES


@<TRIPOS>ATOM
      1 CA        -16.3240  -12.2880   16.8160 C.3       2 GLC5        0.0000 
      2 CA        -15.9810  -13.8200   15.8040 C.3       6 GLL5        0.0000 
      3 CA        -16.6670  -10.7560   17.8280 C.3       4 GLP5        0.0000 
      4 CA        -13.3355  -10.7330   10.8065 C.3       2 GLC5        0.0000 
      5 CA        -14.3230   -9.2780   11.4450 C.3       6 GLL5        0.0000 
      6 CA        -12.3480  -12.1880   10.1680 C.3       4 GLP5        0.0000 
      7 CA        -12.9935   -7.9195   13.6215 C.3       2 GLC5        0.0000 
      8 CA        -14.3240   -8.1150   12.4300 C.3       6 GLL5        0.0000 
      9 CA        -11.6630   -7.7240   14.8130 C.3       4 GLP5        0.0000 
     10 N         -16.7110   -7.9240   14.6570 N.am      1 SEC2        0.0000 
     11 N         -17.3580   -8.0490   13.4770 N.am      5 SEL2        0.0000 
     12 N         -16.0640   -7.7990   15.8370 N.am      3 SEP2        0.0000 
     13 N         -18.4835   -8.0350   14.7565 N.am      1 SEC2        0.0000 
     14 N         -19.6090   -8.0210   16.0360 N.am      3 SEP2        0.0000 
     15 N         -19.1305   -8.1225   14.7120 N.am      1 SEC2        0.0000 
     16 N         -18.6520   -8.2240   13.3880 N.am      5 SEL2        0.0000 
     17 CA        -18.3395   -6.8565    8.8370 C.3       2 GLC5        0.0000 
     18 CA        -18.0970   -6.4010   10.3200 C.3       6 GLL5        0.0000 
     19 CA        -18.5820   -7.3120    7.3540 C.3       4 GLP5        0.0000 
     20 CA        -16.6435   -5.6470    9.0490 C.3       2 GLC5        0.0000 
     21 CA        -15.1900   -4.8930    7.7780 C.3       4 GLP5        0.0000 
     22 CA        -22.2410   -6.0130   13.8720 C.3       2 GLC5        0.0000 
     23 CA        -21.6150   -7.2340   12.7630 C.3       6 GLL5        0.0000 
     24 CA        -22.8670   -4.7920   14.9810 C.3       4 GLP5        0.0000 
     25 CA        -19.5335  -12.4465   13.4810 C.3       2 GLC5        0.0000 
     26 CA        -19.3080  -11.9380   11.3260 C.3       6 GLL5        0.0000 
     27 CA        -19.7590  -12.9550   15.6360 C.3       4 GLP5        0.0000 
     28 CA        -22.6850   -8.4455    8.0725 C.3       2 GLC5        0.0000 
     29 CA        -22.9930   -9.7730    9.2940 C.3       6 GLL5        0.0000 
     30 CA        -22.3770   -7.1180    6.8510 C.3       4 GLP5        0.0000 
     31 CA        -16.6475  -14.1735   16.8443 C.3       2 GLC5        0.0000 
     32 CA        -17.4000  -14.9820   18.3690 C.3       4 GLP5        0.0000 
     33 CA        -18.0015  -13.0717   15.0711 C.3       2 GLC5        0.0000 
     34 CA        -15.8090  -12.9100   14.8350 C.3       6 GLL5        0.0000 
     35 CA        -13.9850  -12.0580   12.3152 C.3       2 GLC5        0.0000 
     36 CA        -16.4250  -12.0810   12.6750 C.3       6 GLL5        0.0000 
     37 CA        -12.0170  -12.5460   11.8990 C.3       4 GLP5        0.0000 
     38 CA        -14.3822  -13.7889   14.9686 C.3       2 GLC5        0.0000 
     39 CA        -14.8550  -11.8910   14.9700 C.3       6 GLL5        0.0000 
     40 CA        -13.2150  -15.0380   15.1990 C.3       4 GLP5        0.0000 
     41 CA        -13.3963  -11.9857   13.1783 C.3       2 GLC5        0.0000 
     42 CA        -12.4627   -8.5362   11.6687 C.3       2 GLC5        0.0000 
     43 CA        -10.6020   -8.3760   11.4000 C.3       4 GLP5        0.0000 
     44 CA        -24.5055   -9.6440   10.2967 C.3       2 GLC5        0.0000 
     45 CA        -26.2950   -8.9590   11.0550 C.3       4 GLP5        0.0000 
     46 CA        -23.6492  -11.3287    7.8841 C.3       2 GLC5        0.0000 
     47 CA        -22.4390  -10.8850    9.7830 C.3       6 GLL5        0.0000 
     48 CA        -24.3630  -11.4530    6.1140 C.3       4 GLP5        0.0000 
     49 CA        -19.2175  -13.0221    9.4926 C.3       2 GLC5        0.0000 
     50 CA        -21.2800  -13.1720   10.7990 C.3       6 GLL5        0.0000 
     51 CA        -17.8280  -13.4820    8.0510 C.3       4 GLP5        0.0000 
@<TRIPOS>BOND
@<TRIPOS>SUBSTRUCTURE
     1 SEC2       10 GROUP        1 X    SEC  0     ROOT SEC X 2
     2 GLC5        1 GROUP        1 X    GLC  0     **** GLC X 6
     3 SEP2       12 GROUP        1 Y    SEP  0     ROOT SEP Y 9
     4 GLP5        3 GROUP        1 Y    GLP  0     **** GLP Y 13
     5 SEL2       11 GROUP        1 Z    SEL  0     ROOT SEL Z 16
     6 GLL5        2 GROUP        1 Z    GLL  0     **** GLL Z 20
@<TRIPOS>SET

