#    Name: 4bfx_ZVX_1_ligand
#    Modification time : Tue Mar 25 07:39:36 2014

@<TRIPOS>MOLECULE
4bfx_ZVX_1_ligand
   49    51     1     0     0
SMALL
NO_CHARGES


@<TRIPOS>ATOM
      1 F9        -15.9810  -13.8200   15.8040 F         1 ZVX501      0.0000 
      2 C6        -15.8090  -12.9100   14.8350 C.ar      1 ZVX501      0.0000 
      3 C7        -16.5930  -13.0120   13.6930 C.ar      1 ZVX501      0.0000 
      4 C8        -16.4250  -12.0810   12.6750 C.ar      1 ZVX501      0.0000 
      5 C5        -14.8550  -11.8910   14.9700 C.ar      1 ZVX501      0.0000 
      6 C4        -14.6960  -10.9600   13.9450 C.ar      1 ZVX501      0.0000 
      7 C3        -15.4810  -11.0590   12.7880 C.ar      1 ZVX501      0.0000 
      8 O2        -15.3970  -10.1790   11.7260 O.3       1 ZVX501      0.0000 
      9 C1        -14.3230   -9.2780   11.4450 C.3       1 ZVX501      0.0000 
     10 C10       -14.3240   -8.1150   12.4300 C.3       1 ZVX501      0.0000 
     11 S11       -15.4560   -6.8780   11.9130 S.3       1 ZVX501      0.0000 
     12 C12       -17.0670   -7.3860   12.3680 C.2       1 ZVX501      0.0000 
     13 N13       -17.3580   -8.0490   13.4770 N.2       1 ZVX501      0.0000 
     14 N14       -18.6520   -8.2240   13.3880 N.2       1 ZVX501      0.0000 
     15 N16       -18.1110   -7.1360   11.6040 N.pl3     1 ZVX501      0.0000 
     16 C17       -18.0970   -6.4010   10.3200 C.3       1 ZVX501      0.0000 
     17 C15       -19.1420   -7.6760   12.2520 C.2       1 ZVX501      0.0000 
     18 C18       -20.5680   -7.6540   11.7920 C.3       1 ZVX501      0.0000 
     19 C19       -21.6150   -7.2340   12.7630 C.3       1 ZVX501      0.0000 
     20 N20       -21.0680   -8.4890   10.9000 N.am      1 ZVX501      0.0000 
     21 C21       -20.4530   -9.4880   10.2710 C.2       1 ZVX501      0.0000 
     22 O28       -19.4130   -9.3630    9.6450 O.2       1 ZVX501      0.0000 
     23 C22       -21.1540  -10.8180   10.2920 C.ar      1 ZVX501      0.0000 
     24 C27       -20.5600  -11.9670   10.8130 C.ar      1 ZVX501      0.0000 
     25 F30       -19.3080  -11.9380   11.3260 F         1 ZVX501      0.0000 
     26 C23       -22.4390  -10.8850    9.7830 C.ar      1 ZVX501      0.0000 
     27 F29       -22.9930   -9.7730    9.2940 F         1 ZVX501      0.0000 
     28 C24       -23.1550  -12.0800    9.7700 C.ar      1 ZVX501      0.0000 
     29 C25       -22.5740  -13.2350   10.2750 C.ar      1 ZVX501      0.0000 
     30 C26       -21.2800  -13.1720   10.7990 C.ar      1 ZVX501      0.0000 
     31 H         -17.2829  -13.7601   13.6024 H         1 ZVX501      0.0000 
     32 H         -17.0053  -12.1438   11.8220 H         1 ZVX501      0.0000 
     33 H         -14.2826  -11.8348   15.8150 H         1 ZVX501      0.0000 
     34 H         -14.0094  -10.2054   14.0334 H         1 ZVX501      0.0000 
     35 H         -14.4014   -8.8591   10.4307 H         1 ZVX501      0.0000 
     36 H         -13.3459   -9.7785   11.5172 H         1 ZVX501      0.0000 
     37 H         -13.3886   -7.6032   12.4694 H         1 ZVX501      0.0000 
     38 H         -14.6747   -8.3916   13.3990 H         1 ZVX501      0.0000 
     39 H         -20.5426   -6.5642   11.1198 H         1 ZVX501      0.0000 
     40 H         -22.1330   -8.3433   10.6395 H         1 ZVX501      0.0000 
     41 H         -24.1072  -12.1038    9.3884 H         1 ZVX501      0.0000 
     42 H         -23.0818  -14.1211   10.2657 H         1 ZVX501      0.0000 
     43 H         -20.8433  -14.0257   11.1834 H         1 ZVX501      0.0000 
     44 H         -17.7577   -5.4668   10.4305 H         1 ZVX501      0.0000 
     45 H         -17.5117   -6.8472    9.6430 H         1 ZVX501      0.0000 
     46 H         -19.0110   -6.3355    9.9196 H         1 ZVX501      0.0000 
     47 H         -21.6376   -7.8299   13.5657 H         1 ZVX501      0.0000 
     48 H         -21.4627   -6.3026   13.0936 H         1 ZVX501      0.0000 
     49 H         -22.5284   -7.2551   12.3565 H         1 ZVX501      0.0000 
@<TRIPOS>BOND
     1    2    1 1    
     2    3    2 ar   
     3    5    2 ar   
     4    4    3 ar   
     5   31    3 1    
     6    7    4 ar   
     7   32    4 1    
     8    6    5 ar   
     9   33    5 1    
    10    7    6 ar   
    11   34    6 1    
    12    8    7 1    
    13    9    8 1    
    14   10    9 1    
    15   35    9 1    
    16   36    9 1    
    17   11   10 1    
    18   37   10 1    
    19   38   10 1    
    20   12   11 1    
    21   13   12 2    
    22   15   12 1    
    23   14   13 1    
    24   17   14 2    
    25   16   15 1    
    26   17   15 1    
    27   44   16 1    
    28   45   16 1    
    29   46   16 1    
    30   18   17 1    
    31   19   18 1    
    32   20   18 1    
    33   39   18 1    
    34   47   19 1    
    35   48   19 1    
    36   49   19 1    
    37   21   20 am   
    38   40   20 1    
    39   22   21 2    
    40   23   21 1    
    41   24   23 ar   
    42   26   23 ar   
    43   25   24 1    
    44   30   24 ar   
    45   27   26 1    
    46   28   26 ar   
    47   29   28 ar   
    48   41   28 1    
    49   30   29 ar   
    50   42   29 1    
    51   43   30 1    
@<TRIPOS>SUBSTRUCTURE
     1 ZVX501      1 GROUP   
@<TRIPOS>SET

