#    Name: 1ro9_8BR_1_INTS_M
#    Modification time : Tue Mar 25 00:59:20 2014

@<TRIPOS>MOLECULE
1ro9_8BR_1_INTS_M
   46     0     9     0     0
SMALL
NO_CHARGES


@<TRIPOS>ATOM
      1 N          36.5660   71.7890   23.8310 N.am      2 SEC2        0.0000 
      2 N          35.3750   72.0050   23.8140 N.am      8 SEL2        0.0000 
      3 N          37.7570   71.5730   23.8480 N.am      5 SEP2        0.0000 
      4 N          33.4520   69.7880   26.0210 N.am      2 SEC2        0.0000 
      5 N          34.4810   70.2270   25.0700 N.am      8 SEL2        0.0000 
      6 N          32.4230   69.3490   26.9720 N.am      5 SEP2        0.0000 
      7 CA         30.8240   71.9620   23.1530 C.3       3 GLC5        0.0000 
      8 CA         32.4380   71.6880   22.3130 C.3       9 GLL5        0.0000 
      9 CA         29.2100   72.2360   23.9930 C.3       6 GLP5        0.0000 
     10 CA         35.6445   74.0995   21.0570 C.3       3 GLC5        0.0000 
     11 CA         34.1720   72.6280   20.7600 C.3       9 GLL5        0.0000 
     12 CA         37.1170   75.5710   21.3540 C.3       6 GLP5        0.0000 
     13 CA         35.1900   75.0075   20.0505 C.3       3 GLC5        0.0000 
     14 CA         34.0780   73.3530   19.4360 C.3       9 GLL5        0.0000 
     15 CA         36.3020   76.6620   20.6650 C.3       6 GLP5        0.0000 
     16 CA         30.7265   73.7650   19.4845 C.3       3 GLC5        0.0000 
     17 CA         32.6070   73.7870   19.4210 C.3       9 GLL5        0.0000 
     18 CA         28.8460   73.7430   19.5480 C.3       6 GLP5        0.0000 
     19 CA         34.0805   75.9335   16.9965 C.3       3 GLC5        0.0000 
     20 CA         32.0970   76.2180   17.0430 C.3       9 GLL5        0.0000 
     21 CA         36.0640   75.6490   16.9500 C.3       6 GLP5        0.0000 
     22 CA         32.5585   75.9200   15.1230 C.3       3 GLC5        0.0000 
     23 CA         33.0200   75.6220   13.2030 C.3       6 GLP5        0.0000 
     24 CA         30.1835   76.1100   17.9660 C.3       3 GLC5        0.0000 
     25 CA         28.2700   76.0020   18.8890 C.3       6 GLP5        0.0000 
     26 N          31.8330   78.8990   19.0520 N.am      2 SEC2        0.0000 
     27 N          31.9520   77.4700   19.5980 N.am      8 SEL2        0.0000 
     28 N          31.7140   80.3280   18.5060 N.am      5 SEP2        0.0000 
     29 O          30.8620   79.8070   21.0620 O.2       1 ALC1        0.0000 
     30 O          31.7060   79.2280   22.1470 O.2       7 ALL1        0.0000 
     31 O          30.0180   80.3860   19.9770 O.2       4 ALP1        0.0000 
     32 N          32.5785   77.5750   24.7970 N.am      2 SEC2        0.0000 
     33 N          32.0950   77.2880   23.3810 N.am      8 SEL2        0.0000 
     34 N          33.0620   77.8620   26.2130 N.am      5 SEP2        0.0000 
     35 CA         34.3030   76.2155   20.8680 C.3       3 GLC5        0.0000 
     36 CA         32.3040   75.7690   21.0710 C.3       9 GLL5        0.0000 
     37 CA         31.9725   70.0378   21.2273 C.3       3 GLC5        0.0000 
     38 CA         32.8220   71.9450   20.8520 C.3       9 GLL5        0.0000 
     39 CA         31.3150   68.2590   20.8720 C.3       6 GLP5        0.0000 
     40 CA         30.8620   72.9977   21.2127 C.3       3 GLC5        0.0000 
     41 CA         29.0940   74.1790   20.8430 C.3       6 GLP5        0.0000 
     42 CA         34.8295   73.8539   18.5093 C.3       3 GLC5        0.0000 
     43 CA         36.2930   74.3190   17.2590 C.3       6 GLP5        0.0000 
     44 CA         33.8188   78.2935   21.0222 C.3       3 GLC5        0.0000 
     45 CA         32.0460   77.1760   20.9490 C.3       9 GLL5        0.0000 
     46 CA         35.6400   79.0480   20.4960 C.3       6 GLP5        0.0000 
@<TRIPOS>BOND
@<TRIPOS>SUBSTRUCTURE
     1 ALC1       29 GROUP        1 X    ALC  0     ROOT ALC X 1
     2 SEC2        1 GROUP        1 X    SEC  0     **** SEC X 2
     3 GLC5        7 GROUP        1 X    GLC  0     **** GLC X 6
     4 ALP1       31 GROUP        1 Y    ALP  0     ROOT ALP Y 8
     5 SEP2        3 GROUP        1 Y    SEP  0     **** SEP Y 9
     6 GLP5        9 GROUP        1 Y    GLP  0     **** GLP Y 13
     7 ALL1       30 GROUP        1 Z    ALL  0     ROOT ALL Z 15
     8 SEL2        2 GROUP        1 Z    SEL  0     **** SEL Z 16
     9 GLL5        8 GROUP        1 Z    GLL  0     **** GLL Z 20
@<TRIPOS>SET

