#    Name: 1ro9_8BR_1_ligand
#    Modification time : Tue Mar 25 00:59:20 2014

@<TRIPOS>MOLECULE
1ro9_8BR_1_ligand
   35    37     1     0     0
SMALL
NO_CHARGES


@<TRIPOS>ATOM
      1 P          34.1430   71.3390   24.2510 P.3       1 8BR531      0.0000 
      2 O1P        33.2870   72.2750   25.0550 O.co2     1 8BR531      0.0000 
      3 O2P        35.3750   72.0050   23.8140 O.co2     1 8BR531      0.0000 
      4 O3P        34.4810   70.2270   25.0700 O.co2     1 8BR531      0.0000 
      5 O5'        33.4120   70.8350   22.9530 O.3       1 8BR531      0.0000 
      6 C5'        32.4380   71.6880   22.3130 C.3       1 8BR531      0.0000 
      7 C4'        32.8220   71.9450   20.8520 C.3       1 8BR531      0.0000 
      8 O4'        31.9210   72.9260   20.3430 O.3       1 8BR531      0.0000 
      9 C3'        34.1720   72.6280   20.7600 C.3       1 8BR531      0.0000 
     10 O3'        35.1830   71.6310   20.7870 O.3       1 8BR531      0.0000 
     11 C2'        34.0780   73.3530   19.4360 C.3       1 8BR531      0.0000 
     12 O2'        34.3410   72.4350   18.3800 O.3       1 8BR531      0.0000 
     13 C1'        32.6070   73.7870   19.4210 C.3       1 8BR531      0.0000 
     14 N9         32.3610   75.2310   19.7670 N.pl3     1 8BR531      0.0000 
     15 C8         32.1420   76.3020   18.9390 C.2       1 8BR531      0.0000 
     16 BR8        32.0970   76.2180   17.0430 Br        1 8BR531      0.0000 
     17 N7         31.9520   77.4700   19.5980 N.2       1 8BR531      0.0000 
     18 C5         32.0460   77.1760   20.9490 C.ar      1 8BR531      0.0000 
     19 C6         31.9490   77.9020   22.1480 C.ar      1 8BR531      0.0000 
     20 N6         31.7060   79.2280   22.1470 N.pl3     1 8BR531      0.0000 
     21 N1         32.0950   77.2880   23.3810 N.ar      1 8BR531      0.0000 
     22 C2         32.3430   75.9360   23.4190 C.ar      1 8BR531      0.0000 
     23 N3         32.4530   75.1520   22.3020 N.ar      1 8BR531      0.0000 
     24 C4         32.3040   75.7690   21.0710 C.ar      1 8BR531      0.0000 
     25 H          32.3654   72.6600   22.8171 H         1 8BR531      0.0000 
     26 H          31.4398   71.2321   22.3227 H         1 8BR531      0.0000 
     27 H          32.8155   71.0695   20.3020 H         1 8BR531      0.0000 
     28 H          34.2333   73.3336   21.5411 H         1 8BR531      0.0000 
     29 H          34.6830   74.1952   19.4571 H         1 8BR531      0.0000 
     30 H          32.2262   73.5933   18.4102 H         1 8BR531      0.0000 
     31 H          30.8617   79.5203   21.6978 H         1 8BR531      0.0000 
     32 H          32.3916   79.8013   22.5956 H         1 8BR531      0.0000 
     33 H          32.4550   75.4770   24.3682 H         1 8BR531      0.0000 
     34 H          35.5604   71.6702   21.7122 H         1 8BR531      0.0000 
     35 H          35.0660   71.8409   18.7283 H         1 8BR531      0.0000 
@<TRIPOS>BOND
     1    2    1 ar   
     2    3    1 ar   
     3    4    1 ar   
     4    5    1 1    
     5    6    5 1    
     6    7    6 1    
     7   25    6 1    
     8   26    6 1    
     9    8    7 1    
    10    9    7 1    
    11   27    7 1    
    12   13    8 1    
    13   10    9 1    
    14   11    9 1    
    15   28    9 1    
    16   34   10 1    
    17   12   11 1    
    18   13   11 1    
    19   29   11 1    
    20   35   12 1    
    21   14   13 1    
    22   30   13 1    
    23   15   14 1    
    24   24   14 1    
    25   16   15 1    
    26   17   15 2    
    27   18   17 1    
    28   19   18 ar   
    29   24   18 ar   
    30   20   19 1    
    31   21   19 ar   
    32   31   20 1    
    33   32   20 1    
    34   22   21 ar   
    35   23   22 ar   
    36   33   22 1    
    37   24   23 ar   
@<TRIPOS>SUBSTRUCTURE
     1 8BR531      1 GROUP   
@<TRIPOS>SET

