#    Name: 3E39_2_CAVITY_N1_6.mol2
#    Modification time : Tue Mar 11 17:47:33 2014

@<TRIPOS>MOLECULE
3E39_2_CAVITY_N1_6.mol2
   85     0     5     0     0
SMALL
NO_CHARGES


@<TRIPOS>ATOM
      1 O          24.8924   86.0319  -16.8317 O.2       2 ALA2        0.0000 
      2 O          23.6397   85.7031  -17.5884 O.2       2 ALA2        0.0000 
      3 CZ         22.8159   86.2785  -16.4747 C.ar      3 PHE5        0.0000 
      4 OG         19.0920   87.6761  -13.8903 O.2       1 SER1        0.0000 
      5 OG         17.8393   87.3473  -14.6470 O.2       1 SER1        0.0000 
      6 O          24.0225   85.2617  -15.0569 O.2       2 ALA2        0.0000 
      7 DU         23.1987   85.8371  -13.9432 H         5 CUB7        0.0000 
      8 O          22.7697   84.9329  -15.8135 O.2       2 ALA2        0.0000 
      9 OG         21.9460   85.5083  -14.6998 O.2       1 SER1        0.0000 
     10 OG         21.1223   86.0838  -13.5862 O.2       1 SER1        0.0000 
     11 O          22.3408   84.0286  -17.6839 O.2       2 ALA2        0.0000 
     12 CZ         21.5170   84.6041  -16.5702 C.ar      3 PHE5        0.0000 
     13 OG         20.6933   85.1795  -15.4565 O.2       1 SER1        0.0000 
     14 OG         19.8695   85.7550  -14.3428 O.2       1 SER1        0.0000 
     15 OG         19.0458   86.3305  -13.2291 O.2       1 SER1        0.0000 
     16 CA         18.2221   86.9059  -12.1155 C.3       4 GLY6        0.0000 
     17 CA         17.7931   86.0017  -13.9858 C.3       4 GLY6        0.0000 
     18 CA         16.9693   86.5771  -12.8721 C.3       4 GLY6        0.0000 
     19 CA         15.7166   86.2483  -13.6288 C.3       4 GLY6        0.0000 
     20 O          24.4053   84.8203  -12.5253 O.2       2 ALA2        0.0000 
     21 O          23.1526   84.4915  -13.2820 O.2       2 ALA2        0.0000 
     22 O          22.3288   85.0670  -12.1683 O.2       2 ALA2        0.0000 
     23 O          23.5473   83.0118  -16.2661 O.2       2 ALA2        0.0000 
     24 O          22.7236   83.5872  -15.1524 O.2       2 ALA2        0.0000 
     25 DU         21.8998   84.1627  -14.0387 H         5 CUB7        0.0000 
     26 O          21.0761   84.7382  -12.9250 O.2       2 ALA2        0.0000 
     27 CA         20.2524   85.3136  -11.8113 C.3       4 GLY6        0.0000 
     28 CA         22.2946   82.6830  -17.0228 C.3       4 GLY6        0.0000 
     29 DU         21.4708   83.2584  -15.9091 H         5 CUB7        0.0000 
     30 CZ         20.6471   83.8339  -14.7954 C.ar      3 PHE5        0.0000 
     31 DU         19.8234   84.4094  -13.6817 H         5 CUB7        0.0000 
     32 CA         18.9996   84.9848  -12.5680 C.3       4 GLY6        0.0000 
     33 CA         18.1759   85.5603  -11.4543 C.3       4 GLY6        0.0000 
     34 CA         20.2181   82.9296  -16.6657 C.3       4 GLY6        0.0000 
     35 CZ         19.3944   83.5051  -15.5520 C.ar      3 PHE5        0.0000 
     36 CA         18.5706   84.0806  -14.4384 C.3       4 GLY6        0.0000 
     37 CA         17.7469   84.6560  -13.3247 C.3       4 GLY6        0.0000 
     38 CA         16.9232   85.2315  -12.2110 C.3       4 GLY6        0.0000 
     39 CA         15.6705   84.9027  -12.9677 C.3       4 GLY6        0.0000 
     40 O          25.1829   82.8992  -12.9779 O.2       2 ALA2        0.0000 
     41 O          24.3591   83.4747  -11.8642 O.2       2 ALA2        0.0000 
     42 O          23.9301   82.5704  -13.7345 O.2       2 ALA2        0.0000 
     43 O          23.1064   83.1459  -12.6209 O.2       2 ALA2        0.0000 
     44 CA         23.5011   81.6662  -15.6049 C.3       4 GLY6        0.0000 
     45 N          22.6774   82.2416  -14.4912 N.2       2 ALA2        0.0000 
     46 DU         21.8537   82.8171  -13.3775 H         5 CUB7        0.0000 
     47 O          21.0299   83.3925  -12.2638 O.2       2 ALA2        0.0000 
     48 O          20.2062   83.9680  -11.1501 O.2       2 ALA2        0.0000 
     49 N          21.4247   81.9128  -15.2479 N.2       2 ALA2        0.0000 
     50 N          20.6009   82.4883  -14.1342 N.2       2 ALA2        0.0000 
     51 DU         19.7772   83.0637  -13.0205 H         5 CUB7        0.0000 
     52 OG         18.9535   83.6392  -11.9068 O.2       1 SER1        0.0000 
     53 CA         20.1720   81.5840  -16.0046 C.3       4 GLY6        0.0000 
     54 O          19.3482   82.1595  -14.8909 O.2       2 ALA2        0.0000 
     55 O          18.5245   82.7349  -13.7772 O.2       2 ALA2        0.0000 
     56 O          17.7007   83.3104  -12.6635 O.2       2 ALA2        0.0000 
     57 CZ         16.8770   83.8858  -11.5498 C.ar      3 PHE5        0.0000 
     58 N          25.1367   81.5536  -12.3167 N.2       2 ALA2        0.0000 
     59 OG         24.7077   80.6493  -14.1871 O.2       1 SER1        0.0000 
     60 N          23.8840   81.2248  -13.0734 N.2       2 ALA2        0.0000 
     61 N          23.0602   81.8002  -11.9597 N.2       2 ALA2        0.0000 
     62 N          22.6312   80.8960  -13.8301 N.2       2 ALA2        0.0000 
     63 N          21.8075   81.4714  -12.7164 N.2       2 ALA2        0.0000 
     64 CA         20.9838   82.0469  -11.6027 C.3       4 GLY6        0.0000 
     65 N          20.5548   81.1426  -13.4731 N.2       2 ALA2        0.0000 
     66 OG         19.7310   81.7181  -12.3594 O.2       1 SER1        0.0000 
     67 CA         18.4783   81.3893  -13.1160 C.3       4 GLY6        0.0000 
     68 OG         25.9143   79.6325  -12.7692 O.2       1 SER1        0.0000 
     69 N          25.0905   80.2079  -11.6556 N.2       2 ALA2        0.0000 
     70 OG         24.6615   79.3037  -13.5259 O.2       1 SER1        0.0000 
     71 N          23.8378   79.8791  -12.4122 N.2       2 ALA2        0.0000 
     72 N          23.0141   80.4546  -11.2985 N.2       2 ALA2        0.0000 
     73 N          22.5851   79.5503  -13.1689 N.2       2 ALA2        0.0000 
     74 N          21.7613   80.1258  -12.0552 N.2       2 ALA2        0.0000 
     75 CA         20.9376   80.7013  -10.9415 C.3       4 GLY6        0.0000 
     76 N          20.5086   79.7970  -12.8119 N.2       2 ALA2        0.0000 
     77 OG         19.6849   80.3725  -11.6982 O.2       1 SER1        0.0000 
     78 CA         23.7916   78.5335  -11.7511 C.3       4 GLY6        0.0000 
     79 N          22.9679   79.1090  -10.6374 N.2       2 ALA2        0.0000 
     80 CZ         21.7152   78.7802  -11.3941 C.ar      3 PHE5        0.0000 
     81 O          20.8914   79.3556  -10.2804 O.2       2 ALA2        0.0000 
     82 O          20.0677   79.9311   -9.1667 O.2       2 ALA2        0.0000 
     83 O          19.6387   79.0268  -11.0370 O.2       2 ALA2        0.0000 
     84 OG         18.8150   79.6023   -9.9234 O.2       1 SER1        0.0000 
     85 CZ         20.8453   78.0100   -9.6192 C.ar      3 PHE5        0.0000 
@<TRIPOS>BOND
@<TRIPOS>SUBSTRUCTURE
     1 SER1        4 GROUP   
     2 ALA2        1 GROUP   
     3 PHE5        3 GROUP   
     4 GLY6       16 GROUP   
     5 CUB7        7 GROUP   
@<TRIPOS>SET

