#    Name: 3e39_FMN_2_INTS_M
#    Modification time : Tue Mar 25 00:52:52 2014

@<TRIPOS>MOLECULE
3e39_FMN_2_INTS_M
   84     0     9     0     0
SMALL
NO_CHARGES


@<TRIPOS>ATOM
      1 N          24.4950   83.0070  -15.6345 N.am      1 SEC2        0.0000 
      2 N          22.9710   82.5100  -15.6130 N.am      7 SEL2        0.0000 
      3 N          26.0190   83.5040  -15.6560 N.am      4 SEP2        0.0000 
      4 N          24.3720   83.6940  -17.6930 N.am      1 SEC2        0.0000 
      5 N          23.0290   83.7340  -17.4570 N.am      7 SEL2        0.0000 
      6 N          25.7150   83.6540  -17.9290 N.am      4 SEP2        0.0000 
      7 N          24.5240   83.6190  -16.5565 N.am      1 SEC2        0.0000 
      8 N          18.4290   81.0470  -15.5890 N.am      1 SEC2        0.0000 
      9 N          18.9660   82.4780  -16.1060 N.am      7 SEL2        0.0000 
     10 N          17.8920   79.6160  -15.0720 N.am      4 SEP2        0.0000 
     11 N          17.5655   82.1450  -15.5030 N.am      1 SEC2        0.0000 
     12 N          16.1650   81.8120  -14.9000 N.am      4 SEP2        0.0000 
     13 N          18.9320   80.4695  -14.4655 N.am      1 SEC2        0.0000 
     14 N          19.9720   81.3230  -13.8590 N.am      7 SEL2        0.0000 
     15 CA         17.9215   78.9725   -8.8610 C.3       3 GLC5        0.0000 
     16 CA         19.4470   78.6080   -9.8400 C.3       9 GLL5        0.0000 
     17 CA         16.3960   79.3370   -7.8820 C.3       6 GLP5        0.0000 
     18 CA         19.8960   77.1140  -10.7470 C.3       3 GLC5        0.0000 
     19 CA         20.3450   75.6200  -11.6540 C.3       6 GLP5        0.0000 
     20 CA         24.3385   77.7695  -10.0100 C.3       3 GLC5        0.0000 
     21 CA         22.3100   78.1020   -9.8080 C.3       9 GLL5        0.0000 
     22 CA         26.3670   77.4370  -10.2120 C.3       6 GLP5        0.0000 
     23 CA         22.5005   76.6155  -10.6705 C.3       3 GLC5        0.0000 
     24 CA         22.6910   75.1290  -11.5330 C.3       6 GLP5        0.0000 
     25 CA         26.0825   80.6890  -14.8715 C.3       3 GLC5        0.0000 
     26 CA         24.2620   81.0700  -13.6870 C.3       9 GLL5        0.0000 
     27 CA         27.9030   80.3080  -16.0560 C.3       6 GLP5        0.0000 
     28 CA         24.4195   80.4615  -15.6870 C.3       3 GLC5        0.0000 
     29 CA         24.5770   79.8530  -17.6870 C.3       6 GLP5        0.0000 
     30 CA         27.0810   80.8885  -14.1495 C.3       3 GLC5        0.0000 
     31 CA         26.2590   81.4690  -12.2430 C.3       9 GLL5        0.0000 
     32 CA         30.4130   82.4690  -11.2350 C.3       3 GLC5        0.0000 
     33 CA         28.3680   81.9060  -10.9290 C.3       9 GLL5        0.0000 
     34 CA         32.4580   83.0320  -11.5410 C.3       6 GLP5        0.0000 
     35 NZ         32.1585   80.3405  -13.4745 N.4       2 LYC4        0.0000 
     36 NZ         30.7770   80.6120  -13.6150 N.4       8 LYL4        0.0000 
     37 NZ         33.9740   79.3070  -12.3300 N.4       5 LYP4        0.0000 
     38 N          32.1585   80.3405  -13.4745 N.am      1 SEC2        0.0000 
     39 N          30.7770   80.6120  -13.6150 N.am      7 SEL2        0.0000 
     40 N          33.5400   80.0690  -13.3340 N.am      4 SEP2        0.0000 
     41 N          30.3920   79.8330  -14.7640 N.am      1 SEC2        0.0000 
     42 N          30.0070   79.0540  -15.9130 N.am      4 SEP2        0.0000 
     43 NZ         28.9840   78.0375  -12.9760 N.4       2 LYC4        0.0000 
     44 NZ         28.6810   79.4220  -12.8440 N.4       8 LYL4        0.0000 
     45 NZ         29.8910   76.1440  -12.0510 N.4       5 LYP4        0.0000 
     46 N          28.9840   78.0375  -12.9760 N.am      1 SEC2        0.0000 
     47 N          28.6810   79.4220  -12.8440 N.am      7 SEL2        0.0000 
     48 N          29.2870   76.6530  -13.1080 N.am      4 SEP2        0.0000 
     49 N          29.4380   78.1810  -11.9345 N.am      1 SEC2        0.0000 
     50 N          30.1950   76.9400  -11.0250 N.am      4 SEP2        0.0000 
     51 N          27.9950   79.5780  -13.8750 N.am      1 SEC2        0.0000 
     52 N          27.3090   79.7340  -14.9060 N.am      4 SEP2        0.0000 
     53 NZ         30.3730   78.3920  -11.1560 N.4       2 LYC4        0.0000 
     54 NZ         30.5510   79.8440  -11.2870 N.4       8 LYL4        0.0000 
     55 NZ         31.8545   79.4380  -11.3125 N.4       2 LYC4        0.0000 
     56 NZ         30.8570   80.6265   -9.8150 N.4       2 LYC4        0.0000 
     57 NZ         30.7340   80.3020   -7.7560 N.4       5 LYP4        0.0000 
     58 N          30.3730   78.3920  -11.1560 N.am      1 SEC2        0.0000 
     59 N          30.5510   79.8440  -11.2870 N.am      7 SEL2        0.0000 
     60 N          31.8545   79.4380  -11.3125 N.am      1 SEC2        0.0000 
     61 N          33.1580   79.0320  -11.3380 N.am      4 SEP2        0.0000 
     62 N          30.8570   80.6265   -9.8150 N.am      1 SEC2        0.0000 
     63 N          31.1630   81.4090   -8.3430 N.am      4 SEP2        0.0000 
     64 N          30.4395   79.5650   -9.9000 N.am      1 SEC2        0.0000 
     65 N          30.3280   79.2860   -8.5130 N.am      4 SEP2        0.0000 
     66 CA         20.8442   81.3353  -10.6608 C.3       3 GLC5        0.0000 
     67 CA         20.5740   80.5990  -12.8520 C.3       9 GLL5        0.0000 
     68 CA         21.5240   82.3760   -8.9340 C.3       6 GLP5        0.0000 
     69 CA         18.4707   79.9273  -13.2497 C.3       3 GLC5        0.0000 
     70 CA         19.7550   79.9900  -11.9230 C.3       9 GLL5        0.0000 
     71 CA         16.7770   79.5600  -14.1120 C.3       6 GLP5        0.0000 
     72 CA         20.7035   80.6490   -9.6505 C.3       3 GLC5        0.0000 
     73 CA         20.3190   79.2360  -10.8940 C.3       9 GLL5        0.0000 
     74 CA         23.0230   79.3053   -8.8445 C.3       3 GLC5        0.0000 
     75 CA         21.7000   79.1050  -10.7740 C.3       9 GLL5        0.0000 
     76 CA         24.0410   80.0070   -7.3980 C.3       6 GLP5        0.0000 
     77 CA         21.7645   80.4898   -9.6125 C.3       3 GLC5        0.0000 
     78 CA         21.8813   81.2525  -10.5725 C.3       3 GLC5        0.0000 
     79 CA         22.5130   79.7450  -11.6870 C.3       9 GLL5        0.0000 
     80 CA         22.3271   78.3420  -13.1824 C.3       3 GLC5        0.0000 
     81 CA         22.6190   76.7150  -14.3820 C.3       6 GLP5        0.0000 
     82 CA         27.5370   83.6265   -9.7873 C.3       3 GLC5        0.0000 
     83 CA         26.9620   82.3880  -11.2320 C.3       9 GLL5        0.0000 
     84 CA         27.4090   85.1060   -8.4940 C.3       6 GLP5        0.0000 
@<TRIPOS>BOND
@<TRIPOS>SUBSTRUCTURE
     1 SEC2        1 GROUP        1 X    SEC  0     ROOT SEC X 2
     2 LYC4       35 GROUP        1 X    LYC  0     **** LYC X 4
     3 GLC5       15 GROUP        1 X    GLC  0     **** GLC X 6
     4 SEP2        3 GROUP        1 Y    SEP  0     ROOT SEP Y 9
     5 LYP4       37 GROUP        1 Y    LYP  0     **** LYP Y 11
     6 GLP5       17 GROUP        1 Y    GLP  0     **** GLP Y 13
     7 SEL2        2 GROUP        1 Z    SEL  0     ROOT SEL Z 16
     8 LYL4       36 GROUP        1 Z    LYL  0     **** LYL Z 18
     9 GLL5       16 GROUP        1 Z    GLL  0     **** GLL Z 20
@<TRIPOS>SET

