#    Name: 3e39_FMN_2_ligand
#    Modification time : Tue Mar 25 00:52:52 2014

@<TRIPOS>MOLECULE
3e39_FMN_2_ligand
   50    52     1     0     0
SMALL
NO_CHARGES


@<TRIPOS>ATOM
      1 N1         22.9710   82.5100  -15.6130 N.2       1 FMN200      0.0000 
      2 C2         22.3410   83.2020  -16.6200 C.2       1 FMN200      0.0000 
      3 O2         23.0290   83.7340  -17.4570 O.2       1 FMN200      0.0000 
      4 N3         20.9690   83.2730  -16.7190 N.am      1 FMN200      0.0000 
      5 C4         20.1510   82.6510  -15.8160 C.2       1 FMN200      0.0000 
      6 O4         18.9660   82.4780  -16.1060 O.2       1 FMN200      0.0000 
      7 C4A        20.7510   81.9570  -14.7830 C.2       1 FMN200      0.0000 
      8 N5         19.9720   81.3230  -13.8590 N.2       1 FMN200      0.0000 
      9 C5A        20.5740   80.5990  -12.8520 C.ar      1 FMN200      0.0000 
     10 C6         19.7550   79.9900  -11.9230 C.ar      1 FMN200      0.0000 
     11 C7         20.3190   79.2360  -10.8940 C.ar      1 FMN200      0.0000 
     12 C7M        19.4470   78.6080   -9.8400 C.3       1 FMN200      0.0000 
     13 C8         21.7000   79.1050  -10.7740 C.ar      1 FMN200      0.0000 
     14 C8M        22.3100   78.1020   -9.8080 C.3       1 FMN200      0.0000 
     15 C9         22.5130   79.7450  -11.6870 C.ar      1 FMN200      0.0000 
     16 C9A        21.9640   80.5130  -12.7350 C.ar      1 FMN200      0.0000 
     17 N10        22.7630   81.1590  -13.6970 N.pl3     1 FMN200      0.0000 
     18 C10        22.1620   81.8670  -14.6930 C.2       1 FMN200      0.0000 
     19 C1'        24.2620   81.0700  -13.6870 C.3       1 FMN200      0.0000 
     20 C2'        24.8360   81.9200  -12.5480 C.3       1 FMN200      0.0000 
     21 O2'        24.7420   83.2900  -12.8730 O.3       1 FMN200      0.0000 
     22 C3'        26.2590   81.4690  -12.2430 C.3       1 FMN200      0.0000 
     23 O3'        26.2990   80.1620  -11.7660 O.3       1 FMN200      0.0000 
     24 C4'        26.9620   82.3880  -11.2320 C.3       1 FMN200      0.0000 
     25 O4'        27.0700   83.6990  -11.7700 O.3       1 FMN200      0.0000 
     26 C5'        28.3680   81.9060  -10.9290 C.3       1 FMN200      0.0000 
     27 O5'        29.1290   81.7630  -12.1240 O.3       1 FMN200      0.0000 
     28 P          29.8100   80.3710  -12.4810 P.3       1 FMN200      0.0000 
     29 O1P        30.7770   80.6120  -13.6150 O.co2     1 FMN200      0.0000 
     30 O2P        28.6810   79.4220  -12.8440 O.co2     1 FMN200      0.0000 
     31 O3P        30.5510   79.8440  -11.2870 O.co2     1 FMN200      0.0000 
     32 H          20.5460   83.8170  -17.5056 H         1 FMN200      0.0000 
     33 H          18.7343   80.0875  -11.9833 H         1 FMN200      0.0000 
     34 H          23.5413   79.6687  -11.6133 H         1 FMN200      0.0000 
     35 H          24.6634   81.4328  -14.6317 H         1 FMN200      0.0000 
     36 H          24.5732   80.0366  -13.5443 H         1 FMN200      0.0000 
     37 H          24.2254   81.6877  -11.6584 H         1 FMN200      0.0000 
     38 H          26.8364   81.5511  -13.1838 H         1 FMN200      0.0000 
     39 H          26.3959   82.3884  -10.3186 H         1 FMN200      0.0000 
     40 H          28.2870   80.9504  -10.3836 H         1 FMN200      0.0000 
     41 H          28.8315   82.6304  -10.2379 H         1 FMN200      0.0000 
     42 H          19.9848   78.0989   -9.1680 H         1 FMN200      0.0000 
     43 H          18.9213   79.2934   -9.3361 H         1 FMN200      0.0000 
     44 H          18.7894   77.9669  -10.2357 H         1 FMN200      0.0000 
     45 H          23.3095   78.1248   -9.8310 H         1 FMN200      0.0000 
     46 H          22.0344   78.2810   -8.8636 H         1 FMN200      0.0000 
     47 H          22.0332   77.1651  -10.0215 H         1 FMN200      0.0000 
     48 H          25.5837   83.6981  -12.5195 H         1 FMN200      0.0000 
     49 H          27.1670   79.7921  -12.0974 H         1 FMN200      0.0000 
     50 H          27.9935   83.7472  -12.1506 H         1 FMN200      0.0000 
@<TRIPOS>BOND
     1    2    1 1    
     2   18    1 2    
     3    3    2 2    
     4    4    2 am   
     5    5    4 am   
     6   32    4 1    
     7    6    5 2    
     8    7    5 1    
     9    8    7 2    
    10   18    7 1    
    11    9    8 1    
    12   10    9 ar   
    13   16    9 ar   
    14   11   10 ar   
    15   33   10 1    
    16   12   11 1    
    17   13   11 ar   
    18   42   12 1    
    19   43   12 1    
    20   44   12 1    
    21   14   13 1    
    22   15   13 ar   
    23   45   14 1    
    24   46   14 1    
    25   47   14 1    
    26   16   15 ar   
    27   34   15 1    
    28   17   16 1    
    29   18   17 1    
    30   19   17 1    
    31   20   19 1    
    32   35   19 1    
    33   36   19 1    
    34   21   20 1    
    35   22   20 1    
    36   37   20 1    
    37   48   21 1    
    38   23   22 1    
    39   24   22 1    
    40   38   22 1    
    41   49   23 1    
    42   25   24 1    
    43   26   24 1    
    44   39   24 1    
    45   50   25 1    
    46   27   26 1    
    47   40   26 1    
    48   41   26 1    
    49   28   27 1    
    50   29   28 ar   
    51   30   28 ar   
    52   31   28 ar   
@<TRIPOS>SUBSTRUCTURE
     1 FMN200      1 GROUP   
@<TRIPOS>SET

