#    Name: 1z0d_GDP_1_INTS_M
#    Modification time : Mon Apr  7 16:20:19 2014

@<TRIPOS>MOLECULE
1z0d_GDP_1_INTS_M
   69     0    15     0     0
SMALL
NO_CHARGES


@<TRIPOS>ATOM
      1 NZ          6.4200   17.0185   51.7695 N.4       3 LYC4        0.0000 
      2 NZ          6.1440   16.1350   52.8040 N.4      13 LYL4        0.0000 
      3 NZ          6.6960   17.9020   50.7350 N.4       8 LYP4        0.0000 
      4 N           6.8810   15.6070   54.1065 N.am      2 SEC2        0.0000 
      5 N           6.1440   16.1350   52.8040 N.am     12 SEL2        0.0000 
      6 N           7.6180   15.0790   55.4090 N.am      7 SEP2        0.0000 
      7 N           5.9895   16.7195   54.1035 N.am      2 SEC2        0.0000 
      8 N           5.8350   17.3040   55.4030 N.am      7 SEP2        0.0000 
      9 N           6.4200   17.0185   51.7695 N.am      2 SEC2        0.0000 
     10 N           6.6960   17.9020   50.7350 N.am      7 SEP2        0.0000 
     11 Zn          2.7770   16.0585   52.2575 Zn        4 ZIC7        0.0000 
     12 Zn          3.6800   15.9610   52.8720 Zn       14 ZIL7        0.0000 
     13 Zn          1.8740   16.1560   51.6430 Zn        9 ZIP7        0.0000 
     14 N           3.3200   16.7840   54.0870 N.am      2 SEC2        0.0000 
     15 N           3.6800   15.9610   52.8720 N.am     12 SEL2        0.0000 
     16 N           2.9600   17.6070   55.3020 N.am      7 SEP2        0.0000 
     17 NZ          5.8335   16.2425   51.0110 N.4       3 LYC4        0.0000 
     18 NZ          4.9710   14.5830   51.2870 N.4      13 LYL4        0.0000 
     19 N           6.3050   14.0780   51.0755 N.am      2 SEC2        0.0000 
     20 N           4.9710   14.5830   51.2870 N.am     12 SEL2        0.0000 
     21 N           7.6390   13.5730   50.8640 N.am      7 SEP2        0.0000 
     22 N           6.3860   14.5735   54.6000 N.am      2 SEC2        0.0000 
     23 N           5.1540   14.0680   53.7910 N.am     12 SEL2        0.0000 
     24 N           2.8695   15.1820   56.6110 N.am      2 SEC2        0.0000 
     25 N           3.4050   14.2510   55.6900 N.am     12 SEL2        0.0000 
     26 N           2.3340   16.1130   57.5320 N.am      7 SEP2        0.0000 
     27 N           3.1840   13.7705   56.9470 N.am      2 SEC2        0.0000 
     28 N           2.9630   13.2900   58.2040 N.am      7 SEP2        0.0000 
     29 CA          6.5630   11.8755   53.2230 C.3       5 GLC5        0.0000 
     30 CA          5.4110   11.1410   54.4890 C.3      15 GLL5        0.0000 
     31 CA          7.7150   12.6100   51.9570 C.3      10 GLP5        0.0000 
     32 CA          2.4215   10.1845   55.6375 C.3       5 GLC5        0.0000 
     33 CA          4.4240    9.4060   56.0520 C.3      15 GLL5        0.0000 
     34 CA          0.4190   10.9630   55.2230 C.3      10 GLP5        0.0000 
     35 O           3.6605    7.1255   56.6535 O.2       1 ALC1        0.0000 
     36 O           4.4620    7.9760   56.0380 O.2      11 ALL1        0.0000 
     37 O           2.8590    6.2750   57.2690 O.2       6 ALP1        0.0000 
     38 CA          4.2500   10.4660   59.5475 C.3       5 GLC5        0.0000 
     39 CA          4.5420    9.9190   57.4750 C.3      15 GLL5        0.0000 
     40 CA          3.9580   11.0130   61.6200 C.3      10 GLP5        0.0000 
     41 O           2.6765    9.0475   58.9080 O.2       1 ALC1        0.0000 
     42 O           3.9320    9.0510   58.4470 O.2      11 ALL1        0.0000 
     43 O           1.4210    9.0440   59.3690 O.2       6 ALP1        0.0000 
     44 CA          7.9175   10.7770   57.3505 C.3       5 GLC5        0.0000 
     45 CA          6.0510    9.9810   57.6540 C.3      15 GLL5        0.0000 
     46 CA          9.7840   11.5730   57.0470 C.3      10 GLP5        0.0000 
     47 N           7.7325   14.2290   59.5300 N.am      2 SEC2        0.0000 
     48 N           6.7280   13.0310   59.5580 N.am     12 SEL2        0.0000 
     49 N           8.7370   15.4270   59.5020 N.am      7 SEP2        0.0000 
     50 CA          8.9940   12.2300   59.8015 C.3       5 GLC5        0.0000 
     51 CA          7.3020   12.1110   60.3590 C.3      15 GLL5        0.0000 
     52 CA         10.6860   12.3490   59.2440 C.3      10 GLP5        0.0000 
     53 CA          6.0565   13.5525   61.2400 C.3       5 GLC5        0.0000 
     54 CA          4.8110   14.9940   62.1210 C.3      10 GLP5        0.0000 
     55 N           7.4995   14.1710   62.9240 N.am      2 SEC2        0.0000 
     56 N           8.2380   13.1800   62.2440 N.am     12 SEL2        0.0000 
     57 N           6.7610   15.1620   63.6040 N.am      7 SEP2        0.0000 
     58 O           9.2620   11.0730   63.2145 O.2       1 ALC1        0.0000 
     59 O           8.4660   10.9450   62.1360 O.2      11 ALL1        0.0000 
     60 O          10.0580   11.2010   64.2930 O.2       6 ALP1        0.0000 
     61 O           9.1660    9.9900   63.3235 O.2       1 ALC1        0.0000 
     62 O           9.8660    9.0350   64.5110 O.2       6 ALP1        0.0000 
     63 O           9.2945    8.8340   63.2930 O.2       1 ALC1        0.0000 
     64 O           8.7230    8.6330   62.0750 O.2      11 ALL1        0.0000 
     65 CA          8.4515   11.1885   58.3850 C.3       5 GLC5        0.0000 
     66 CA          7.1190   10.8040   59.7230 C.3      15 GLL5        0.0000 
     67 CA          5.4200    7.9385   54.5900 C.3       5 GLC5        0.0000 
     68 CA          5.6780    9.9160   55.3520 C.3      15 GLL5        0.0000 
     69 CA          5.7890    6.2160   53.4780 C.3      10 GLP5        0.0000 
@<TRIPOS>BOND
@<TRIPOS>SUBSTRUCTURE
     1 ALC1       35 GROUP        1 X    ALC  0     ROOT ALC X 1
     2 SEC2        4 GROUP        1 X    SEC  0     **** SEC X 2
     3 LYC4        1 GROUP        1 X    LYC  0     **** LYC X 4
     4 ZIC7       11 GROUP        1 X    ZIC  0     **** ZIC X 5
     5 GLC5       29 GROUP        1 X    GLC  0     **** GLC X 6
     6 ALP1       37 GROUP        1 Y    ALP  0     ROOT ALP Y 8
     7 SEP2        6 GROUP        1 Y    SEP  0     **** SEP Y 9
     8 LYP4        3 GROUP        1 Y    LYP  0     **** LYP Y 11
     9 ZIP7       13 GROUP        1 Y    ZIP  0     **** ZIP Y 12
    10 GLP5       31 GROUP        1 Y    GLP  0     **** GLP Y 13
    11 ALL1       36 GROUP        1 Z    ALL  0     ROOT ALL Z 15
    12 SEL2        5 GROUP        1 Z    SEL  0     **** SEL Z 16
    13 LYL4        2 GROUP        1 Z    LYL  0     **** LYL Z 18
    14 ZIL7       12 GROUP        1 Z    ZIL  0     **** ZIL Z 19
    15 GLL5       30 GROUP        1 Z    GLL  0     **** GLL Z 20
@<TRIPOS>SET

