#    Name: 1z0d_GDP_1_ligand
#    Modification time : Mon Apr  7 16:20:19 2014

@<TRIPOS>MOLECULE
1z0d_GDP_1_ligand
   40    42     1     0     0
SMALL
NO_CHARGES


@<TRIPOS>ATOM
      1 PB          4.9690   15.2000   52.6700 P.3       1 GDP700      0.0000 
      2 O1B         6.1440   16.1350   52.8040 O.co2     1 GDP700      0.0000 
      3 O2B         3.6800   15.9610   52.8720 O.co2     1 GDP700      0.0000 
      4 O3B         4.9710   14.5830   51.2870 O.co2     1 GDP700      0.0000 
      5 O3A         5.1540   14.0680   53.7910 O.3       1 GDP700      0.0000 
      6 PA          3.9750   13.3530   54.6170 P.3       1 GDP700      0.0000 
      7 O1A         3.4050   14.2510   55.6900 O.co2     1 GDP700      0.0000 
      8 O2A         2.8940   12.8710   53.6790 O.co2     1 GDP700      0.0000 
      9 O5'         4.7770   12.1410   55.2860 O.3       1 GDP700      0.0000 
     10 C5'         5.4110   11.1410   54.4890 C.3       1 GDP700      0.0000 
     11 C4'         5.6780    9.9160   55.3520 C.3       1 GDP700      0.0000 
     12 O4'         6.6090   10.2730   56.3700 O.3       1 GDP700      0.0000 
     13 C3'         4.4240    9.4060   56.0520 C.3       1 GDP700      0.0000 
     14 O3'         4.4620    7.9760   56.0380 O.3       1 GDP700      0.0000 
     15 C2'         4.5420    9.9190   57.4750 C.3       1 GDP700      0.0000 
     16 O2'         3.9320    9.0510   58.4470 O.3       1 GDP700      0.0000 
     17 C1'         6.0510    9.9810   57.6540 C.3       1 GDP700      0.0000 
     18 N9          6.4480   11.0360   58.6050 N.pl3     1 GDP700      0.0000 
     19 C8          6.2200   12.3610   58.4950 C.2       1 GDP700      0.0000 
     20 N7          6.7280   13.0310   59.5580 N.2       1 GDP700      0.0000 
     21 C5          7.3020   12.1110   60.3590 C.2       1 GDP700      0.0000 
     22 C6          8.0340   12.1150   61.6420 C.2       1 GDP700      0.0000 
     23 O6          8.2380   13.1800   62.2440 O.2       1 GDP700      0.0000 
     24 N1          8.4660   10.9450   62.1360 N.am      1 GDP700      0.0000 
     25 C2          8.2620    9.7720   61.5080 C.2       1 GDP700      0.0000 
     26 N2          8.7230    8.6330   62.0750 N.pl3     1 GDP700      0.0000 
     27 N3          7.6060    9.6930   60.3240 N.2       1 GDP700      0.0000 
     28 C4          7.1190   10.8040   59.7230 C.2       1 GDP700      0.0000 
     29 H           6.3684   11.4870   54.0893 H         1 GDP700      0.0000 
     30 H           4.7818   10.8315   53.6497 H         1 GDP700      0.0000 
     31 H           6.0715    9.1302   54.7358 H         1 GDP700      0.0000 
     32 H           3.5828    9.8155   55.5922 H         1 GDP700      0.0000 
     33 H           4.1735   10.9180   57.4999 H         1 GDP700      0.0000 
     34 H           6.3881    9.0209   57.9993 H         1 GDP700      0.0000 
     35 H           5.7494   12.7865   57.7465 H         1 GDP700      0.0000 
     36 H           8.9902   10.9420   63.0595 H         1 GDP700      0.0000 
     37 H           9.1951    8.7371   62.9504 H         1 GDP700      0.0000 
     38 H           8.5507    7.7882   61.5684 H         1 GDP700      0.0000 
     39 H           4.0621    7.6980   56.9114 H         1 GDP700      0.0000 
     40 H           2.9898    9.3759   58.5288 H         1 GDP700      0.0000 
@<TRIPOS>BOND
     1    2    1 ar   
     2    3    1 ar   
     3    4    1 ar   
     4    5    1 1    
     5    6    5 1    
     6    7    6 ar   
     7    8    6 ar   
     8    9    6 1    
     9   10    9 1    
    10   11   10 1    
    11   29   10 1    
    12   30   10 1    
    13   12   11 1    
    14   13   11 1    
    15   31   11 1    
    16   17   12 1    
    17   14   13 1    
    18   15   13 1    
    19   32   13 1    
    20   39   14 1    
    21   16   15 1    
    22   17   15 1    
    23   33   15 1    
    24   40   16 1    
    25   18   17 1    
    26   34   17 1    
    27   19   18 1    
    28   28   18 1    
    29   20   19 2    
    30   35   19 1    
    31   21   20 1    
    32   22   21 1    
    33   28   21 2    
    34   23   22 2    
    35   24   22 am   
    36   25   24 1    
    37   36   24 1    
    38   26   25 1    
    39   27   25 2    
    40   37   26 1    
    41   38   26 1    
    42   28   27 1    
@<TRIPOS>SUBSTRUCTURE
     1 GDP700      1 GROUP   
@<TRIPOS>SET

