#    Name: 1egd_FAD_4_INTS_M
#    Modification time : Mon Mar 24 23:51:21 2014

@<TRIPOS>MOLECULE
1egd_FAD_4_INTS_M
  115     0    12     0     0
SMALL
NO_CHARGES


@<TRIPOS>ATOM
      1 N         159.7340   25.9925   78.3875 N.am      2 SEC2        0.0000 
      2 N         160.3200   27.5580   78.2900 N.am     10 SEL2        0.0000 
      3 N         159.1480   24.4270   78.4850 N.am      6 SEP2        0.0000 
      4 N         159.1800   27.1455   77.9760 N.am      2 SEC2        0.0000 
      5 N         158.0400   26.7330   77.6620 N.am      6 SEP2        0.0000 
      6 NZ        162.7815   28.1200   80.3000 N.4       3 LYC4        0.0000 
      7 NZ        161.8400   29.2910   79.4590 N.4      11 LYL4        0.0000 
      8 NZ        164.6920   27.8270   80.9180 N.4       7 LYP4        0.0000 
      9 N         163.1770   29.0370   79.7315 N.am      2 SEC2        0.0000 
     10 N         161.8400   29.2910   79.4590 N.am     10 SEL2        0.0000 
     11 N         164.5140   28.7830   80.0040 N.am      6 SEP2        0.0000 
     12 N         162.7815   28.1200   80.3000 N.am      2 SEC2        0.0000 
     13 N         163.7230   26.9490   81.1410 N.am      6 SEP2        0.0000 
     14 CA        159.0525   31.4755   80.7420 C.3       4 GLC5        0.0000 
     15 CA        159.9210   31.3150   78.7600 C.3      12 GLL5        0.0000 
     16 CA        158.1840   31.6360   82.7240 C.3       8 GLP5        0.0000 
     17 CA        156.0125   29.7590   78.1480 C.3       4 GLC5        0.0000 
     18 CA        157.2810   30.9900   77.0040 C.3      12 GLL5        0.0000 
     19 CA        154.7440   28.5280   79.2920 C.3       8 GLP5        0.0000 
     20 CA        155.7300   31.1940   75.4265 C.3       4 GLC5        0.0000 
     21 CA        154.1790   31.3980   73.8490 C.3       8 GLP5        0.0000 
     22 N         155.0165   30.1275   76.8615 N.am      2 SEC2        0.0000 
     23 N         155.9070   31.0300   76.6230 N.am     10 SEL2        0.0000 
     24 N         154.1260   29.2250   77.1000 N.am      6 SEP2        0.0000 
     25 N         154.8925   31.9125   76.4680 N.am      2 SEC2        0.0000 
     26 N         153.8780   32.7950   76.3130 N.am      6 SEP2        0.0000 
     27 CA        158.0210   33.4815   75.1470 C.3       4 GLC5        0.0000 
     28 CA        158.0750   31.7040   75.9090 C.3      12 GLL5        0.0000 
     29 CA        157.9670   35.2590   74.3850 C.3       8 GLP5        0.0000 
     30 CA        156.2230   32.2965   74.9445 C.3       4 GLC5        0.0000 
     31 CA        154.3710   32.8890   73.9800 C.3       8 GLP5        0.0000 
     32 CA        160.3560   30.5790   72.0300 C.3       4 GLC5        0.0000 
     33 CA        158.6440   29.8980   72.8460 C.3      12 GLL5        0.0000 
     34 CA        162.0680   31.2600   71.2140 C.3       8 GLP5        0.0000 
     35 CA        159.9420   30.7825   70.7875 C.3       4 GLC5        0.0000 
     36 CA        158.4990   29.9040   71.4590 C.3      12 GLL5        0.0000 
     37 CA        161.3850   31.6610   70.1160 C.3       8 GLP5        0.0000 
     38 CA        156.9305   28.9090   70.5210 C.3       4 GLC5        0.0000 
     39 CA        155.3620   27.9140   69.5830 C.3       8 GLP5        0.0000 
     40 N         157.2995   30.9535   69.6440 N.am      2 SEC2        0.0000 
     41 N         157.8450   30.8900   70.9160 N.am     10 SEL2        0.0000 
     42 N         156.7540   31.0170   68.3720 N.am      6 SEP2        0.0000 
     43 CA        158.9865   32.3740   70.7685 C.3       4 GLC5        0.0000 
     44 CA        157.3540   31.8250   71.6980 C.3      12 GLL5        0.0000 
     45 CA        160.6190   32.9230   69.8390 C.3       8 GLP5        0.0000 
     46 CA        156.5425   33.3640   70.7470 C.3       4 GLC5        0.0000 
     47 CA        155.7310   34.9030   69.7960 C.3       8 GLP5        0.0000 
     48 CA        158.2100   33.4530   72.5340 C.3       4 GLC5        0.0000 
     49 CA        159.0660   35.0810   73.3700 C.3       8 GLP5        0.0000 
     50 CA        155.7665   31.6115   72.7735 C.3       4 GLC5        0.0000 
     51 CA        158.5780   33.0075   73.4445 C.3       4 GLC5        0.0000 
     52 CA        158.0900   30.9340   73.5190 C.3      12 GLL5        0.0000 
     53 CA        156.1345   31.1660   73.6840 C.3       4 GLC5        0.0000 
     54 N         157.7475   17.4955   84.6540 N.am      2 SEC2        0.0000 
     55 N         156.8540   18.9320   84.4650 N.am     10 SEL2        0.0000 
     56 N         158.6410   16.0590   84.8430 N.am      6 SEP2        0.0000 
     57 N         158.1775   18.7675   84.0425 N.am      2 SEC2        0.0000 
     58 N         159.5010   18.6030   83.6200 N.am      6 SEP2        0.0000 
     59 O         155.8385   17.7015   86.5405 O.2       1 ALC1        0.0000 
     60 O         155.5930   19.1200   86.3020 O.2       9 ALL1        0.0000 
     61 O         156.0840   16.2830   86.7790 O.2       5 ALP1        0.0000 
     62 N         154.7950   19.4170   89.7335 N.am      2 SEC2        0.0000 
     63 N         154.4530   19.0950   88.2040 N.am     10 SEL2        0.0000 
     64 N         155.1370   19.7390   91.2630 N.am      6 SEP2        0.0000 
     65 N         153.5555   21.7185   89.5705 N.am      2 SEC2        0.0000 
     66 N         154.4000   22.0100   88.1950 N.am     10 SEL2        0.0000 
     67 N         152.7110   21.4270   90.9460 N.am      6 SEP2        0.0000 
     68 CA        153.1740   27.8185   89.2970 C.3       4 GLC5        0.0000 
     69 CA        154.1310   26.2690   90.5370 C.3      12 GLL5        0.0000 
     70 CA        152.2170   29.3680   88.0570 C.3       8 GLP5        0.0000 
     71 CA        157.0260   28.5430   87.0945 C.3       4 GLC5        0.0000 
     72 CA        155.6530   27.5840   88.3290 C.3      12 GLL5        0.0000 
     73 CA        158.3990   29.5020   85.8600 C.3       8 GLP5        0.0000 
     74 CA        154.8995   29.2565   89.3540 C.3       4 GLC5        0.0000 
     75 CA        154.1460   30.9290   90.3790 C.3       8 GLP5        0.0000 
     76 CA        157.5375   26.9375   89.3385 C.3       4 GLC5        0.0000 
     77 CA        159.4220   26.2910   90.3480 C.3       8 GLP5        0.0000 
     78 CA        157.6310   23.8235   86.6910 C.3       4 GLC5        0.0000 
     79 CA        156.6340   23.8320   84.9930 C.3      12 GLL5        0.0000 
     80 CA        158.6280   23.8150   88.3890 C.3       8 GLP5        0.0000 
     81 CA        154.0445   24.9650   84.5630 C.3       4 GLC5        0.0000 
     82 CA        155.8860   24.6000   83.9130 C.3      12 GLL5        0.0000 
     83 CA        152.2030   25.3300   85.2130 C.3       8 GLP5        0.0000 
     84 CA        158.5300   24.5255   81.7940 C.3       4 GLC5        0.0000 
     85 CA        156.8860   25.3390   83.0190 C.3      12 GLL5        0.0000 
     86 CA        160.1740   23.7120   80.5690 C.3       8 GLP5        0.0000 
     87 CA        158.7050   25.2345   80.7800 C.3       4 GLC5        0.0000 
     88 CA        157.2360   26.7570   80.9910 C.3      12 GLL5        0.0000 
     89 N         158.8545   28.9195   83.6585 N.am      2 SEC2        0.0000 
     90 N         159.2830   27.8400   82.8220 N.am     10 SEL2        0.0000 
     91 N         158.4260   29.9990   84.4950 N.am      6 SEP2        0.0000 
     92 NZ        162.3625   26.8095   81.2860 N.4       3 LYC4        0.0000 
     93 NZ        161.0020   26.6700   81.4310 N.4      11 LYL4        0.0000 
     94 N         162.3625   26.8095   81.2860 N.am      2 SEC2        0.0000 
     95 N         161.0020   26.6700   81.4310 N.am     10 SEL2        0.0000 
     96 CA        161.0838   32.8503   77.7515 C.3       4 GLC5        0.0000 
     97 CA        162.6930   33.9020   77.1300 C.3       8 GLP5        0.0000 
     98 CA        158.5185   34.0810   78.8133 C.3       4 GLC5        0.0000 
     99 CA        159.0280   32.2820   77.9860 C.3      12 GLL5        0.0000 
    100 CA        158.7570   36.0470   79.5450 C.3       8 GLP5        0.0000 
    101 CA        153.5745   24.5053   86.3860 C.3       4 GLC5        0.0000 
    102 CA        155.2810   24.0070   87.0460 C.3      12 GLL5        0.0000 
    103 CA        155.5977   24.9020   91.1418 C.3       4 GLC5        0.0000 
    104 CA        154.2360   24.1330   89.1700 C.3      12 GLL5        0.0000 
    105 CA        156.9390   24.2680   92.4040 C.3       8 GLP5        0.0000 
    106 CA        153.8272   28.1073   88.1658 C.3       4 GLC5        0.0000 
    107 CA        155.2220   26.1090   88.2200 C.3      12 GLL5        0.0000 
    108 CA        153.7968   25.5350   86.4487 C.3       4 GLC5        0.0000 
    109 CA        157.4445   23.0237   83.2585 C.3       4 GLC5        0.0000 
    110 CA        158.3160   21.2700   82.7810 C.3       8 GLP5        0.0000 
    111 CA        155.7860   27.8195   82.3328 C.3       4 GLC5        0.0000 
    112 CA        156.2620   25.8190   81.7120 C.3      12 GLL5        0.0000 
    113 CA        154.8230   29.3510   83.3140 C.3       8 GLP5        0.0000 
    114 CA        155.7465   27.4080   80.3218 C.3       4 GLC5        0.0000 
    115 CA        156.8747   24.3113   88.0740 C.3       4 GLC5        0.0000 
@<TRIPOS>BOND
@<TRIPOS>SUBSTRUCTURE
     1 ALC1       59 GROUP        1 X    ALC  0     ROOT ALC X 1
     2 SEC2        1 GROUP        1 X    SEC  0     **** SEC X 2
     3 LYC4        6 GROUP        1 X    LYC  0     **** LYC X 4
     4 GLC5       14 GROUP        1 X    GLC  0     **** GLC X 6
     5 ALP1       61 GROUP        1 Y    ALP  0     ROOT ALP Y 8
     6 SEP2        3 GROUP        1 Y    SEP  0     **** SEP Y 9
     7 LYP4        8 GROUP        1 Y    LYP  0     **** LYP Y 11
     8 GLP5       16 GROUP        1 Y    GLP  0     **** GLP Y 13
     9 ALL1       60 GROUP        1 Z    ALL  0     ROOT ALL Z 15
    10 SEL2        2 GROUP        1 Z    SEL  0     **** SEL Z 16
    11 LYL4        7 GROUP        1 Z    LYL  0     **** LYL Z 18
    12 GLL5       15 GROUP        1 Z    GLL  0     **** GLL Z 20
@<TRIPOS>SET

