#    Name: 1egd_FAD_4_ligand
#    Modification time : Mon Mar 24 23:51:21 2014

@<TRIPOS>MOLECULE
1egd_FAD_4_ligand
   84    89     1     0     0
SMALL
NO_CHARGES


@<TRIPOS>ATOM
      1 PA        160.5200   28.7620   79.1380 P.3       1 FAD399      0.0000 
      2 O1A       160.3200   27.5580   78.2900 O.co2     1 FAD399      0.0000 
      3 O2A       161.8400   29.2910   79.4590 O.co2     1 FAD399      0.0000 
      4 O5B       159.8400   29.9500   78.3280 O.3       1 FAD399      0.0000 
      5 C5B       159.9210   31.3150   78.7600 C.3       1 FAD399      0.0000 
      6 C4B       159.0280   32.2820   77.9860 C.3       1 FAD399      0.0000 
      7 O4B       159.2890   32.1080   76.5890 O.3       1 FAD399      0.0000 
      8 C3B       157.5320   31.9480   78.1770 C.3       1 FAD399      0.0000 
      9 O3B       156.6980   33.0460   77.8870 O.3       1 FAD399      0.0000 
     10 C2B       157.2810   30.9900   77.0040 C.3       1 FAD399      0.0000 
     11 O2B       155.9070   31.0300   76.6230 O.3       1 FAD399      0.0000 
     12 C1B       158.0750   31.7040   75.9090 C.3       1 FAD399      0.0000 
     13 N9A       158.3770   30.7510   74.8310 N.pl3     1 FAD399      0.0000 
     14 C8A       159.0950   29.5780   74.8930 C.2       1 FAD399      0.0000 
     15 N7A       159.2940   29.0190   73.7350 N.2       1 FAD399      0.0000 
     16 C5A       158.6440   29.8980   72.8460 C.ar      1 FAD399      0.0000 
     17 C6A       158.4990   29.9040   71.4590 C.ar      1 FAD399      0.0000 
     18 N6A       158.9990   28.9960   70.6340 N.pl3     1 FAD399      0.0000 
     19 N1A       157.8450   30.8900   70.9160 N.ar      1 FAD399      0.0000 
     20 C2A       157.3540   31.8250   71.6980 C.ar      1 FAD399      0.0000 
     21 N3A       157.4120   31.9570   73.0070 N.ar      1 FAD399      0.0000 
     22 C4A       158.0900   30.9340   73.5190 C.ar      1 FAD399      0.0000 
     23 N1        156.2520   21.0050   85.1350 N.2       1 FAD399      0.0000 
     24 C2        156.2440   19.6600   85.2440 C.2       1 FAD399      0.0000 
     25 O2        156.8540   18.9320   84.4650 O.2       1 FAD399      0.0000 
     26 N3        155.5930   19.1200   86.3020 N.am      1 FAD399      0.0000 
     27 C4        154.9250   19.8050   87.3050 C.2       1 FAD399      0.0000 
     28 O4        154.4530   19.0950   88.2040 O.2       1 FAD399      0.0000 
     29 C4X       154.9520   21.2710   87.1720 C.2       1 FAD399      0.0000 
     30 N5        154.4000   22.0100   88.1950 N.2       1 FAD399      0.0000 
     31 C5X       154.6110   23.3540   88.0720 C.ar      1 FAD399      0.0000 
     32 C6        154.2360   24.1330   89.1700 C.ar      1 FAD399      0.0000 
     33 C7        154.5280   25.4730   89.2740 C.ar      1 FAD399      0.0000 
     34 C7M       154.1310   26.2690   90.5370 C.3       1 FAD399      0.0000 
     35 C8        155.2220   26.1090   88.2200 C.ar      1 FAD399      0.0000 
     36 C8M       155.6530   27.5840   88.3290 C.3       1 FAD399      0.0000 
     37 C9        155.5590   25.3710   87.1490 C.ar      1 FAD399      0.0000 
     38 C9A       155.2810   24.0070   87.0460 C.ar      1 FAD399      0.0000 
     39 N10       155.8040   23.1960   86.0090 N.pl3     1 FAD399      0.0000 
     40 C10       155.6420   21.7640   86.0730 C.2       1 FAD399      0.0000 
     41 C1'       156.6340   23.8320   84.9930 C.3       1 FAD399      0.0000 
     42 C2'       155.8860   24.6000   83.9130 C.3       1 FAD399      0.0000 
     43 O2'       155.1300   23.6730   83.1800 O.3       1 FAD399      0.0000 
     44 C3'       156.8860   25.3390   83.0190 C.3       1 FAD399      0.0000 
     45 O3'       157.3610   26.4880   83.7180 O.3       1 FAD399      0.0000 
     46 C4'       156.2620   25.8190   81.7120 C.3       1 FAD399      0.0000 
     47 O4'       155.9250   24.6930   80.9100 O.3       1 FAD399      0.0000 
     48 C5'       157.2360   26.7570   80.9910 C.3       1 FAD399      0.0000 
     49 O5'       158.6140   26.3950   80.9580 O.3       1 FAD399      0.0000 
     50 P         159.7390   27.3800   81.5260 P.3       1 FAD399      0.0000 
     51 O1P       159.2830   27.8400   82.8220 O.co2     1 FAD399      0.0000 
     52 O2P       161.0020   26.6700   81.4310 O.co2     1 FAD399      0.0000 
     53 O3P       159.7930   28.6340   80.5510 O.3       1 FAD399      0.0000 
     54 H         160.9674   31.6966   78.6850 H         1 FAD399      0.0000 
     55 H         159.6548   31.4090   79.8401 H         1 FAD399      0.0000 
     56 H         159.2029   33.2725   78.2982 H         1 FAD399      0.0000 
     57 H         157.3712   31.4585   79.0491 H         1 FAD399      0.0000 
     58 H         157.6851   30.0814   77.1908 H         1 FAD399      0.0000 
     59 H         157.5228   32.5286   75.5784 H         1 FAD399      0.0000 
     60 H         159.4195   29.2177   75.7743 H         1 FAD399      0.0000 
     61 H         159.4824   28.2320   71.0613 H         1 FAD399      0.0000 
     62 H         158.8477   29.1568   69.6587 H         1 FAD399      0.0000 
     63 H         156.7960   32.6419   71.1664 H         1 FAD399      0.0000 
     64 H         155.5869   18.0399   86.3836 H         1 FAD399      0.0000 
     65 H         153.7064   23.6645   89.9479 H         1 FAD399      0.0000 
     66 H         156.0584   25.8241   86.3353 H         1 FAD399      0.0000 
     67 H         157.2753   23.0686   84.4849 H         1 FAD399      0.0000 
     68 H         157.3581   24.5377   85.4723 H         1 FAD399      0.0000 
     69 H         155.2636   25.3314   84.4030 H         1 FAD399      0.0000 
     70 H         157.6987   24.6728   82.7867 H         1 FAD399      0.0000 
     71 H         155.3765   26.3959   81.9692 H         1 FAD399      0.0000 
     72 H         157.1015   27.7810   81.4546 H         1 FAD399      0.0000 
     73 H         156.8331   26.8973   79.9423 H         1 FAD399      0.0000 
     74 H         154.5569   25.8950   91.3608 H         1 FAD399      0.0000 
     75 H         154.4073   27.2280   90.4737 H         1 FAD399      0.0000 
     76 H         153.1424   26.2581   90.6874 H         1 FAD399      0.0000 
     77 H         156.2676   27.7351   89.1033 H         1 FAD399      0.0000 
     78 H         156.1343   27.8919   87.5083 H         1 FAD399      0.0000 
     79 H         154.8688   28.1918   88.4543 H         1 FAD399      0.0000 
     80 H         156.0294   32.6967   77.2305 H         1 FAD399      0.0000 
     81 H         155.8779   30.6106   75.7156 H         1 FAD399      0.0000 
     82 H         155.3075   23.8949   82.2212 H         1 FAD399      0.0000 
     83 H         158.1264   26.8259   83.1703 H         1 FAD399      0.0000 
     84 H         156.8018   24.2857   80.6545 H         1 FAD399      0.0000 
@<TRIPOS>BOND
     1    2    1 ar   
     2    3    1 ar   
     3    4    1 1    
     4   53    1 1    
     5    5    4 1    
     6    6    5 1    
     7   54    5 1    
     8   55    5 1    
     9    7    6 1    
    10    8    6 1    
    11   56    6 1    
    12   12    7 1    
    13    9    8 1    
    14   10    8 1    
    15   57    8 1    
    16   80    9 1    
    17   11   10 1    
    18   12   10 1    
    19   58   10 1    
    20   81   11 1    
    21   13   12 1    
    22   59   12 1    
    23   14   13 1    
    24   22   13 1    
    25   15   14 2    
    26   60   14 1    
    27   16   15 1    
    28   17   16 ar   
    29   22   16 ar   
    30   18   17 1    
    31   19   17 ar   
    32   61   18 1    
    33   62   18 1    
    34   20   19 ar   
    35   21   20 ar   
    36   63   20 1    
    37   22   21 ar   
    38   24   23 1    
    39   40   23 2    
    40   25   24 2    
    41   26   24 am   
    42   27   26 am   
    43   64   26 1    
    44   28   27 2    
    45   29   27 1    
    46   30   29 2    
    47   40   29 1    
    48   31   30 1    
    49   32   31 ar   
    50   38   31 ar   
    51   33   32 ar   
    52   65   32 1    
    53   34   33 1    
    54   35   33 ar   
    55   74   34 1    
    56   75   34 1    
    57   76   34 1    
    58   36   35 1    
    59   37   35 ar   
    60   77   36 1    
    61   78   36 1    
    62   79   36 1    
    63   38   37 ar   
    64   66   37 1    
    65   39   38 1    
    66   40   39 1    
    67   41   39 1    
    68   42   41 1    
    69   67   41 1    
    70   68   41 1    
    71   43   42 1    
    72   44   42 1    
    73   69   42 1    
    74   82   43 1    
    75   45   44 1    
    76   46   44 1    
    77   70   44 1    
    78   83   45 1    
    79   47   46 1    
    80   48   46 1    
    81   71   46 1    
    82   84   47 1    
    83   49   48 1    
    84   72   48 1    
    85   73   48 1    
    86   50   49 1    
    87   51   50 ar   
    88   52   50 ar   
    89   53   50 1    
@<TRIPOS>SUBSTRUCTURE
     1 FAD399      1 GROUP   
@<TRIPOS>SET

