#    Name: 4h4c_10D_1_INTS_M
#    Modification time : Tue Mar 25 00:18:28 2014

@<TRIPOS>MOLECULE
4h4c_10D_1_INTS_M
   52     0     6     0     0
SMALL
NO_CHARGES


@<TRIPOS>ATOM
      1 N         -23.6325    1.3840  -15.7300 N.am      1 SEC2        0.0000 
      2 N         -24.9550    0.8480  -15.8360 N.am      5 SEL2        0.0000 
      3 N         -22.3100    1.9200  -15.6240 N.am      3 SEP2        0.0000 
      4 N         -24.1900   -0.0975  -15.0560 N.am      1 SEC2        0.0000 
      5 N         -23.4250   -1.0430  -14.2760 N.am      3 SEP2        0.0000 
      6 N         -26.1870    0.1580  -19.1870 N.am      1 SEC2        0.0000 
      7 N         -25.6580    0.9660  -18.2660 N.am      5 SEL2        0.0000 
      8 N         -26.7160   -0.6500  -20.1080 N.am      3 SEP2        0.0000 
      9 N         -26.3940    2.0680  -18.6515 N.am      1 SEC2        0.0000 
     10 N         -27.1300    3.1700  -19.0370 N.am      3 SEP2        0.0000 
     11 N         -24.3380    1.3100  -18.3380 N.am      1 SEC2        0.0000 
     12 N         -23.0180    1.6540  -18.4100 N.am      3 SEP2        0.0000 
     13 N         -27.3725    2.7905  -16.0340 N.am      1 SEC2        0.0000 
     14 N         -27.1430    1.5830  -16.2940 N.am      5 SEL2        0.0000 
     15 N         -27.6020    3.9980  -15.7740 N.am      3 SEP2        0.0000 
     16 N         -28.0845   -1.1825  -17.5140 N.am      1 SEC2        0.0000 
     17 N         -26.6920   -0.7500  -16.7560 N.am      5 SEL2        0.0000 
     18 N         -29.4770   -1.6150  -18.2720 N.am      3 SEP2        0.0000 
     19 N         -27.1495   -3.8270  -17.9550 N.am      1 SEC2        0.0000 
     20 N         -27.2980   -3.0530  -16.9160 N.am      5 SEL2        0.0000 
     21 N         -27.0010   -4.6010  -18.9940 N.am      3 SEP2        0.0000 
     22 N         -28.3875   -2.3340  -17.5940 N.am      1 SEC2        0.0000 
     23 N         -24.1880   -3.5995  -16.5910 N.am      1 SEC2        0.0000 
     24 N         -24.6750   -2.3490  -16.7850 N.am      5 SEL2        0.0000 
     25 N         -23.7010   -4.8500  -16.3970 N.am      3 SEP2        0.0000 
     26 N         -23.5120   -1.9465  -16.9395 N.am      1 SEC2        0.0000 
     27 N         -22.3490   -1.5440  -17.0940 N.am      3 SEP2        0.0000 
     28 CA        -25.3970   -2.9295  -12.4575 C.3       2 GLC5        0.0000 
     29 CA        -27.0000   -2.5890  -13.9100 C.3       6 GLL5        0.0000 
     30 CA        -23.7940   -3.2700  -11.0050 C.3       4 GLP5        0.0000 
     31 CA        -25.9245   -4.0570  -14.8245 C.3       2 GLC5        0.0000 
     32 CA        -24.8490   -5.5250  -15.7390 C.3       4 GLP5        0.0000 
     33 CA        -29.0445   -1.0765  -15.9465 C.3       2 GLC5        0.0000 
     34 CA        -28.0940   -1.7060  -14.0720 C.3       6 GLL5        0.0000 
     35 CA        -29.9950   -0.4470  -17.8210 C.3       4 GLP5        0.0000 
     36 CA        -24.5335    0.3780  -13.0750 C.3       2 GLC5        0.0000 
     37 CA        -26.5610   -0.2760  -12.8110 C.3       6 GLL5        0.0000 
     38 CA        -22.5060    1.0320  -13.3390 C.3       4 GLP5        0.0000 
     39 CA        -25.1775   -1.7730  -11.9080 C.3       2 GLC5        0.0000 
     40 CA        -27.4980    1.5075  -13.4170 C.3       2 GLC5        0.0000 
     41 CA        -29.1870    0.2580  -13.6400 C.3       6 GLL5        0.0000 
     42 CA        -25.8090    2.7570  -13.1940 C.3       4 GLP5        0.0000 
     43 CA        -31.2525   -2.1765  -14.3690 C.3       2 GLC5        0.0000 
     44 CA        -30.2210   -0.6900  -13.8590 C.3       6 GLL5        0.0000 
     45 CA        -32.2840   -3.6630  -14.8790 C.3       4 GLP5        0.0000 
     46 CA        -31.6340   -0.9635  -12.1750 C.3       2 GLC5        0.0000 
     47 CA        -33.0470   -1.2370  -10.4910 C.3       4 GLP5        0.0000 
     48 CA        -27.5755   -3.7908  -13.3380 C.3       2 GLC5        0.0000 
     49 CA        -27.6040   -5.4340  -12.6850 C.3       4 GLP5        0.0000 
     50 CA        -26.5188    1.1695  -13.1867 C.3       2 GLC5        0.0000 
     51 CA        -27.8960   -0.5600  -13.5480 C.3       6 GLL5        0.0000 
     52 CA        -29.8495   -0.3315  -15.7853 C.3       2 GLC5        0.0000 
@<TRIPOS>BOND
@<TRIPOS>SUBSTRUCTURE
     1 SEC2        1 GROUP        1 X    SEC  0     ROOT SEC X 2
     2 GLC5       28 GROUP        1 X    GLC  0     **** GLC X 6
     3 SEP2        3 GROUP        1 Y    SEP  0     ROOT SEP Y 9
     4 GLP5       30 GROUP        1 Y    GLP  0     **** GLP Y 13
     5 SEL2        2 GROUP        1 Z    SEL  0     ROOT SEL Z 16
     6 GLL5       29 GROUP        1 Z    GLL  0     **** GLL Z 20
@<TRIPOS>SET

