#    Name: 4h4c_10D_1_ligand
#    Modification time : Tue Mar 25 00:18:28 2014

@<TRIPOS>MOLECULE
4h4c_10D_1_ligand
   23    22     1     0     0
SMALL
NO_CHARGES


@<TRIPOS>ATOM
      1 O14       -24.9550    0.8480  -15.8360 O.co2     1 10D402      0.0000 
      2 P10       -26.0310    0.7010  -16.7960 P.3       1 10D402      0.0000 
      3 O11       -25.6580    0.9660  -18.2660 O.co2     1 10D402      0.0000 
      4 O15       -27.1430    1.5830  -16.2940 O.co2     1 10D402      0.0000 
      5 O9        -26.6920   -0.7500  -16.7560 O.3       1 10D402      0.0000 
      6 P8        -26.1800   -2.2000  -16.3630 P.3       1 10D402      0.0000 
      7 O12       -27.2980   -3.0530  -16.9160 O.co2     1 10D402      0.0000 
      8 O13       -24.6750   -2.3490  -16.7850 O.co2     1 10D402      0.0000 
      9 O7        -26.1010   -2.2020  -14.8330 O.3       1 10D402      0.0000 
     10 C6        -27.0000   -2.5890  -13.9100 C.3       1 10D402      0.0000 
     11 C5        -28.0940   -1.7060  -14.0720 C.2       1 10D402      0.0000 
     12 C3        -27.8960   -0.5600  -13.5480 C.2       1 10D402      0.0000 
     13 C4        -26.5610   -0.2760  -12.8110 C.3       1 10D402      0.0000 
     14 C1        -29.1870    0.2580  -13.6400 C.3       1 10D402      0.0000 
     15 F2        -30.2210   -0.6900  -13.8590 F         1 10D402      0.0000 
     16 H         -26.6114   -2.5125  -12.8841 H         1 10D402      0.0000 
     17 H         -27.3362   -3.6257  -14.0569 H         1 10D402      0.0000 
     18 H         -28.9086   -2.0193  -14.5604 H         1 10D402      0.0000 
     19 H         -29.0828    0.9520  -14.4606 H         1 10D402      0.0000 
     20 H         -29.3080    0.7934  -12.7101 H         1 10D402      0.0000 
     21 H         -25.7725   -0.3813  -13.4170 H         1 10D402      0.0000 
     22 H         -26.5285    0.6548  -12.4468 H         1 10D402      0.0000 
     23 H         -26.4230   -0.8975  -12.0398 H         1 10D402      0.0000 
@<TRIPOS>BOND
     1    2    1 ar   
     2    3    2 ar   
     3    4    2 ar   
     4    5    2 1    
     5    6    5 1    
     6    7    6 ar   
     7    8    6 ar   
     8    9    6 1    
     9   10    9 1    
    10   11   10 1    
    11   16   10 1    
    12   17   10 1    
    13   12   11 2    
    14   18   11 1    
    15   13   12 1    
    16   14   12 1    
    17   21   13 1    
    18   22   13 1    
    19   23   13 1    
    20   15   14 1    
    21   19   14 1    
    22   20   14 1    
@<TRIPOS>SUBSTRUCTURE
     1 10D402      1 GROUP   
@<TRIPOS>SET

