#    Name: 1hqt_NAP_1_INTS_M
#    Modification time : Tue Mar 25 05:42:04 2014

@<TRIPOS>MOLECULE
1hqt_NAP_1_INTS_M
  120     0    12     0     0
SMALL
NO_CHARGES


@<TRIPOS>ATOM
      1 N          38.2665   21.2735   78.6595 N.am      2 SEC2        0.0000 
      2 N          39.0870   20.3870   77.7920 N.am     10 SEL2        0.0000 
      3 N          37.4460   22.1600   79.5270 N.am      6 SEP2        0.0000 
      4 N          42.1075   18.7485   76.9180 N.am      2 SEC2        0.0000 
      5 N          40.7470   18.8650   76.6320 N.am     10 SEL2        0.0000 
      6 N          43.4680   18.6320   77.2040 N.am      6 SEP2        0.0000 
      7 N          40.7255   17.6505   75.6675 N.am      2 SEC2        0.0000 
      8 N          40.7040   16.4360   74.7030 N.am      6 SEP2        0.0000 
      9 CA         35.4345   18.8845   78.3350 C.3       4 GLC5        0.0000 
     10 CA         37.2580   17.8520   77.9020 C.3      12 GLL5        0.0000 
     11 CA         33.6110   19.9170   78.7680 C.3       8 GLP5        0.0000 
     12 N          38.2840   14.8910   78.8980 N.am      2 SEC2        0.0000 
     13 N          37.8210   16.0980   79.3970 N.am     10 SEL2        0.0000 
     14 N          38.7470   13.6840   78.3990 N.am      6 SEP2        0.0000 
     15 CA         39.0360   16.7180   80.5985 C.3       4 GLC5        0.0000 
     16 CA         37.0640   15.7360   80.5570 C.3      12 GLL5        0.0000 
     17 CA         41.0080   17.7000   80.6400 C.3       8 GLP5        0.0000 
     18 CA         37.6060   14.3950   78.9180 C.3       4 GLC5        0.0000 
     19 CA         38.1480   13.0540   77.2790 C.3       8 GLP5        0.0000 
     20 N          38.7500   19.1795   83.8385 N.am      2 SEC2        0.0000 
     21 N          38.5500   17.8340   83.2240 N.am     10 SEL2        0.0000 
     22 N          38.9500   20.5250   84.4530 N.am      6 SEP2        0.0000 
     23 O          40.7185   18.3805   85.3220 O.2       1 ALC1        0.0000 
     24 O          40.5740   17.0070   85.2980 O.2       9 ALL1        0.0000 
     25 O          40.8630   19.7540   85.3460 O.2       5 ALP1        0.0000 
     26 CA         41.6975   15.3215   83.5570 C.3       4 GLC5        0.0000 
     27 CA         40.0170   14.0410   83.4000 C.3      12 GLL5        0.0000 
     28 CA         43.3780   16.6020   83.7140 C.3       8 GLP5        0.0000 
     29 CA         38.3725   14.7675   84.4500 C.3       4 GLC5        0.0000 
     30 CA         36.7280   15.4940   85.5000 C.3       8 GLP5        0.0000 
     31 N          38.6450   19.8320   72.8295 N.am      2 SEC2        0.0000 
     32 N          37.5040   19.8680   73.3930 N.am     10 SEL2        0.0000 
     33 N          39.7860   19.7960   72.2660 N.am      6 SEP2        0.0000 
     34 N          39.6060   21.9290   74.4330 N.am      2 SEC2        0.0000 
     35 N          38.2310   21.8720   74.8450 N.am     10 SEL2        0.0000 
     36 N          40.9810   21.9860   74.0210 N.am      6 SEP2        0.0000 
     37 CA         39.5920   21.6535   74.9925 C.3       4 GLC5        0.0000 
     38 CA         37.9300   22.7570   75.9340 C.3      12 GLL5        0.0000 
     39 CA         41.2540   20.5500   74.0510 C.3       8 GLP5        0.0000 
     40 CA         40.0345   22.2550   76.2540 C.3       4 GLC5        0.0000 
     41 CA         42.1390   21.7530   76.5740 C.3       8 GLP5        0.0000 
     42 CA         38.7685   22.9510   77.9540 C.3       4 GLC5        0.0000 
     43 CA         39.6070   23.1450   79.9740 C.3       8 GLP5        0.0000 
     44 CA         38.7310   24.3975   73.9995 C.3       4 GLC5        0.0000 
     45 CA         37.2050   24.0440   75.4990 C.3      12 GLL5        0.0000 
     46 CA         40.2570   24.7510   72.5000 C.3       8 GLP5        0.0000 
     47 N          33.6155   23.6470   75.7735 N.am      2 SEC2        0.0000 
     48 N          34.8270   23.6290   76.1420 N.am     10 SEL2        0.0000 
     49 N          32.4040   23.6650   75.4050 N.am      6 SEP2        0.0000 
     50 CA         33.9090   25.7365   73.5275 C.3       4 GLC5        0.0000 
     51 CA         35.4670   25.1200   74.3190 C.3      12 GLL5        0.0000 
     52 CA         32.3510   26.3530   72.7360 C.3       8 GLP5        0.0000 
     53 N          34.2750   25.8070   76.2595 N.am      2 SEC2        0.0000 
     54 N          35.1890   26.2430   75.1400 N.am     10 SEL2        0.0000 
     55 N          33.3610   25.3710   77.3790 N.am      6 SEP2        0.0000 
     56 O          35.4490   27.5300   74.7655 O.2       1 ALC1        0.0000 
     57 O          35.1890   26.2430   75.1400 O.2       9 ALL1        0.0000 
     58 O          35.7090   28.8170   74.3910 O.2       5 ALP1        0.0000 
     59 CA         34.8690   25.4775   72.5920 C.3       4 GLC5        0.0000 
     60 CA         36.8310   25.2760   73.5450 C.3      12 GLL5        0.0000 
     61 CA         32.9070   25.6790   71.6390 C.3       8 GLP5        0.0000 
     62 CA         38.5440   25.0135   73.0225 C.3       4 GLC5        0.0000 
     63 N          38.0230   26.2100   66.2465 N.am      2 SEC2        0.0000 
     64 N          37.3060   25.9820   67.5230 N.am     10 SEL2        0.0000 
     65 N          38.7400   26.4380   64.9700 N.am      6 SEP2        0.0000 
     66 O          38.1995   28.2570   67.8290 O.2       1 ALC1        0.0000 
     67 O          37.6760   27.5680   69.0070 O.2       9 ALL1        0.0000 
     68 O          38.7230   28.9460   66.6510 O.2       5 ALP1        0.0000 
     69 O          38.2250   27.8615   70.5340 O.2       1 ALC1        0.0000 
     70 O          38.7740   28.1550   72.0610 O.2       5 ALP1        0.0000 
     71 CA         38.3350   24.1025   72.1300 C.3       4 GLC5        0.0000 
     72 CA         36.4130   23.4540   71.7600 C.3      12 GLL5        0.0000 
     73 NZ         32.4375   17.7625   80.2435 N.4       3 LYC4        0.0000 
     74 NZ         33.0220   17.3460   81.3180 N.4      11 LYL4        0.0000 
     75 NZ         31.8530   18.1790   79.1690 N.4       7 LYP4        0.0000 
     76 N          32.4375   17.7625   80.2435 N.am      2 SEC2        0.0000 
     77 N          33.0220   17.3460   81.3180 N.am     10 SEL2        0.0000 
     78 N          31.8530   18.1790   79.1690 N.am      6 SEP2        0.0000 
     79 N          32.5265   18.4255   82.3005 N.am      2 SEC2        0.0000 
     80 N          32.0310   19.5050   83.2830 N.am      6 SEP2        0.0000 
     81 N          32.6515   15.2480   83.5860 N.am      2 SEC2        0.0000 
     82 N          32.6960   14.9760   82.0070 N.am     10 SEL2        0.0000 
     83 N          32.6070   15.5200   85.1650 N.am      6 SEP2        0.0000 
     84 NZ         35.1385   15.0980   83.2790 N.4       3 LYC4        0.0000 
     85 NZ         34.3280   16.3630   83.1990 N.4      11 LYL4        0.0000 
     86 NZ         36.5950   13.2980   84.3860 N.4       7 LYP4        0.0000 
     87 N          34.5910   17.6000   83.7765 N.am      2 SEC2        0.0000 
     88 N          34.3280   16.3630   83.1990 N.am     10 SEL2        0.0000 
     89 N          34.8540   18.8370   84.3540 N.am      6 SEP2        0.0000 
     90 N          33.4675   15.9415   84.1820 N.am      2 SEC2        0.0000 
     91 N          35.1385   15.0980   83.2790 N.am      2 SEC2        0.0000 
     92 N          35.9490   13.8330   83.3590 N.am      6 SEP2        0.0000 
     93 CA         38.1750   16.7520   76.3303 C.3       4 GLC5        0.0000 
     94 CA         36.9420   16.4340   78.3190 C.3      12 GLL5        0.0000 
     95 CA         39.2500   16.3610   74.5500 C.3       8 GLP5        0.0000 
     96 CA         37.1958   14.6997   77.9177 C.3       4 GLC5        0.0000 
     97 CA         34.6095   18.0998   79.1573 C.3       4 GLC5        0.0000 
     98 CA         35.5450   16.2570   78.7940 C.3      12 GLL5        0.0000 
     99 CA         41.4995   16.5038   83.8123 C.3       4 GLC5        0.0000 
    100 CA         39.1490   16.6220   83.4360 C.3      12 GLL5        0.0000 
    101 CA         40.0885   16.8736   81.9306 C.3       4 GLC5        0.0000 
    102 CA         37.9485   15.7706   84.3606 C.3       4 GLC5        0.0000 
    103 CA         38.7170   15.6890   82.5320 C.3      12 GLL5        0.0000 
    104 CA         36.5757   24.5338   77.0227 C.3       4 GLC5        0.0000 
    105 CA         35.5840   25.6670   78.3290 C.3       8 GLP5        0.0000 
    106 CA         38.5632   25.1142   76.0053 C.3       4 GLC5        0.0000 
    107 CA         39.5590   26.8280   76.2940 C.3       8 GLP5        0.0000 
    108 CA         35.5983   25.0753   76.5135 C.3       4 GLC5        0.0000 
    109 CA         35.7580   23.8470   75.0770 C.3      12 GLL5        0.0000 
    110 CA         34.4158   23.5418   74.0090 C.3       4 GLC5        0.0000 
    111 CA         33.2190   22.6000   73.3200 C.3       8 GLP5        0.0000 
    112 CA         36.0159   22.6674   76.8504 C.3       4 GLC5        0.0000 
    113 CA         35.3690   21.7110   78.3040 C.3       8 GLP5        0.0000 
    114 CA         37.5210   26.3810   74.5445 C.3       4 GLC5        0.0000 
    115 CA         38.8930   27.5640   75.1570 C.3       8 GLP5        0.0000 
    116 CA         36.6205   27.6085   70.4560 C.3       4 GLC5        0.0000 
    117 CA         37.0670   25.7500   71.1770 C.3      12 GLL5        0.0000 
    118 CA         36.1970   29.6670   70.4260 C.3       8 GLP5        0.0000 
    119 CA         38.6505   25.1505   71.4930 C.3       4 GLC5        0.0000 
    120 CA         34.8058   22.9352   72.2065 C.3       4 GLC5        0.0000 
@<TRIPOS>BOND
@<TRIPOS>SUBSTRUCTURE
     1 ALC1       23 GROUP        1 X    ALC  0     ROOT ALC X 1
     2 SEC2        1 GROUP        1 X    SEC  0     **** SEC X 2
     3 LYC4       73 GROUP        1 X    LYC  0     **** LYC X 4
     4 GLC5        9 GROUP        1 X    GLC  0     **** GLC X 6
     5 ALP1       25 GROUP        1 Y    ALP  0     ROOT ALP Y 8
     6 SEP2        3 GROUP        1 Y    SEP  0     **** SEP Y 9
     7 LYP4       75 GROUP        1 Y    LYP  0     **** LYP Y 11
     8 GLP5       11 GROUP        1 Y    GLP  0     **** GLP Y 13
     9 ALL1       24 GROUP        1 Z    ALL  0     ROOT ALL Z 15
    10 SEL2        2 GROUP        1 Z    SEL  0     **** SEL Z 16
    11 LYL4       74 GROUP        1 Z    LYL  0     **** LYL Z 18
    12 GLL5       10 GROUP        1 Z    GLL  0     **** GLL Z 20
@<TRIPOS>SET

