#    Name: 1hqt_NAP_1_ligand
#    Modification time : Tue Mar 25 05:42:04 2014

@<TRIPOS>MOLECULE
1hqt_NAP_1_ligand
   73    77     1     0     0
SMALL
NO_CHARGES


@<TRIPOS>ATOM
      1 PA         39.3330   19.2550   76.9380 P.3       1 NAP350      0.0000 
      2 O1A        39.0870   20.3870   77.7920 O.co2     1 NAP350      0.0000 
      3 O2A        40.7470   18.8650   76.6320 O.co2     1 NAP350      0.0000 
      4 O5B        38.6300   17.8900   77.4870 O.3       1 NAP350      0.0000 
      5 C5B        37.2580   17.8520   77.9020 C.3       1 NAP350      0.0000 
      6 C4B        36.9420   16.4340   78.3190 C.3       1 NAP350      0.0000 
      7 O4B        37.8210   16.0980   79.3970 O.3       1 NAP350      0.0000 
      8 C3B        35.5450   16.2570   78.7940 C.3       1 NAP350      0.0000 
      9 O3B        34.9980   14.9800   78.3690 O.3       1 NAP350      0.0000 
     10 C2B        35.6710   16.3080   80.2990 C.3       1 NAP350      0.0000 
     11 O2B        34.7230   15.4920   80.9980 O.3       1 NAP350      0.0000 
     12 C1B        37.0640   15.7360   80.5570 C.3       1 NAP350      0.0000 
     13 N9A        37.8100   16.3370   81.7140 N.pl3     1 NAP350      0.0000 
     14 C8A        37.7660   17.6390   82.2050 C.2       1 NAP350      0.0000 
     15 N7A        38.5500   17.8340   83.2240 N.2       1 NAP350      0.0000 
     16 C5A        39.1490   16.6220   83.4360 C.ar      1 NAP350      0.0000 
     17 C6A        40.0930   16.1890   84.3850 C.ar      1 NAP350      0.0000 
     18 N6A        40.5740   17.0070   85.2980 N.pl3     1 NAP350      0.0000 
     19 N1A        40.5090   14.8850   84.3400 N.ar      1 NAP350      0.0000 
     20 C2A        40.0170   14.0410   83.4000 C.ar      1 NAP350      0.0000 
     21 N3A        39.1180   14.3660   82.4590 N.ar      1 NAP350      0.0000 
     22 C4A        38.7170   15.6890   82.5320 C.ar      1 NAP350      0.0000 
     23 O3         38.5400   19.3580   75.5370 O.3       1 NAP350      0.0000 
     24 PN         37.6050   20.3940   74.7560 P.3       1 NAP350      0.0000 
     25 O1N        37.5040   19.8680   73.3930 O.co2     1 NAP350      0.0000 
     26 O2N        36.3360   20.4450   75.5710 O.co2     1 NAP350      0.0000 
     27 O5D        38.2310   21.8720   74.8450 O.3       1 NAP350      0.0000 
     28 C5D        37.9300   22.7570   75.9340 C.3       1 NAP350      0.0000 
     29 C4D        37.2050   24.0440   75.4990 C.3       1 NAP350      0.0000 
     30 O4D        37.8130   24.5570   74.3130 O.3       1 NAP350      0.0000 
     31 C3D        35.7580   23.8470   75.0770 C.3       1 NAP350      0.0000 
     32 O3D        34.8270   23.6290   76.1420 O.3       1 NAP350      0.0000 
     33 C2D        35.4670   25.1200   74.3190 C.3       1 NAP350      0.0000 
     34 O2D        35.1890   26.2430   75.1400 O.3       1 NAP350      0.0000 
     35 C1D        36.8310   25.2760   73.5450 C.3       1 NAP350      0.0000 
     36 N1N        36.7560   24.7720   72.1460 N.pl3     1 NAP350      0.0000 
     37 C2N        37.0670   25.7500   71.1770 C.ar      1 NAP350      0.0000 
     38 C3N        37.0210   25.3500   69.7950 C.ar      1 NAP350      0.0000 
     39 C7N        37.3350   26.3000   68.7220 C.2       1 NAP350      0.0000 
     40 O7N        37.3060   25.9820   67.5230 O.2       1 NAP350      0.0000 
     41 N7N        37.6760   27.5680   69.0070 N.am      1 NAP350      0.0000 
     42 C4N        36.6680   24.0170   69.4840 C.ar      1 NAP350      0.0000 
     43 C5N        36.3720   23.0870   70.4260 C.ar      1 NAP350      0.0000 
     44 C6N        36.4130   23.4540   71.7600 C.ar      1 NAP350      0.0000 
     45 P2B        33.5990   16.1270   81.9410 P.3       1 NAP350      0.0000 
     46 O1X        33.0220   17.3460   81.3180 O.co2     1 NAP350      0.0000 
     47 O2X        32.6960   14.9760   82.0070 O.co2     1 NAP350      0.0000 
     48 O3X        34.3280   16.3630   83.1990 O.co2     1 NAP350      0.0000 
     49 H          36.5863   18.1305   77.0915 H         1 NAP350      0.0000 
     50 H          37.0779   18.5091   78.7514 H         1 NAP350      0.0000 
     51 H          37.1254   15.7786   77.4805 H         1 NAP350      0.0000 
     52 H          34.9559   17.0806   78.4772 H         1 NAP350      0.0000 
     53 H          35.6800   17.3185   80.6196 H         1 NAP350      0.0000 
     54 H          37.0116   14.6837   80.6451 H         1 NAP350      0.0000 
     55 H          37.1726   18.3235   81.7812 H         1 NAP350      0.0000 
     56 H          40.8055   16.5954   86.1794 H         1 NAP350      0.0000 
     57 H          40.6639   17.9652   85.0267 H         1 NAP350      0.0000 
     58 H          40.3821   13.0255   83.4147 H         1 NAP350      0.0000 
     59 H          38.8520   23.0655   76.4701 H         1 NAP350      0.0000 
     60 H          37.2892   22.2603   76.6925 H         1 NAP350      0.0000 
     61 H          37.2423   24.7680   76.2796 H         1 NAP350      0.0000 
     62 H          35.7489   23.0435   74.3421 H         1 NAP350      0.0000 
     63 H          34.7373   24.9061   73.5757 H         1 NAP350      0.0000 
     64 H          37.0602   26.3359   73.5500 H         1 NAP350      0.0000 
     65 H          37.3106   26.6850   71.4266 H         1 NAP350      0.0000 
     66 H          37.9102   28.1468   68.2259 H         1 NAP350      0.0000 
     67 H          37.6651   27.8197   69.9748 H         1 NAP350      0.0000 
     68 H          36.6401   23.7564   68.4639 H         1 NAP350      0.0000 
     69 H          36.1208   22.1258   70.1676 H         1 NAP350      0.0000 
     70 H          36.1918   22.7642   72.4967 H         1 NAP350      0.0000 
     71 H          34.7130   14.5267   79.2136 H         1 NAP350      0.0000 
     72 H          35.1822   24.1628   76.9094 H         1 NAP350      0.0000 
     73 H          35.4556   27.0361   74.5924 H         1 NAP350      0.0000 
@<TRIPOS>BOND
     1    2    1 ar   
     2    3    1 ar   
     3    4    1 1    
     4   23    1 1    
     5    5    4 1    
     6    6    5 1    
     7   49    5 1    
     8   50    5 1    
     9    7    6 1    
    10    8    6 1    
    11   51    6 1    
    12   12    7 1    
    13    9    8 1    
    14   10    8 1    
    15   52    8 1    
    16   71    9 1    
    17   11   10 1    
    18   12   10 1    
    19   53   10 1    
    20   45   11 1    
    21   13   12 1    
    22   54   12 1    
    23   14   13 1    
    24   22   13 1    
    25   15   14 2    
    26   55   14 1    
    27   16   15 1    
    28   17   16 ar   
    29   22   16 ar   
    30   18   17 1    
    31   19   17 ar   
    32   56   18 1    
    33   57   18 1    
    34   20   19 ar   
    35   21   20 ar   
    36   58   20 1    
    37   22   21 ar   
    38   24   23 1    
    39   25   24 ar   
    40   26   24 ar   
    41   27   24 1    
    42   28   27 1    
    43   29   28 1    
    44   59   28 1    
    45   60   28 1    
    46   30   29 1    
    47   31   29 1    
    48   61   29 1    
    49   35   30 1    
    50   32   31 1    
    51   33   31 1    
    52   62   31 1    
    53   72   32 1    
    54   34   33 1    
    55   35   33 1    
    56   63   33 1    
    57   73   34 1    
    58   36   35 1    
    59   64   35 1    
    60   37   36 ar   
    61   44   36 ar   
    62   38   37 ar   
    63   65   37 1    
    64   39   38 1    
    65   42   38 ar   
    66   40   39 2    
    67   41   39 am   
    68   66   41 1    
    69   67   41 1    
    70   43   42 ar   
    71   68   42 1    
    72   44   43 ar   
    73   69   43 1    
    74   70   44 1    
    75   46   45 ar   
    76   47   45 ar   
    77   48   45 ar   
@<TRIPOS>SUBSTRUCTURE
     1 NAP350      1 GROUP   
@<TRIPOS>SET

