#    Name: 2qab_EI1_1_INTS_M
#    Modification time : Mon Mar 24 21:39:42 2014

@<TRIPOS>MOLECULE
2qab_EI1_1_INTS_M
   55     0     9     0     0
SMALL
NO_CHARGES


@<TRIPOS>ATOM
      1 CA         14.6180   -0.8945   33.8780 C.3       3 GLC5        0.0000 
      2 CA         15.3240    0.8430   34.5750 C.3       9 GLL5        0.0000 
      3 CA         13.9120   -2.6320   33.1810 C.3       6 GLP5        0.0000 
      4 CA         14.3495    0.6945   32.8910 C.3       3 GLC5        0.0000 
      5 CA         13.3750    0.5460   31.2070 C.3       6 GLP5        0.0000 
      6 CA         16.9920   -0.2585   33.8825 C.3       3 GLC5        0.0000 
      7 CA         18.6600   -1.3600   33.1900 C.3       6 GLP5        0.0000 
      8 CA         18.8490    1.8225   34.0045 C.3       3 GLC5        0.0000 
      9 CA         17.5110    3.4980   33.4980 C.3       9 GLL5        0.0000 
     10 CA         20.1870    0.1470   34.5110 C.3       6 GLP5        0.0000 
     11 CA         18.7470    6.2115   33.2670 C.3       3 GLC5        0.0000 
     12 CA         18.3480    4.2070   32.6390 C.3       9 GLL5        0.0000 
     13 CA         19.1460    8.2160   33.8950 C.3       6 GLP5        0.0000 
     14 CA         19.2550    2.2440   32.3175 C.3       3 GLC5        0.0000 
     15 CA         20.1620    0.2810   31.9960 C.3       6 GLP5        0.0000 
     16 O          20.5420    4.7475   31.9715 O.2       1 ALC1        0.0000 
     17 O          19.6660    3.8570   32.5510 O.2       7 ALL1        0.0000 
     18 O          21.4180    5.6380   31.3920 O.2       4 ALP1        0.0000 
     19 CA         18.3620    5.9090   29.8755 C.3       3 GLC5        0.0000 
     20 CA         17.8290    5.2630   31.8800 C.3       9 GLL5        0.0000 
     21 CA         18.8950    6.5550   27.8710 C.3       6 GLP5        0.0000 
     22 CA         19.8280    5.4300   30.9775 C.3       3 GLC5        0.0000 
     23 CA         21.8270    5.5970   30.0750 C.3       6 GLP5        0.0000 
     24 CA         16.2645    6.5570   30.0095 C.3       3 GLC5        0.0000 
     25 CA         16.4760    5.6110   31.9830 C.3       9 GLL5        0.0000 
     26 CA         16.0530    7.5030   28.0360 C.3       6 GLP5        0.0000 
     27 CA         10.6730    4.4650   37.9925 C.3       3 GLC5        0.0000 
     28 CA         11.2170    3.7090   36.2970 C.3       9 GLL5        0.0000 
     29 CA         10.1290    5.2210   39.6880 C.3       6 GLP5        0.0000 
     30 N           7.8275    4.6205   36.0455 N.am      2 SEC2        0.0000 
     31 N           8.9890    3.7140   35.7670 N.am      8 SEL2        0.0000 
     32 N           6.6660    5.5270   36.3240 N.am      5 SEP2        0.0000 
     33 O           8.8440    2.9395   36.7275 O.2       1 ALC1        0.0000 
     34 O           8.9890    3.7140   35.7670 O.2       7 ALL1        0.0000 
     35 O           8.6990    2.1650   37.6880 O.2       4 ALP1        0.0000 
     36 CA          9.0870    5.3815   33.3400 C.3       3 GLC5        0.0000 
     37 CA         10.4160    3.9940   34.0430 C.3       9 GLL5        0.0000 
     38 CA          7.7580    6.7690   32.6370 C.3       6 GLP5        0.0000 
     39 CA         10.8540    5.9715   33.0235 C.3       3 GLC5        0.0000 
     40 CA         11.7190    4.1010   33.5880 C.3       9 GLL5        0.0000 
     41 CA          9.9890    7.8420   32.4590 C.3       6 GLP5        0.0000 
     42 CA         14.1800    0.8273   36.1813 C.3       3 GLC5        0.0000 
     43 CA         15.1980    2.1720   35.3160 C.3       9 GLL5        0.0000 
     44 CA         13.0990    0.1470   37.4170 C.3       6 GLP5        0.0000 
     45 CA         15.6493    4.2030   36.4055 C.3       3 GLC5        0.0000 
     46 CA         16.1460    5.6450   37.9880 C.3       6 GLP5        0.0000 
     47 CA         19.1101    4.6054   33.9791 C.3       3 GLC5        0.0000 
     48 CA         20.3410    4.6530   35.4840 C.3       6 GLP5        0.0000 
     49 CA         17.7462    7.1890   32.1992 C.3       3 GLC5        0.0000 
     50 CA         18.3400    8.9410   32.4670 C.3       6 GLP5        0.0000 
     51 CA         12.4865    1.9537   36.7422 C.3       3 GLC5        0.0000 
     52 CA         12.5310    3.8120   35.8380 C.3       9 GLL5        0.0000 
     53 CA         10.1764    2.2949   33.5489 C.3       3 GLC5        0.0000 
     54 CA         10.1570    3.7990   35.3920 C.3       9 GLL5        0.0000 
     55 CA          9.3500    0.5910   32.9450 C.3       6 GLP5        0.0000 
@<TRIPOS>BOND
@<TRIPOS>SUBSTRUCTURE
     1 ALC1       16 GROUP        1 X    ALC  0     ROOT ALC X 1
     2 SEC2       30 GROUP        1 X    SEC  0     **** SEC X 2
     3 GLC5        1 GROUP        1 X    GLC  0     **** GLC X 6
     4 ALP1       18 GROUP        1 Y    ALP  0     ROOT ALP Y 8
     5 SEP2       32 GROUP        1 Y    SEP  0     **** SEP Y 9
     6 GLP5        3 GROUP        1 Y    GLP  0     **** GLP Y 13
     7 ALL1       17 GROUP        1 Z    ALL  0     ROOT ALL Z 15
     8 SEL2       31 GROUP        1 Z    SEL  0     **** SEL Z 16
     9 GLL5        2 GROUP        1 Z    GLL  0     **** GLL Z 20
@<TRIPOS>SET

