#    Name: 2qab_EI1_1_ligand
#    Modification time : Mon Mar 24 21:39:42 2014

@<TRIPOS>MOLECULE
2qab_EI1_1_ligand
   33    35     1     0     0
SMALL
NO_CHARGES


@<TRIPOS>ATOM
      1 CAA        15.3240    0.8430   34.5750 C.3       1 EI11        0.0000 
      2 CAK        15.1980    2.1720   35.3160 C.3       1 EI11        0.0000 
      3 CAP        15.1070    3.3500   34.3300 C.2       1 EI11        0.0000 
      4 CAR        16.1660    3.8440   33.5910 C.ar      1 EI11        0.0000 
      5 CAJ        17.5110    3.4980   33.4980 C.ar      1 EI11        0.0000 
      6 CAN        18.3480    4.2070   32.6390 C.ar      1 EI11        0.0000 
      7 OAC        19.6660    3.8570   32.5510 O.3       1 EI11        0.0000 
      8 CAH        17.8290    5.2630   31.8800 C.ar      1 EI11        0.0000 
      9 CAI        16.4760    5.6110   31.9830 C.ar      1 EI11        0.0000 
     10 CAQ        15.6460    4.8940   32.8480 C.ar      1 EI11        0.0000 
     11 NAL        14.3490    4.9780   33.1580 N.2       1 EI11        0.0000 
     12 NAS        14.0450    4.1080   33.9950 N.pl3     1 EI11        0.0000 
     13 CAO        12.7900    3.9930   34.4760 C.ar      1 EI11        0.0000 
     14 CAF        12.5310    3.8120   35.8380 C.ar      1 EI11        0.0000 
     15 CAD        11.2170    3.7090   36.2970 C.ar      1 EI11        0.0000 
     16 CAM        10.1570    3.7990   35.3920 C.ar      1 EI11        0.0000 
     17 OAB         8.9890    3.7140   35.7670 O.3       1 EI11        0.0000 
     18 CAE        10.4160    3.9940   34.0430 C.ar      1 EI11        0.0000 
     19 CAG        11.7190    4.1010   33.5880 C.ar      1 EI11        0.0000 
     20 H          16.0670    2.3134   35.9567 H         1 EI11        0.0000 
     21 H          14.3019    2.1585   35.9345 H         1 EI11        0.0000 
     22 H          17.8846    2.7251   34.0587 H         1 EI11        0.0000 
     23 H          18.4437    5.7857   31.2439 H         1 EI11        0.0000 
     24 H          16.1010    6.3834   31.4291 H         1 EI11        0.0000 
     25 H          13.3127    3.7547   36.5034 H         1 EI11        0.0000 
     26 H          11.0300    3.5678   37.2947 H         1 EI11        0.0000 
     27 H           9.6309    4.0595   33.3753 H         1 EI11        0.0000 
     28 H          11.9048    4.2618   32.5858 H         1 EI11        0.0000 
     29 H          16.1431    0.8134   34.0021 H         1 EI11        0.0000 
     30 H          15.3798    0.0696   35.2064 H         1 EI11        0.0000 
     31 H          14.5410    0.6762   33.9757 H         1 EI11        0.0000 
     32 H          20.0963    4.5972   32.0344 H         1 EI11        0.0000 
     33 H           8.9079    2.7957   36.1545 H         1 EI11        0.0000 
@<TRIPOS>BOND
     1    2    1 1    
     2   29    1 1    
     3   30    1 1    
     4   31    1 1    
     5    3    2 1    
     6   20    2 1    
     7   21    2 1    
     8    4    3 2    
     9   12    3 1    
    10    5    4 ar   
    11   10    4 ar   
    12    6    5 ar   
    13   22    5 1    
    14    7    6 1    
    15    8    6 ar   
    16   32    7 1    
    17    9    8 ar   
    18   23    8 1    
    19   10    9 ar   
    20   24    9 1    
    21   11   10 2    
    22   12   11 1    
    23   13   12 1    
    24   14   13 ar   
    25   19   13 ar   
    26   15   14 ar   
    27   25   14 1    
    28   16   15 ar   
    29   26   15 1    
    30   17   16 1    
    31   18   16 ar   
    32   33   17 1    
    33   19   18 ar   
    34   27   18 1    
    35   28   19 1    
@<TRIPOS>SUBSTRUCTURE
     1 EI11        1 GROUP   
@<TRIPOS>SET

