#    Name: 2h7n_744_1_INTS_M
#    Modification time : Tue Mar 25 15:42:44 2014

@<TRIPOS>MOLECULE
2h7n_744_1_INTS_M
   71     0     6     0     0
SMALL
NO_CHARGES


@<TRIPOS>ATOM
      1 CA         44.1610   53.6755   56.0065 C.3       2 GLC5        0.0000 
      2 CA         44.2660   53.3180   58.1860 C.3       6 GLL5        0.0000 
      3 CA         44.0560   54.0330   53.8270 C.3       4 GLP5        0.0000 
      4 CA         46.0185   52.7700   57.3465 C.3       2 GLC5        0.0000 
      5 CA         47.7710   52.2220   56.5070 C.3       4 GLP5        0.0000 
      6 CA         39.4730   54.3635   59.8445 C.3       2 GLC5        0.0000 
      7 CA         41.2500   53.6150   58.9660 C.3       6 GLL5        0.0000 
      8 CA         37.6960   55.1120   60.7230 C.3       4 GLP5        0.0000 
      9 CA         39.5195   53.9620   57.7465 C.3       2 GLC5        0.0000 
     10 CA         37.7890   54.3090   56.5270 C.3       4 GLP5        0.0000 
     11 CA         40.4980   54.9675   56.8335 C.3       2 GLC5        0.0000 
     12 CA         42.0100   54.8150   58.2430 C.3       6 GLL5        0.0000 
     13 CA         38.9860   55.1200   55.4240 C.3       4 GLP5        0.0000 
     14 N          38.3775   50.8540   56.7110 N.am      1 SEC2        0.0000 
     15 N          39.7320   50.8910   56.9900 N.am      5 SEL2        0.0000 
     16 N          37.0230   50.8170   56.4320 N.am      3 SEP2        0.0000 
     17 N          40.6080   50.6735   56.1550 N.am      1 SEC2        0.0000 
     18 N          41.4840   50.4560   55.3200 N.am      3 SEP2        0.0000 
     19 CA         34.8740   48.2790   60.3930 C.3       2 GLC5        0.0000 
     20 CA         35.2450   49.1210   61.7880 C.3       6 GLL5        0.0000 
     21 CA         34.5030   47.4370   58.9980 C.3       4 GLP5        0.0000 
     22 CA         33.4300   49.2055   60.9295 C.3       2 GLC5        0.0000 
     23 CA         31.6150   49.2900   60.0710 C.3       4 GLP5        0.0000 
     24 CA         35.3630   50.8205   60.5310 C.3       2 GLC5        0.0000 
     25 CA         35.4810   52.5200   59.2740 C.3       4 GLP5        0.0000 
     26 CA         32.9765   50.2255   61.5530 C.3       2 GLC5        0.0000 
     27 CA         34.3380   51.1610   63.0350 C.3       6 GLL5        0.0000 
     28 CA         32.8500   49.9580   64.0920 C.3       2 GLC5        0.0000 
     29 CA         31.3620   48.7550   65.1490 C.3       4 GLP5        0.0000 
     30 CA         35.3785   56.6160   64.9005 C.3       2 GLC5        0.0000 
     31 CA         36.0880   54.6980   64.3250 C.3       6 GLL5        0.0000 
     32 CA         34.6690   58.5340   65.4760 C.3       4 GLP5        0.0000 
     33 CA         34.4090   54.8310   64.6950 C.3       2 GLC5        0.0000 
     34 CA         32.7300   54.9640   65.0650 C.3       4 GLP5        0.0000 
     35 CA         37.2700   54.4905   65.8245 C.3       2 GLC5        0.0000 
     36 CA         38.4520   54.2830   67.3240 C.3       4 GLP5        0.0000 
     37 CA         37.4870   56.3095   64.6890 C.3       2 GLC5        0.0000 
     38 CA         38.8860   57.9210   65.0530 C.3       4 GLP5        0.0000 
     39 CA         42.6055   50.9745   57.0037 C.3       2 GLC5        0.0000 
     40 CA         41.7890   52.3370   58.3140 C.3       6 GLL5        0.0000 
     41 CA         42.6410   49.7040   55.5890 C.3       4 GLP5        0.0000 
     42 CA         43.1110   56.0240   56.9778 C.3       2 GLC5        0.0000 
     43 CA         43.4050   57.2640   55.6830 C.3       4 GLP5        0.0000 
     44 CA         37.8525   51.1427   59.0763 C.3       2 GLC5        0.0000 
     45 CA         39.0370   50.3400   59.0660 C.3       6 GLL5        0.0000 
     46 CA         36.4420   52.0070   58.4190 C.3       4 GLP5        0.0000 
     47 CA         40.4810   50.4862   62.0942 C.3       2 GLC5        0.0000 
     48 CA         39.4890   50.2170   60.4010 C.3       6 GLL5        0.0000 
     49 CA         40.6930   50.5780   63.8000 C.3       4 GLP5        0.0000 
     50 CA         40.7535   48.6196   59.3594 C.3       2 GLC5        0.0000 
     51 CA         41.0490   50.5720   60.3760 C.3       6 GLL5        0.0000 
     52 CA         41.3510   46.8140   58.6640 C.3       4 GLP5        0.0000 
     53 CA         37.2617   53.4428   61.6990 C.3       2 GLC5        0.0000 
     54 CA         36.7510   51.1100   62.3660 C.3       6 GLL5        0.0000 
     55 CA         38.0793   50.7767   63.6760 C.3       2 GLC5        0.0000 
     56 CA         36.9040   52.4370   62.9840 C.3       6 GLL5        0.0000 
     57 CA         39.3310   49.7800   64.6770 C.3       4 GLP5        0.0000 
     58 CA         36.7873   51.7897   64.6195 C.3       2 GLC5        0.0000 
     59 CA         36.7470   51.8060   66.5640 C.3       4 GLP5        0.0000 
     60 CA         33.9900   51.8615   61.3337 C.3       2 GLC5        0.0000 
     61 CA         35.4580   50.4790   62.4000 C.3       6 GLL5        0.0000 
     62 CA         33.0820   52.9030   59.9500 C.3       4 GLP5        0.0000 
     63 CA         33.9497   53.8798   64.3425 C.3       2 GLC5        0.0000 
     64 CA         34.5220   52.4790   63.6340 C.3       6 GLL5        0.0000 
     65 CA         34.2993   53.5172   62.1145 C.3       2 GLC5        0.0000 
     66 CA         33.4290   54.2390   60.6090 C.3       4 GLP5        0.0000 
     67 CA         35.0615   51.4047   64.9859 C.3       2 GLC5        0.0000 
     68 CA         35.4130   51.1600   66.7960 C.3       4 GLP5        0.0000 
     69 CA         36.8242   54.5085   62.3443 C.3       2 GLC5        0.0000 
     70 CA         35.8170   53.1120   63.6060 C.3       6 GLL5        0.0000 
     71 CA         36.3498   52.8555   65.2647 C.3       2 GLC5        0.0000 
@<TRIPOS>BOND
@<TRIPOS>SUBSTRUCTURE
     1 SEC2       14 GROUP        1 X    SEC  0     ROOT SEC X 2
     2 GLC5        1 GROUP        1 X    GLC  0     **** GLC X 6
     3 SEP2       16 GROUP        1 Y    SEP  0     ROOT SEP Y 9
     4 GLP5        3 GROUP        1 Y    GLP  0     **** GLP Y 13
     5 SEL2       15 GROUP        1 Z    SEL  0     ROOT SEL Z 16
     6 GLL5        2 GROUP        1 Z    GLL  0     **** GLL Z 20
@<TRIPOS>SET

