#    Name: 2h7n_744_1_ligand
#    Modification time : Tue Mar 25 15:42:44 2014

@<TRIPOS>MOLECULE
2h7n_744_1_ligand
   46    48     1     0     0
SMALL
NO_CHARGES


@<TRIPOS>ATOM
      1 C1         44.2660   53.3180   58.1860 C.3       1 744501      0.0000 
      2 C2         43.3510   52.1530   58.5230 C.3       1 744501      0.0000 
      3 C3         41.7890   52.3370   58.3140 C.3       1 744501      0.0000 
      4 C4         41.2500   53.6150   58.9660 C.3       1 744501      0.0000 
      5 C5         42.0100   54.8150   58.2430 C.3       1 744501      0.0000 
      6 C6         43.6240   54.7530   58.3020 C.3       1 744501      0.0000 
      7 C7         40.0350   50.7410   58.1780 C.2       1 744501      0.0000 
      8 C8         39.0370   50.3400   59.0660 C.3       1 744501      0.0000 
      9 C9         39.4890   50.2170   60.4010 C.3       1 744501      0.0000 
     10 C10        41.0490   50.5720   60.3760 C.3       1 744501      0.0000 
     11 N11        41.2880   50.9170   58.7820 N.am      1 744501      0.0000 
     12 C12        38.8630   51.2600   61.2420 C.2       1 744501      0.0000 
     13 N13        37.6390   50.7230   61.9350 N.am      1 744501      0.0000 
     14 O14        39.2990   52.3800   61.2630 O.2       1 744501      0.0000 
     15 O15        39.7320   50.8910   56.9900 O.2       1 744501      0.0000 
     16 C15        36.7510   51.1100   62.3660 C.ar      1 744501      0.0000 
     17 C20        35.4580   50.4790   62.4000 C.ar      1 744501      0.0000 
     18 C23        35.2450   49.1210   61.7880 C.3       1 744501      0.0000 
     19 C19        34.3380   51.1610   63.0350 C.ar      1 744501      0.0000 
     20 C18        34.5220   52.4790   63.6340 C.ar      1 744501      0.0000 
     21 C17        35.8170   53.1120   63.6060 C.ar      1 744501      0.0000 
     22 CL1        36.0880   54.6980   64.3250 Cl        1 744501      0.0000 
     23 C16        36.9040   52.4370   62.9840 C.ar      1 744501      0.0000 
     24 H          44.6450   53.2069   57.1519 H         1 744501      0.0000 
     25 H          45.1538   53.2975   58.8468 H         1 744501      0.0000 
     26 H          43.5030   51.8561   59.5895 H         1 744501      0.0000 
     27 H          43.6546   51.2566   57.9289 H         1 744501      0.0000 
     28 H          41.6699   52.3597   57.2254 H         1 744501      0.0000 
     29 H          41.4975   53.6411   59.9957 H         1 744501      0.0000 
     30 H          40.2129   53.7207   58.7776 H         1 744501      0.0000 
     31 H          41.6953   55.7554   58.7028 H         1 744501      0.0000 
     32 H          41.7151   54.8318   57.1906 H         1 744501      0.0000 
     33 H          44.0070   55.3822   57.4886 H         1 744501      0.0000 
     34 H          43.9359   55.2080   59.2506 H         1 744501      0.0000 
     35 H          38.5866   49.3626   58.7309 H         1 744501      0.0000 
     36 H          38.1697   51.0589   59.0284 H         1 744501      0.0000 
     37 H          39.3953   49.2721   60.8098 H         1 744501      0.0000 
     38 H          41.6023   49.7322   60.6042 H         1 744501      0.0000 
     39 H          41.2200   51.4343   60.9152 H         1 744501      0.0000 
     40 H          37.8434   49.5447   61.9365 H         1 744501      0.0000 
     41 H          33.4313   50.7213   63.0613 H         1 744501      0.0000 
     42 H          33.7365   52.9418   64.0667 H         1 744501      0.0000 
     43 H          37.8320   52.8718   62.9546 H         1 744501      0.0000 
     44 H          35.4553   49.1171   60.8104 H         1 744501      0.0000 
     45 H          35.8238   48.4263   62.2150 H         1 744501      0.0000 
     46 H          34.2983   48.8141   61.8854 H         1 744501      0.0000 
@<TRIPOS>BOND
     1    2    1 1    
     2    6    1 1    
     3   24    1 1    
     4   25    1 1    
     5    3    2 1    
     6   26    2 1    
     7   27    2 1    
     8    4    3 1    
     9   11    3 1    
    10   28    3 1    
    11    5    4 1    
    12   29    4 1    
    13   30    4 1    
    14    6    5 1    
    15   31    5 1    
    16   32    5 1    
    17   33    6 1    
    18   34    6 1    
    19    8    7 1    
    20   11    7 am   
    21   15    7 2    
    22    9    8 1    
    23   35    8 1    
    24   36    8 1    
    25   10    9 1    
    26   12    9 1    
    27   37    9 1    
    28   11   10 1    
    29   38   10 1    
    30   39   10 1    
    31   13   12 am   
    32   14   12 2    
    33   16   13 1    
    34   40   13 1    
    35   17   16 ar   
    36   23   16 ar   
    37   18   17 1    
    38   19   17 ar   
    39   44   18 1    
    40   45   18 1    
    41   46   18 1    
    42   20   19 ar   
    43   41   19 1    
    44   21   20 ar   
    45   42   20 1    
    46   22   21 1    
    47   23   21 ar   
    48   43   23 1    
@<TRIPOS>SUBSTRUCTURE
     1 744501      1 GROUP   
@<TRIPOS>SET

