#    Name: 3s9s_M0T_1_INTS_M
#    Modification time : Tue Mar 25 12:21:09 2014

@<TRIPOS>MOLECULE
3s9s_M0T_1_INTS_M
   87     0     9     0     0
SMALL
NO_CHARGES


@<TRIPOS>ATOM
      1 O         -20.5105   19.2750  -12.0090 O.2       1 ALC1        0.0000 
      2 O         -21.2880   19.6220  -13.0890 O.2       7 ALL1        0.0000 
      3 O         -19.7330   18.9280  -10.9290 O.2       4 ALP1        0.0000 
      4 CA        -25.2225   20.8575   -9.8805 C.3       3 GLC5        0.0000 
      5 CA        -25.4110   19.2800  -10.8040 C.3       9 GLL5        0.0000 
      6 CA        -25.0340   22.4350   -8.9570 C.3       6 GLP5        0.0000 
      7 CA        -26.1940   17.6405  -11.9470 C.3       3 GLC5        0.0000 
      8 CA        -26.9770   16.0010  -13.0900 C.3       6 GLP5        0.0000 
      9 CA        -24.1020   20.1355   -9.7585 C.3       3 GLC5        0.0000 
     10 CA        -24.9150   18.1740  -10.1550 C.3       9 GLL5        0.0000 
     11 CA        -23.2890   22.0970   -9.3620 C.3       6 GLP5        0.0000 
     12 CA        -26.8940   18.8005  -10.9685 C.3       3 GLC5        0.0000 
     13 CA        -28.8730   19.4270  -11.7820 C.3       6 GLP5        0.0000 
     14 CA        -23.0570   15.9850   -7.1680 C.3       3 GLC5        0.0000 
     15 CA        -24.7530   15.4440   -7.7570 C.3       9 GLL5        0.0000 
     16 CA        -21.3610   16.5260   -6.5790 C.3       6 GLP5        0.0000 
     17 CA        -25.8755   15.2630   -9.2490 C.3       3 GLC5        0.0000 
     18 CA        -26.9980   15.0820  -10.7410 C.3       6 GLP5        0.0000 
     19 CA        -25.9030   14.0190   -7.4520 C.3       3 GLC5        0.0000 
     20 CA        -27.0530   12.5940   -7.1470 C.3       6 GLP5        0.0000 
     21 CA        -19.7530   24.9950  -15.4645 C.3       3 GLC5        0.0000 
     22 CA        -19.1510   23.8910  -13.8670 C.3       9 GLL5        0.0000 
     23 CA        -20.3550   26.0990  -17.0620 C.3       6 GLP5        0.0000 
     24 CA        -18.8695   16.5990  -14.2050 C.3       3 GLC5        0.0000 
     25 CA        -19.2210   18.2970  -14.7270 C.3       9 GLL5        0.0000 
     26 CA        -18.5180   14.9010  -13.6830 C.3       6 GLP5        0.0000 
     27 N         -22.9430   19.6655  -15.6175 N.am      2 SEC2        0.0000 
     28 N         -23.2330   20.1850  -14.2380 N.am      8 SEL2        0.0000 
     29 N         -22.6530   19.1460  -16.9970 N.am      5 SEP2        0.0000 
     30 CA        -17.0540   19.7560  -13.5415 C.3       3 GLC5        0.0000 
     31 CA        -19.0590   19.6520  -14.0770 C.3       9 GLL5        0.0000 
     32 CA        -15.0490   19.8600  -13.0060 C.3       6 GLP5        0.0000 
     33 CA        -26.8040   16.3585   -9.5680 C.3       3 GLC5        0.0000 
     34 CA        -26.6100   17.6350   -8.3950 C.3       9 GLL5        0.0000 
     35 CA        -28.3570   16.7480   -8.4500 C.3       3 GLC5        0.0000 
     36 CA        -30.1040   15.8610   -8.5050 C.3       6 GLP5        0.0000 
     37 CA        -27.7415   18.5310  -10.0885 C.3       3 GLC5        0.0000 
     38 CA        -22.3110   16.4495  -12.5080 C.3       3 GLC5        0.0000 
     39 CA        -22.9550   18.0300  -11.5170 C.3       9 GLL5        0.0000 
     40 CA        -21.6670   14.8690  -13.4990 C.3       6 GLP5        0.0000 
     41 CA        -19.1485   24.2120  -11.0065 C.3       3 GLC5        0.0000 
     42 CA        -19.9150   24.4270  -12.8560 C.3       9 GLL5        0.0000 
     43 CA        -18.3820   23.9970   -9.1570 C.3       6 GLP5        0.0000 
     44 CA        -26.8555   23.5675   -3.2100 C.3       3 GLC5        0.0000 
     45 CA        -26.7770   22.6660   -5.1960 C.3       9 GLL5        0.0000 
     46 CA        -26.9340   24.4690   -1.2240 C.3       6 GLP5        0.0000 
     47 CA        -28.5550   23.1905   -4.5230 C.3       3 GLC5        0.0000 
     48 CA        -30.3330   23.7150   -3.8500 C.3       6 GLP5        0.0000 
     49 CA        -24.4130   21.8125   -3.0345 C.3       3 GLC5        0.0000 
     50 CA        -24.6390   20.5790   -4.6300 C.3       9 GLL5        0.0000 
     51 CA        -24.1870   23.0460   -1.4390 C.3       6 GLP5        0.0000 
     52 CA        -23.3280   22.1135   -4.7910 C.3       3 GLC5        0.0000 
     53 CA        -22.0170   23.6480   -4.9520 C.3       6 GLP5        0.0000 
     54 CA        -23.5295   21.1150   -6.4055 C.3       3 GLC5        0.0000 
     55 CA        -22.4200   21.6510   -8.1810 C.3       6 GLP5        0.0000 
     56 CA        -29.3585   18.9945   -7.9925 C.3       3 GLC5        0.0000 
     57 CA        -27.6000   19.8280   -7.8460 C.3       9 GLL5        0.0000 
     58 CA        -31.1170   18.1610   -8.1390 C.3       6 GLP5        0.0000 
     59 CA        -28.2365   19.6275   -9.8140 C.3       3 GLC5        0.0000 
     60 CA        -29.3275   22.2345   -6.3130 C.3       3 GLC5        0.0000 
     61 CA        -27.6630   20.9940   -7.1220 C.3       9 GLL5        0.0000 
     62 CA        -30.9920   23.4750   -5.5040 C.3       6 GLP5        0.0000 
     63 CA        -23.6620   20.7720  -10.6818 C.3       3 GLC5        0.0000 
     64 CA        -24.6290   19.7500  -11.8360 C.3       9 GLL5        0.0000 
     65 CA        -26.5480   20.2070  -11.8610 C.3       3 GLC5        0.0000 
     66 CA        -28.0760   20.8990  -12.4020 C.3       6 GLP5        0.0000 
     67 CA        -25.6617   16.4718  -10.5295 C.3       3 GLC5        0.0000 
     68 CA        -22.0975   22.5380  -10.8710 C.3       3 GLC5        0.0000 
     69 CA        -20.9810   22.3190  -12.5630 C.3       9 GLL5        0.0000 
     70 CA        -19.8820   22.7645  -10.7240 C.3       3 GLC5        0.0000 
     71 CA        -18.8580   22.5500   -9.0680 C.3       6 GLP5        0.0000 
     72 CA        -17.9645   25.2435  -13.5527 C.3       3 GLC5        0.0000 
     73 CA        -16.3960   26.3280  -13.7440 C.3       6 GLP5        0.0000 
     74 CA        -17.5265   22.6095  -12.9968 C.3       3 GLC5        0.0000 
     75 CA        -15.8240   21.9890  -11.9490 C.3       6 GLP5        0.0000 
     76 CA        -19.1055   18.5838  -16.2580 C.3       3 GLC5        0.0000 
     77 CA        -19.0710   18.1930  -18.1140 C.3       6 GLP5        0.0000 
     78 CA        -19.0857   19.0741  -12.5088 C.3       3 GLC5        0.0000 
     79 CA        -18.4030   18.4900  -10.8290 C.3       6 GLP5        0.0000 
     80 CA        -25.8960   22.1875   -7.3100 C.3       3 GLC5        0.0000 
     81 CA        -26.3328   21.4230   -8.2205 C.3       3 GLC5        0.0000 
     82 CA        -27.3648   23.4010   -6.9162 C.3       3 GLC5        0.0000 
     83 CA        -27.5190   25.3350   -7.4400 C.3       6 GLP5        0.0000 
     84 CA        -25.5031   21.0341   -7.7213 C.3       3 GLC5        0.0000 
     85 CA        -25.7750   20.2720   -5.8770 C.3       9 GLL5        0.0000 
     86 CA        -27.7792   19.3898   -5.6229 C.3       3 GLC5        0.0000 
     87 CA        -28.8720   18.7300   -4.3850 C.3       6 GLP5        0.0000 
@<TRIPOS>BOND
@<TRIPOS>SUBSTRUCTURE
     1 ALC1        1 GROUP        1 X    ALC  0     ROOT ALC X 1
     2 SEC2       27 GROUP        1 X    SEC  0     **** SEC X 2
     3 GLC5        4 GROUP        1 X    GLC  0     **** GLC X 6
     4 ALP1        3 GROUP        1 Y    ALP  0     ROOT ALP Y 8
     5 SEP2       29 GROUP        1 Y    SEP  0     **** SEP Y 9
     6 GLP5        6 GROUP        1 Y    GLP  0     **** GLP Y 13
     7 ALL1        2 GROUP        1 Z    ALL  0     ROOT ALL Z 15
     8 SEL2       28 GROUP        1 Z    SEL  0     **** SEL Z 16
     9 GLL5        5 GROUP        1 Z    GLL  0     **** GLL Z 20
@<TRIPOS>SET

