#    Name: 3s9s_M0T_1_ligand
#    Modification time : Tue Mar 25 12:21:09 2014

@<TRIPOS>MOLECULE
3s9s_M0T_1_ligand
   54    57     1     0     0
SMALL
NO_CHARGES


@<TRIPOS>ATOM
      1 N1        -21.2880   19.6220  -13.0890 N.am      1 M0T1        0.0000 
      2 N3        -23.5070   16.4740   -9.6660 N.2       1 M0T1        0.0000 
      3 C4        -22.6570   19.7000  -13.2750 C.2       1 M0T1        0.0000 
      4 C5        -23.4410   19.1440  -12.1670 C.ar      1 M0T1        0.0000 
      5 C6        -24.6290   19.7500  -11.8360 C.ar      1 M0T1        0.0000 
      6 C7        -25.4110   19.2800  -10.8040 C.ar      1 M0T1        0.0000 
      7 C8        -24.9150   18.1740  -10.1550 C.ar      1 M0T1        0.0000 
      8 C17       -24.7530   15.4440   -7.7570 C.3       1 M0T1        0.0000 
      9 C20       -20.2250   21.7700  -13.5740 C.ar      1 M0T1        0.0000 
     10 C21       -20.9810   22.3190  -12.5630 C.ar      1 M0T1        0.0000 
     11 C22       -20.8310   23.6390  -12.1970 C.ar      1 M0T1        0.0000 
     12 C24       -19.1510   23.8910  -13.8670 C.ar      1 M0T1        0.0000 
     13 C1        -19.2210   18.2970  -14.7270 C.3       1 M0T1        0.0000 
     14 O1        -23.2330   20.1850  -14.2380 O.2       1 M0T1        0.0000 
     15 C2        -19.0590   19.6520  -14.0770 C.3       1 M0T1        0.0000 
     16 N2        -25.3780   17.4400   -9.1060 N.pl3     1 M0T1        0.0000 
     17 C3        -20.3970   20.3420  -13.9750 C.3       1 M0T1        0.0000 
     18 C9        -26.6100   17.6350   -8.3950 C.3       1 M0T1        0.0000 
     19 C16       -24.5170   16.4270   -8.8370 C.2       1 M0T1        0.0000 
     20 C18       -23.7360   17.5490  -10.4810 C.ar      1 M0T1        0.0000 
     21 C19       -22.9550   18.0300  -11.5170 C.ar      1 M0T1        0.0000 
     22 C23       -19.9150   24.4270  -12.8560 C.ar      1 M0T1        0.0000 
     23 C25       -19.3070   22.5690  -14.2220 C.ar      1 M0T1        0.0000 
     24 C10       -26.6300   18.8860   -7.5920 C.ar      1 M0T1        0.0000 
     25 C13       -26.7390   21.2140   -6.1300 C.ar      1 M0T1        0.0000 
     26 C15       -25.7090   19.1030   -6.5960 C.ar      1 M0T1        0.0000 
     27 CL1       -26.7770   22.6660   -5.1960 Cl        1 M0T1        0.0000 
     28 CL2       -24.6390   20.5790   -4.6300 Cl        1 M0T1        0.0000 
     29 C11       -27.6000   19.8280   -7.8460 C.ar      1 M0T1        0.0000 
     30 C12       -27.6630   20.9940   -7.1220 C.ar      1 M0T1        0.0000 
     31 C14       -25.7750   20.2720   -5.8770 C.ar      1 M0T1        0.0000 
     32 H         -20.8792   19.0666  -12.3382 H         1 M0T1        0.0000 
     33 H         -24.9466   20.5834  -12.3766 H         1 M0T1        0.0000 
     34 H         -26.2746   19.7118  -10.5470 H         1 M0T1        0.0000 
     35 H         -21.6782   21.7273  -12.0660 H         1 M0T1        0.0000 
     36 H         -21.4011   24.0327  -11.4350 H         1 M0T1        0.0000 
     37 H         -18.4600   24.4793  -14.3605 H         1 M0T1        0.0000 
     38 H         -18.3797   20.2609  -14.6730 H         1 M0T1        0.0000 
     39 H         -18.6365   19.5276  -13.0804 H         1 M0T1        0.0000 
     40 H         -20.8323   20.3374  -14.9993 H         1 M0T1        0.0000 
     41 H         -26.8078   16.7758   -7.7146 H         1 M0T1        0.0000 
     42 H         -27.4696   17.6563   -9.1028 H         1 M0T1        0.0000 
     43 H         -22.0905   17.5938  -11.7764 H         1 M0T1        0.0000 
     44 H         -19.8015   25.4185  -12.5921 H         1 M0T1        0.0000 
     45 H         -18.7281   22.1702  -14.9846 H         1 M0T1        0.0000 
     46 H         -24.9854   18.4053   -6.3928 H         1 M0T1        0.0000 
     47 H         -28.2972   19.6538   -8.5991 H         1 M0T1        0.0000 
     48 H         -28.3911   21.6913   -7.3201 H         1 M0T1        0.0000 
     49 H         -24.0165   15.4514   -7.0807 H         1 M0T1        0.0000 
     50 H         -25.6040   15.6293   -7.2656 H         1 M0T1        0.0000 
     51 H         -24.8163   14.5110   -8.1113 H         1 M0T1        0.0000 
     52 H         -18.3479   17.8157  -14.8048 H         1 M0T1        0.0000 
     53 H         -19.8361   17.7059  -14.2052 H         1 M0T1        0.0000 
     54 H         -19.5984   18.3706  -15.6501 H         1 M0T1        0.0000 
@<TRIPOS>BOND
     1    3    1 am   
     2   17    1 1    
     3   32    1 1    
     4   19    2 2    
     5   20    2 1    
     6    4    3 1    
     7   14    3 2    
     8    5    4 ar   
     9   21    4 ar   
    10    6    5 ar   
    11   33    5 1    
    12    7    6 ar   
    13   34    6 1    
    14   16    7 1    
    15   20    7 ar   
    16   19    8 1    
    17   49    8 1    
    18   50    8 1    
    19   51    8 1    
    20   10    9 ar   
    21   17    9 1    
    22   23    9 ar   
    23   11   10 ar   
    24   35   10 1    
    25   22   11 ar   
    26   36   11 1    
    27   22   12 ar   
    28   23   12 ar   
    29   37   12 1    
    30   15   13 1    
    31   52   13 1    
    32   53   13 1    
    33   54   13 1    
    34   17   15 1    
    35   38   15 1    
    36   39   15 1    
    37   18   16 1    
    38   19   16 1    
    39   40   17 1    
    40   24   18 1    
    41   41   18 1    
    42   42   18 1    
    43   21   20 ar   
    44   43   21 1    
    45   44   22 1    
    46   45   23 1    
    47   26   24 ar   
    48   29   24 ar   
    49   27   25 1    
    50   30   25 ar   
    51   31   25 ar   
    52   31   26 ar   
    53   46   26 1    
    54   31   28 1    
    55   30   29 ar   
    56   47   29 1    
    57   48   30 1    
@<TRIPOS>SUBSTRUCTURE
     1 M0T1        1 GROUP   
@<TRIPOS>SET

