#    Name: 3MAT_1_CAVITY_N1_6.mol2
#    Modification time : Tue Mar 11 13:12:30 2014

@<TRIPOS>MOLECULE
3MAT_1_CAVITY_N1_6.mol2
  118     0     5     0     0
SMALL
NO_CHARGES


@<TRIPOS>ATOM
      1 N         -14.4209    3.5897   20.9337 N.2       1 ALA2        0.0000 
      2 CZ        -15.7961    4.7511   18.1035 C.ar      3 PHE5        0.0000 
      3 CA        -15.5381    3.6913   19.1333 C.3       4 GLY6        0.0000 
      4 DU        -12.3596    4.0905   20.9326 H         5 CUB7        0.0000 
      5 DU        -13.7347    5.2519   18.1024 H         5 CUB7        0.0000 
      6 DU        -13.4767    4.1922   19.1322 H         5 CUB7        0.0000 
      7 CA        -13.2187    3.1325   20.1620 C.3       4 GLY6        0.0000 
      8 N         -12.9607    2.0727   21.1917 N.2       1 ALA2        0.0000 
      9 CZ        -14.5939    4.2938   17.3318 C.ar      3 PHE5        0.0000 
     10 CA        -14.3359    3.2341   18.3615 C.3       4 GLY6        0.0000 
     11 CA        -14.0778    2.1744   19.3913 C.3       4 GLY6        0.0000 
     12 CZ        -15.1950    2.2760   17.5908 C.ar      3 PHE5        0.0000 
     13 DU         -8.3219    5.4478   23.5027 H         5 CUB7        0.0000 
     14 DU         -8.0639    4.3881   24.5325 H         5 CUB7        0.0000 
     15 CZ        -10.2132    8.7287   18.6130 C.ar      3 PHE5        0.0000 
     16 DU         -9.4391    5.5495   21.7023 H         5 CUB7        0.0000 
     17 DU         -9.1810    4.4898   22.7320 H         5 CUB7        0.0000 
     18 CA         -8.9230    3.4300   23.7618 C.3       4 GLY6        0.0000 
     19 DU        -10.5562    5.6511   19.9018 H         5 CUB7        0.0000 
     20 DU        -10.2982    4.5914   20.9316 H         5 CUB7        0.0000 
     21 CA        -10.0402    3.5317   21.9613 C.3       4 GLY6        0.0000 
     22 CZ        -11.9314    6.8125   17.0716 C.ar      3 PHE5        0.0000 
     23 CZ        -11.6734    5.7528   18.1014 C.ar      3 PHE5        0.0000 
     24 DU        -11.4154    4.6931   19.1311 H         5 CUB7        0.0000 
     25 N         -11.1573    3.6333   20.1609 N.2       1 ALA2        0.0000 
     26 N         -12.5325    4.7947   17.3307 N.2       1 ALA2        0.0000 
     27 DU        -12.2745    3.7350   18.3604 H         5 CUB7        0.0000 
     28 CZ        -12.0165    2.6752   19.3902 C.ar      3 PHE5        0.0000 
     29 O         -11.7584    1.6155   20.4199 O.2       1 ALA2        0.0000 
     30 CZ        -13.3917    3.8366   16.5600 C.ar      3 PHE5        0.0000 
     31 CZ        -13.1336    2.7769   17.5897 C.ar      3 PHE5        0.0000 
     32 CZ        -13.9928    1.8188   16.8190 C.ar      3 PHE5        0.0000 
     33 CZ        -14.8519    0.8607   16.0483 C.ar      3 PHE5        0.0000 
     34 CA         -5.9175    9.0262   22.2128 C.3       4 GLY6        0.0000 
     35 CA         -6.7766    8.0682   21.4421 C.3       4 GLY6        0.0000 
     36 CA         -6.5186    7.0084   22.4719 C.3       4 GLY6        0.0000 
     37 N          -7.8938    8.1698   19.6417 N.2       1 ALA2        0.0000 
     38 DU         -7.6358    7.1101   20.6714 H         5 CUB7        0.0000 
     39 DU         -7.3777    6.0503   21.7012 H         5 CUB7        0.0000 
     40 CA         -7.1197    4.9906   22.7309 C.3       4 GLY6        0.0000 
     41 CA         -6.8617    3.9309   23.7607 C.3       4 GLY6        0.0000 
     42 CZ         -8.7529    7.2117   18.8710 C.ar      3 PHE5        0.0000 
     43 DU         -8.4949    6.1520   19.9007 H         5 CUB7        0.0000 
     44 DU         -8.2369    5.0923   20.9305 H         5 CUB7        0.0000 
     45 CA         -7.9788    4.0325   21.9602 C.3       4 GLY6        0.0000 
     46 CA         -7.7208    2.9728   22.9900 C.3       4 GLY6        0.0000 
     47 CZ         -9.6121    6.2536   18.1003 C.ar      3 PHE5        0.0000 
     48 DU         -9.3540    5.1939   19.1300 H         5 CUB7        0.0000 
     49 CA         -9.0960    4.1342   20.1598 C.3       4 GLY6        0.0000 
     50 CZ        -10.4712    5.2956   17.3296 C.ar      3 PHE5        0.0000 
     51 N         -10.2132    4.2358   18.3593 N.2       1 ALA2        0.0000 
     52 N          -9.9551    3.1761   19.3891 N.2       1 ALA2        0.0000 
     53 N         -11.3303    4.3375   16.5589 N.2       1 ALA2        0.0000 
     54 N         -11.0723    3.2777   17.5886 N.2       1 ALA2        0.0000 
     55 N         -12.1895    3.3794   15.7882 N.2       1 ALA2        0.0000 
     56 DU        -11.9314    2.3197   16.8180 H         5 CUB7        0.0000 
     57 CZ        -11.6734    1.2599   17.8477 C.ar      3 PHE5        0.0000 
     58 N         -13.0486    2.4213   15.0175 N.2       1 ALA2        0.0000 
     59 CZ        -12.7906    1.3616   16.0473 C.ar      3 PHE5        0.0000 
     60 CZ        -13.9077    1.4632   14.2468 C.ar      3 PHE5        0.0000 
     61 CZ        -13.6497    0.4035   15.2766 C.ar      3 PHE5        0.0000 
     62 CZ        -14.7669    0.5051   13.4761 C.ar      3 PHE5        0.0000 
     63 CA        -14.5088   -0.5546   14.5059 C.3       4 GLY6        0.0000 
     64 CA         -5.5744    7.6109   20.6703 C.3       4 GLY6        0.0000 
     65 CA         -5.3164    6.5512   21.7001 C.3       4 GLY6        0.0000 
     66 O          -6.4335    6.6529   19.8996 O.2       1 ALA2        0.0000 
     67 N          -6.1755    5.5931   20.9294 N.2       1 ALA2        0.0000 
     68 N          -5.9175    4.5334   21.9591 N.2       1 ALA2        0.0000 
     69 CZ         -7.5507    6.7545   18.0992 C.ar      3 PHE5        0.0000 
     70 N          -7.2927    5.6948   19.1289 N.2       1 ALA2        0.0000 
     71 N          -7.0347    4.6350   20.1587 N.2       1 ALA2        0.0000 
     72 CA         -6.7766    3.5753   21.1885 C.3       4 GLY6        0.0000 
     73 CZ         -8.4098    5.7964   17.3285 C.ar      3 PHE5        0.0000 
     74 N          -8.1518    4.7367   18.3583 N.2       1 ALA2        0.0000 
     75 N          -7.8938    3.6770   19.3880 N.2       1 ALA2        0.0000 
     76 CZ         -9.2690    4.8383   16.5578 C.ar      3 PHE5        0.0000 
     77 N          -9.0110    3.7786   17.5876 N.2       1 ALA2        0.0000 
     78 N         -10.1281    3.8803   15.7871 N.2       1 ALA2        0.0000 
     79 N          -9.8701    2.8205   16.8169 N.2       1 ALA2        0.0000 
     80 N         -10.7292    1.8624   16.0462 N.2       1 ALA2        0.0000 
     81 N         -11.8464    1.9641   14.2457 N.2       1 ALA2        0.0000 
     82 DU        -11.5884    0.9044   15.2755 H         5 CUB7        0.0000 
     83 CZ        -11.3303   -0.1554   16.3052 C.ar      3 PHE5        0.0000 
     84 CA        -12.7055    1.0060   13.4750 C.3       4 GLY6        0.0000 
     85 CA        -12.4475   -0.0537   14.5048 C.3       4 GLY6        0.0000 
     86 CZ        -12.1895   -1.1135   15.5345 C.ar      3 PHE5        0.0000 
     87 CA        -13.3066   -1.0118   13.7341 C.3       4 GLY6        0.0000 
     88 O          -6.3485    6.2973   17.3274 O.2       1 ALA2        0.0000 
     89 CZ         -7.2076    5.3392   16.5567 C.ar      3 PHE5        0.0000 
     90 N          -6.9496    4.2795   17.5865 N.2       1 ALA2        0.0000 
     91 N          -6.6916    3.2197   18.6162 N.2       1 ALA2        0.0000 
     92 CZ         -8.3248    5.4408   14.7563 C.ar      3 PHE5        0.0000 
     93 CZ         -8.0668    4.3811   15.7860 C.ar      3 PHE5        0.0000 
     94 N          -7.8087    3.3214   16.8158 N.2       1 ALA2        0.0000 
     95 N          -8.9259    3.4230   15.0153 N.2       1 ALA2        0.0000 
     96 N          -8.6679    2.3633   16.0451 N.2       1 ALA2        0.0000 
     97 N          -9.7850    2.4649   14.2446 N.2       1 ALA2        0.0000 
     98 DU         -9.5270    1.4052   15.2744 H         5 CUB7        0.0000 
     99 N          -9.2690    0.3455   16.3042 N.2       1 ALA2        0.0000 
    100 CA        -10.6442    1.5069   13.4740 C.3       4 GLY6        0.0000 
    101 DU        -10.3861    0.4471   14.5037 H         5 CUB7        0.0000 
    102 CZ        -10.1281   -0.6126   15.5335 C.ar      3 PHE5        0.0000 
    103 CA        -11.2453   -0.5109   13.7330 C.3       4 GLY6        0.0000 
    104 CZ        -10.9872   -1.5707   14.7628 C.ar      3 PHE5        0.0000 
    105 CA         -6.0054    4.8820   15.7849 C.3       4 GLY6        0.0000 
    106 NZ         -6.8646    3.9239   15.0143 N.2       2 LYS4        0.0000 
    107 NZ         -6.6065    2.8642   16.0440 N.2       2 LYS4        0.0000 
    108 CA         -7.9817    4.0255   13.2138 C.3       4 GLY6        0.0000 
    109 NZ         -7.7237    2.9658   14.2436 N.2       2 LYS4        0.0000 
    110 NZ         -7.4657    1.9061   15.2733 N.2       2 LYS4        0.0000 
    111 NZ         -8.8409    3.0675   12.4431 N.2       2 LYS4        0.0000 
    112 NZ         -8.5828    2.0077   13.4729 N.2       2 LYS4        0.0000 
    113 NZ         -8.3248    0.9480   14.5026 N.2       2 LYS4        0.0000 
    114 NZ         -8.0668   -0.1117   15.5324 N.2       2 LYS4        0.0000 
    115 NZ         -9.4420    1.0496   12.7022 N.2       2 LYS4        0.0000 
    116 NZ         -9.1839   -0.0101   13.7319 N.2       2 LYS4        0.0000 
    117 CZ         -8.9259   -1.0698   14.7617 C.ar      3 PHE5        0.0000 
    118 NZ        -10.0431   -0.9682   12.9612 N.2       2 LYS4        0.0000 
@<TRIPOS>BOND
@<TRIPOS>SUBSTRUCTURE
     1 ALA2        1 GROUP   
     2 LYS4      106 GROUP   
     3 PHE5        2 GROUP   
     4 GLY6        3 GROUP   
     5 CUB7        4 GROUP   
@<TRIPOS>SET

