#    Name: 3mat_ALA_LEU_AHH_1_INTS_M
#    Modification time : Mon Mar 24 22:54:07 2014

@<TRIPOS>MOLECULE
3mat_ALA_LEU_AHH_1_INTS_M
   54     0    12     0     0
SMALL
NO_CHARGES


@<TRIPOS>ATOM
      1 CA         -8.1220    2.3800   18.8800 C.3       4 GLC5        0.0000 
      2 CA         -8.0810    3.7070   17.0820 C.3      12 GLL5        0.0000 
      3 CA         -8.1630    1.0530   20.6780 C.3       8 GLP5        0.0000 
      4 N         -10.8445    4.6935   15.0490 N.am      2 SEC2        0.0000 
      5 N         -10.2630    4.5290   16.4070 N.am     10 SEL2        0.0000 
      6 N         -11.4260    4.8580   13.6910 N.am      6 SEP2        0.0000 
      7 CA         -7.7790    6.4130   16.5000 C.3       4 GLC5        0.0000 
      8 CA         -6.9040    4.6870   16.9760 C.3      12 GLL5        0.0000 
      9 CA         -8.6540    8.1390   16.0240 C.3       8 GLP5        0.0000 
     10 CA         -6.1410    5.5455   15.2210 C.3       4 GLC5        0.0000 
     11 CA         -5.3780    6.4040   13.4660 C.3       8 GLP5        0.0000 
     12 CA        -10.3575    7.0915   17.3220 C.3       4 GLC5        0.0000 
     13 CA        -10.7130    5.7220   18.7660 C.3      12 GLL5        0.0000 
     14 CA        -10.0020    8.4610   15.8780 C.3       8 GLP5        0.0000 
     15 CA        -14.7210    2.2755   20.4910 C.3       4 GLC5        0.0000 
     16 CA        -13.3130    3.3530   20.1450 C.3      12 GLL5        0.0000 
     17 CA        -16.1290    1.1980   20.8370 C.3       8 GLP5        0.0000 
     18 Zn         -7.4825   -1.2320   13.5360 Zn        3 ZIC7        0.0000 
     19 Zn         -8.6410   -1.2260   13.7260 Zn       11 ZIL7        0.0000 
     20 Zn         -6.3240   -1.2380   13.3460 Zn        7 ZIP7        0.0000 
     21 CA        -11.8170   -1.8495   13.9025 C.3       4 GLC5        0.0000 
     22 CA        -11.3640   -0.0630   14.9140 C.3      12 GLL5        0.0000 
     23 CA        -12.2700   -3.6360   12.8910 C.3       8 GLP5        0.0000 
     24 Zn         -5.8810   -0.0795   15.5045 Zn        3 ZIC7        0.0000 
     25 Zn         -6.3500    0.1400   14.6060 Zn       11 ZIL7        0.0000 
     26 Zn         -5.4120   -0.2990   16.4030 Zn        7 ZIP7        0.0000 
     27 Zn         -6.3370   -0.5490   13.9760 Zn        3 ZIC7        0.0000 
     28 O          -5.4840    1.1685   14.5235 O.2       1 ALC1        0.0000 
     29 O          -6.3500    0.1400   14.6060 O.2       9 ALL1        0.0000 
     30 O          -4.6180    2.1970   14.4410 O.2       5 ALP1        0.0000 
     31 O          -5.2165    0.9530   15.5840 O.2       1 ALC1        0.0000 
     32 O          -4.0830    1.7660   16.5620 O.2       5 ALP1        0.0000 
     33 Zn         -6.3715    0.4025   16.7545 Zn        3 ZIC7        0.0000 
     34 Zn         -7.3310    1.1040   17.1060 Zn       11 ZIL7        0.0000 
     35 N          -7.9560    1.0025   18.2265 N.am      2 SEC2        0.0000 
     36 N          -7.3310    1.1040   17.1060 N.am     10 SEL2        0.0000 
     37 N          -8.5810    0.9010   19.3470 N.am      6 SEP2        0.0000 
     38 CA        -12.4060    0.5910   12.3525 C.3       4 GLC5        0.0000 
     39 CA        -12.5500    0.6640   14.2890 C.3      12 GLL5        0.0000 
     40 CA        -12.2620    0.5180   10.4160 C.3       8 GLP5        0.0000 
     41 CA        -12.1745    2.5650   13.3605 C.3       4 GLC5        0.0000 
     42 CA        -11.7990    4.4660   12.4320 C.3       8 GLP5        0.0000 
     43 CA        -13.9650   -1.8665   13.7755 C.3       4 GLC5        0.0000 
     44 CA        -13.8540   -0.0140   14.6460 C.3      12 GLL5        0.0000 
     45 CA        -14.0760   -3.7190   12.9050 C.3       8 GLP5        0.0000 
     46 CA        -13.9710   -0.4230   16.5295 C.3       4 GLC5        0.0000 
     47 CA        -14.0880   -0.8320   18.4130 C.3       8 GLP5        0.0000 
     48 CA        -15.7360   -0.0555   14.1845 C.3       4 GLC5        0.0000 
     49 CA        -17.6180   -0.0970   13.7230 C.3       8 GLP5        0.0000 
     50 CA        -12.9710    1.4818   19.5870 C.3       4 GLC5        0.0000 
     51 CA        -12.1290    3.7060   19.2630 C.3      12 GLL5        0.0000 
     52 CA        -13.2210   -0.5660   19.4700 C.3       8 GLP5        0.0000 
     53 CA        -10.3890   -1.4314   15.8430 C.3       4 GLC5        0.0000 
     54 CA        -10.3790   -2.9350   16.8720 C.3       8 GLP5        0.0000 
@<TRIPOS>BOND
@<TRIPOS>SUBSTRUCTURE
     1 ALC1       28 GROUP        1 X    ALC  0     ROOT ALC X 1
     2 SEC2        4 GROUP        1 X    SEC  0     **** SEC X 2
     3 ZIC7       18 GROUP        1 X    ZIC  0     **** ZIC X 5
     4 GLC5        1 GROUP        1 X    GLC  0     **** GLC X 6
     5 ALP1       30 GROUP        1 Y    ALP  0     ROOT ALP Y 8
     6 SEP2        6 GROUP        1 Y    SEP  0     **** SEP Y 9
     7 ZIP7       20 GROUP        1 Y    ZIP  0     **** ZIP Y 12
     8 GLP5        3 GROUP        1 Y    GLP  0     **** GLP Y 13
     9 ALL1       29 GROUP        1 Z    ALL  0     ROOT ALL Z 15
    10 SEL2        5 GROUP        1 Z    SEL  0     **** SEL Z 16
    11 ZIL7       19 GROUP        1 Z    ZIL  0     **** ZIL Z 19
    12 GLL5        2 GROUP        1 Z    GLL  0     **** GLL Z 20
@<TRIPOS>SET

