#    Name: 3mat_ALA_LEU_AHH_1_ligand
#    Modification time : Mon Mar 24 22:54:08 2014

@<TRIPOS>MOLECULE
3mat_ALA_LEU_AHH_1_ligand
   54    53     3     0     0
SMALL
NO_CHARGES


@<TRIPOS>ATOM
      1 N          -8.0830    2.8360   15.9200 N.am      1 ALA2        0.0000
      2 CA         -8.0810    3.7070   17.0820 C.3       1 ALA2        0.0000
      3 C          -9.3940    4.4430   17.2780 C.2       1 ALA2        0.0000
      4 O         -10.2630    4.5290   16.4070 O.2       1 ALA2        0.0000
      5 CB         -6.9040    4.6870   16.9760 C.3       1 ALA2        0.0000
      6 H          -8.4425    3.2551   15.0418 H         1 ALA2        0.0000
      7 HA         -7.8969    3.1019   17.9878 H         1 ALA2        0.0000
      8 HB1        -6.0261    4.2100   16.9351 H         1 ALA2        0.0000
      9 HB2        -6.9670    5.2558   16.1559 H         1 ALA2        0.0000
     10 HB3        -6.8647    5.3065   17.7600 H         1 ALA2        0.0000
     11 N          -9.5190    4.9940   18.4540 N.am      2 LEU3        0.0000
     12 CA        -10.7130    5.7220   18.7660 C.3       2 LEU3        0.0000
     13 C         -10.4480    7.1720   19.1460 C.2       2 LEU3        0.0000
     14 O          -9.8500    7.4510   20.1760 O.2       2 LEU3        0.0000
     15 CB        -11.4890    4.9610   19.8350 C.3       2 LEU3        0.0000
     16 CG        -12.1290    3.7060   19.2630 C.3       2 LEU3        0.0000
     17 CD1       -13.3130    3.3530   20.1450 C.3       2 LEU3        0.0000
     18 CD2       -12.5930    3.9260   17.8220 C.3       2 LEU3        0.0000
     19 HNCA       -8.7986    4.9395   19.1923 H         2 LEU3        0.0000
     20 HA        -11.3686    5.7351   17.8634 H         2 LEU3        0.0000
     21 H         -10.8332    7.8383   18.4338 H         2 LEU3        0.0000
     22 HB2       -12.2666    5.6093   20.2436 H         2 LEU3        0.0000
     23 HB3       -10.8090    4.6840   20.6430 H         2 LEU3        0.0000
     24 HG        -11.4214    2.9047   19.2944 H         2 LEU3        0.0000
     25 HD11      -13.0343    3.1824   21.0901 H         2 LEU3        0.0000
     26 HD12      -13.9914    4.0874   20.1675 H         2 LEU3        0.0000
     27 HD13      -13.7824    2.5301   19.8248 H         2 LEU3        0.0000
     28 HD21      -11.8338    4.1773   17.2216 H         2 LEU3        0.0000
     29 HD22      -13.0114    3.1034   17.4369 H         2 LEU3        0.0000
     30 HD23      -13.2718    4.6575   17.7580 H         2 LEU3        0.0000
     31 N          -8.6410   -1.2260   13.7260 N.3       3 AHH1        0.0000
     32 CA         -8.8060   -0.2260   14.8280 C.3       3 AHH1        0.0000
     33 CB        -10.0620    0.6410   14.6000 C.3       3 AHH1        0.0000
     34 CG        -11.3640   -0.0630   14.9140 C.3       3 AHH1        0.0000
     35 O1         -6.3500    0.1400   14.6060 O.3       3 AHH1        0.0000
     36 O2         -7.3310    1.1040   17.1060 O.co2     3 AHH1        0.0000
     37 CD        -12.5500    0.6640   14.2890 C.3       3 AHH1        0.0000
     38 CE        -13.8540   -0.0140   14.6460 C.3       3 AHH1        0.0000
     39 C1         -7.6220    0.7490   14.7850 C.3       3 AHH1        0.0000
     40 C2         -7.6530    1.6160   16.0180 C.2       3 AHH1        0.0000
     41 H          -8.8523   -0.6763   15.7695 H         3 AHH1        0.0000
     42 H         -10.0675    0.9731   13.5482 H         3 AHH1        0.0000
     43 H          -9.9746    1.5478   15.2219 H         3 AHH1        0.0000
     44 H         -11.5033   -0.1074   15.9966 H         3 AHH1        0.0000
     45 H         -11.3288   -1.0847   14.5288 H         3 AHH1        0.0000
     46 H         -12.4293    0.6758   13.2038 H         3 AHH1        0.0000
     47 H         -12.5645    1.6956   14.6466 H         3 AHH1        0.0000
     48 H          -7.8323    1.4406   13.9264 H         3 AHH1        0.0000
     49 H          -8.6554   -2.1645   14.0709 H         3 AHH1        0.0000
     50 H          -9.3702   -1.1525   13.0456 H         3 AHH1        0.0000
     51 H         -13.8821   -0.9594   14.3213 H         3 AHH1        0.0000
     52 H         -14.0010   -0.0392   15.6348 H         3 AHH1        0.0000
     53 H         -14.6396    0.4571   14.2448 H         3 AHH1        0.0000
     54 H          -5.7029    0.9011   14.5604 H         3 AHH1        0.0000
@<TRIPOS>BOND
     1    2    1 1
     2    6    1 1
     3    3    2 1
     4    5    2 1
     5    7    2 1
     6    4    3 2
     7    8    5 1
     8    9    5 1
     9   10    5 1
    10   12   11 1
    11   19   11 1
    12   13   12 1
    13   15   12 1
    14   20   12 1
    15   14   13 2
    16   21   13 1
    17   16   15 1
    18   22   15 1
    19   23   15 1
    20   17   16 1
    21   18   16 1
    22   24   16 1
    23   25   17 1
    24   26   17 1
    25   27   17 1
    26   28   18 1
    27   29   18 1
    28   30   18 1
    29   32   31 1
    30   49   31 1
    31   50   31 1
    32   33   32 1
    33   39   32 1
    34   41   32 1
    35   34   33 1
    36   42   33 1
    37   43   33 1
    38   37   34 1
    39   44   34 1
    40   45   34 1
    41   39   35 1
    42   54   35 1
    43   40   36 ar
    44   38   37 1
    45   46   37 1
    46   47   37 1
    47   51   38 1
    48   52   38 1
    49   53   38 1
    50   40   39 1
    51   48   39 1
    52   40    1 1 
    53   11    3 am
@<TRIPOS>SUBSTRUCTURE
     1 ALA2        1 RESIDUE
     2 LEU3       11 RESIDUE
     3 AHH1       31 GROUP
@<TRIPOS>SET

