#    Name: 3OQ5_1_CAVITY_N1_6.mol2
#    Modification time : Tue Mar 11 20:54:06 2014

@<TRIPOS>MOLECULE
3OQ5_1_CAVITY_N1_6.mol2
   95     0     6     0     0
SMALL
NO_CHARGES


@<TRIPOS>ATOM
      1 CZ         27.1093    9.9641   26.4588 C.ar      4 PHE5        0.0000 
      2 CZ         26.3746    8.6672   26.2902 C.ar      4 PHE5        0.0000 
      3 CZ         25.6399    7.3704   26.1216 C.ar      4 PHE5        0.0000 
      4 DU         29.2145   10.6811   25.1156 H         6 CUB7        0.0000 
      5 DU         29.1502   10.5237   26.6059 H         6 CUB7        0.0000 
      6 CZ         29.0859   10.3664   28.0962 C.ar      4 PHE5        0.0000 
      7 DU         28.8931    9.8944   32.5673 H         6 CUB7        0.0000 
      8 O          28.4798    9.3842   24.9470 O.2       2 ALA2        0.0000 
      9 CZ         28.4155    9.2269   26.4373 C.ar      4 PHE5        0.0000 
     10 CZ         28.3512    9.0696   27.9276 C.ar      4 PHE5        0.0000 
     11 CZ         28.2227    8.7549   30.9083 C.ar      4 PHE5        0.0000 
     12 CZ         28.1584    8.5976   32.3987 C.ar      4 PHE5        0.0000 
     13 OG         33.9666   12.9399   27.0687 O.2       1 SER1        0.0000 
     14 CZ         33.2319   11.6431   26.9001 C.ar      4 PHE5        0.0000 
     15 O          33.1676   11.4857   28.3905 O.2       2 ALA2        0.0000 
     16 CZ         32.7544   10.9756   20.7702 C.ar      4 PHE5        0.0000 
     17 CZ         32.6901   10.8182   22.2605 C.ar      4 PHE5        0.0000 
     18 CZ         32.6258   10.6609   23.7508 C.ar      4 PHE5        0.0000 
     19 CZ         32.5615   10.5036   25.2412 C.ar      4 PHE5        0.0000 
     20 O          32.4972   10.3462   26.7315 O.2       2 ALA2        0.0000 
     21 O          32.4330   10.1889   28.2219 O.2       2 ALA2        0.0000 
     22 N          32.0197    9.6787   20.6016 N.2       2 ALA2        0.0000 
     23 N          31.9554    9.5214   22.0919 N.2       2 ALA2        0.0000 
     24 N          31.8911    9.3641   23.5822 N.2       2 ALA2        0.0000 
     25 N          31.8268    9.2067   25.0726 N.2       2 ALA2        0.0000 
     26 CA         31.7625    9.0494   26.5629 C.3       5 GLY6        0.0000 
     27 N          31.6983    8.8920   28.0533 N.2       2 ALA2        0.0000 
     28 N          31.0921    7.9099   24.9040 N.2       2 ALA2        0.0000 
     29 CA         31.0279    7.7525   26.3943 C.3       5 GLY6        0.0000 
     30 CA         30.9636    7.5952   27.8847 C.3       5 GLY6        0.0000 
     31 N          30.8993    7.4379   29.3750 N.2       2 ALA2        0.0000 
     32 CA         30.1646    6.1410   29.2064 C.3       5 GLY6        0.0000 
     33 CA         30.1003    5.9837   30.6968 C.3       5 GLY6        0.0000 
     34 CA         29.4299    4.8442   29.0378 C.3       5 GLY6        0.0000 
     35 CZ         35.3371   12.3601   25.5569 C.ar      4 PHE5        0.0000 
     36 CZ         35.2728   12.2027   27.0472 C.ar      4 PHE5        0.0000 
     37 CZ         34.6024   11.0632   25.3883 C.ar      4 PHE5        0.0000 
     38 O          34.5381   10.9059   26.8786 O.2       2 ALA2        0.0000 
     39 CZ         34.0605   10.2384   20.7487 C.ar      4 PHE5        0.0000 
     40 CZ         33.9963   10.0811   22.2390 C.ar      4 PHE5        0.0000 
     41 CZ         33.9320    9.9237   23.7294 C.ar      4 PHE5        0.0000 
     42 CA         33.8677    9.7664   25.2197 C.3       5 GLY6        0.0000 
     43 CA         33.8034    9.6090   26.7100 C.3       5 GLY6        0.0000 
     44 N          33.2616    8.7842   22.0704 N.2       2 ALA2        0.0000 
     45 N          33.1973    8.6269   23.5608 N.2       2 ALA2        0.0000 
     46 CA         33.1330    8.4695   25.0511 C.3       5 GLY6        0.0000 
     47 CA         32.3983    7.1727   24.8825 C.3       5 GLY6        0.0000 
     48 CA         32.3340    7.0154   26.3728 C.3       5 GLY6        0.0000 
     49 CA         32.2698    6.8580   27.8632 C.3       5 GLY6        0.0000 
     50 CA         31.4708    5.4038   29.1849 C.3       5 GLY6        0.0000 
     51 CA         31.4065    5.2465   30.6753 C.3       5 GLY6        0.0000 
     52 CZ         36.6432   11.6229   25.5354 C.ar      4 PHE5        0.0000 
     53 CZ         36.0371   10.6407   22.3861 C.ar      4 PHE5        0.0000 
     54 CZ         35.9728   10.4834   23.8765 C.ar      4 PHE5        0.0000 
     55 CA         35.9086   10.3260   25.3668 C.3       5 GLY6        0.0000 
     56 CA         35.3024    9.3439   22.2175 C.3       5 GLY6        0.0000 
     57 CA         35.2382    9.1865   23.7079 C.3       5 GLY6        0.0000 
     58 CA         34.5035    7.8897   23.5393 C.3       5 GLY6        0.0000 
     59 O          27.7451    8.0874   24.7784 O.2       2 ALA2        0.0000 
     60 CZ         27.6808    7.9301   26.2687 C.ar      4 PHE5        0.0000 
     61 CZ         27.4237    7.3007   32.2301 C.ar      4 PHE5        0.0000 
     62 NZ         26.9461    6.6332   26.1001 N.2       3 LYS4        0.0000 
     63 CZ         26.8818    6.4759   27.5904 C.ar      4 PHE5        0.0000 
     64 CZ         26.1472    5.1790   27.4219 C.ar      4 PHE5        0.0000 
     65 CA         32.1829   13.0096   20.9602 C.3       5 GLY6        0.0000 
     66 CZ         31.9900   12.5376   25.4313 C.ar      4 PHE5        0.0000 
     67 DU         31.4482   11.7127   20.7916 H         6 CUB7        0.0000 
     68 CZ         31.3839   11.5554   22.2820 C.ar      4 PHE5        0.0000 
     69 CZ         31.3196   11.3981   23.7723 C.ar      4 PHE5        0.0000 
     70 CZ         31.2553   11.2407   25.2627 C.ar      4 PHE5        0.0000 
     71 DU         31.1911   11.0834   26.7530 H         6 CUB7        0.0000 
     72 O          31.1268   10.9261   28.2433 O.2       2 ALA2        0.0000 
     73 N          30.7135   10.4159   20.6231 N.2       2 ALA2        0.0000 
     74 N          30.6492   10.2586   22.1134 N.2       2 ALA2        0.0000 
     75 N          30.5849   10.1012   23.6037 N.2       2 ALA2        0.0000 
     76 DU         30.5206    9.9439   25.0941 H         6 CUB7        0.0000 
     77 DU         30.3921    9.6292   28.0748 H         6 CUB7        0.0000 
     78 N          30.3278    9.4719   29.5651 N.2       2 ALA2        0.0000 
     79 N          30.2635    9.3146   31.0554 N.2       2 ALA2        0.0000 
     80 N          30.1992    9.1572   32.5458 N.2       2 ALA2        0.0000 
     81 O          29.7860    8.6471   24.9255 O.2       2 ALA2        0.0000 
     82 CA         29.7217    8.4897   26.4158 C.3       5 GLY6        0.0000 
     83 CZ         29.6574    8.3324   27.9062 C.ar      4 PHE5        0.0000 
     84 CZ         29.5931    8.1750   29.3965 C.ar      4 PHE5        0.0000 
     85 N          29.5288    8.0177   30.8868 N.2       2 ALA2        0.0000 
     86 N          29.4646    7.8604   32.3772 N.2       2 ALA2        0.0000 
     87 CA         28.9870    7.1929   26.2472 C.3       5 GLY6        0.0000 
     88 CA         28.9227    7.0355   27.7376 C.3       5 GLY6        0.0000 
     89 CZ         28.8584    6.8782   29.2279 C.ar      4 PHE5        0.0000 
     90 CZ         28.7941    6.7209   30.7182 C.ar      4 PHE5        0.0000 
     91 CA         28.7299    6.5635   32.2086 C.3       5 GLY6        0.0000 
     92 CA         28.2523    5.8960   26.0786 C.3       5 GLY6        0.0000 
     93 CA         28.1880    5.7387   27.5690 C.3       5 GLY6        0.0000 
     94 CZ         28.1237    5.5814   29.0593 C.ar      4 PHE5        0.0000 
     95 CA         28.0595    5.4240   30.5496 C.3       5 GLY6        0.0000 
@<TRIPOS>BOND
@<TRIPOS>SUBSTRUCTURE
     1 SER1       13 GROUP   
     2 ALA2        8 GROUP   
     3 LYS4       62 GROUP   
     4 PHE5        1 GROUP   
     5 GLY6       26 GROUP   
     6 CUB7        4 GROUP   
@<TRIPOS>SET

