#    Name: 3oq5_MLZ_1_INTS_M
#    Modification time : Tue Mar 25 05:01:16 2014

@<TRIPOS>MOLECULE
3oq5_MLZ_1_INTS_M
   24     0     6     0     0
SMALL
NO_CHARGES


@<TRIPOS>ATOM
      1 CA         29.5105    6.3190   26.5910 C.3       2 GLC5        0.0000 
      2 CA         28.2450    7.8570   26.4850 C.3       6 GLL5        0.0000 
      3 CA         30.7760    4.7810   26.6970 C.3       4 GLP5        0.0000 
      4 CA         25.4985    7.8850   25.4175 C.3       2 GLC5        0.0000 
      5 CA         26.9020    7.1370   26.5050 C.3       6 GLL5        0.0000 
      6 CA         24.0950    8.6330   24.3300 C.3       4 GLP5        0.0000 
      7 OD1        26.9070    4.9775   25.4450 O.co2     1 ASC3        0.0000 
      8 OD1        27.0470    5.6970   26.5740 O.co2     5 ASL3        0.0000 
      9 OD1        26.7670    4.2580   24.3160 O.co2     3 ASP3        0.0000 
     10 CA         26.6660    3.4345   25.4775 C.3       2 GLC5        0.0000 
     11 CA         25.8770    4.8780   26.8260 C.3       6 GLL5        0.0000 
     12 CA         27.4550    1.9910   24.1290 C.3       4 GLP5        0.0000 
     13 CA         26.8085    3.1235   27.6180 C.3       2 GLC5        0.0000 
     14 CA         27.7400    1.3690   28.4100 C.3       4 GLP5        0.0000 
     15 CA         24.3480    3.2685   26.9470 C.3       2 GLC5        0.0000 
     16 CA         22.8190    1.6590   27.0680 C.3       4 GLP5        0.0000 
     17 CA         25.3710    6.0080   28.2635 C.3       2 GLC5        0.0000 
     18 CA         24.8650    7.1380   29.7010 C.3       4 GLP5        0.0000 
     19 CA         24.4990    5.4610   25.4260 C.3       2 GLC5        0.0000 
     20 CA         23.1210    6.0440   24.0260 C.3       4 GLP5        0.0000 
     21 CA         27.3585    9.3957   27.8313 C.3       2 GLC5        0.0000 
     22 CA         28.0680    9.3690   26.3860 C.3       6 GLL5        0.0000 
     23 CA         26.0340    9.0630   29.0070 C.3       4 GLP5        0.0000 
     24 CA         26.8038    8.2800   27.7510 C.3       2 GLC5        0.0000 
@<TRIPOS>BOND
@<TRIPOS>SUBSTRUCTURE
     1 ASC3        7 GROUP        1 X    ASC  0     ROOT ASC X 3
     2 GLC5        1 GROUP        1 X    GLC  0     **** GLC X 6
     3 ASP3        9 GROUP        1 Y    ASP  0     ROOT ASP Y 10
     4 GLP5        3 GROUP        1 Y    GLP  0     **** GLP Y 13
     5 ASL3        8 GROUP        1 Z    ASL  0     ROOT ASL Z 17
     6 GLL5        2 GROUP        1 Z    GLL  0     **** GLL Z 20
@<TRIPOS>SET

