#    Name: 3oq5_MLZ_1_ligand
#    Modification time : Tue Mar 25 05:01:16 2014

@<TRIPOS>MOLECULE
3oq5_MLZ_1_ligand
   26    25     1     0     0
SMALL
NO_CHARGES


@<TRIPOS>ATOM
      1 N          27.8520   11.8810   26.0450 N.4       1 MLZ382      0.0000 
      2 CA         29.1470   11.5920   26.7280 C.3       1 MLZ382      0.0000 
      3 CB         29.2980   10.0880   26.9250 C.3       1 MLZ382      0.0000 
      4 CG         28.0680    9.3690   26.3860 C.3       1 MLZ382      0.0000 
      5 CD         28.2450    7.8570   26.4850 C.3       1 MLZ382      0.0000 
      6 CE         26.9020    7.1370   26.5050 C.3       1 MLZ382      0.0000 
      7 NZ         27.0470    5.6970   26.5740 N.4       1 MLZ382      0.0000 
      8 CM         25.8770    4.8780   26.8260 C.3       1 MLZ382      0.0000 
      9 C          30.3100   12.1610   25.9630 C.2       1 MLZ382      0.0000 
     10 O          31.4090   11.6090   25.9360 O.2       1 MLZ382      0.0000 
     11 H          29.1251   12.0523   27.7209 H         1 MLZ382      0.0000 
     12 H          29.4068    9.8727   27.9835 H         1 MLZ382      0.0000 
     13 H          30.1796    9.7421   26.3942 H         1 MLZ382      0.0000 
     14 H          27.9160    9.6454   25.3444 H         1 MLZ382      0.0000 
     15 H          27.1943    9.6669   26.9626 H         1 MLZ382      0.0000 
     16 H          28.7948    7.6190   27.3984 H         1 MLZ382      0.0000 
     17 H          28.8284    7.5071   25.6303 H         1 MLZ382      0.0000 
     18 H          26.3439    7.4339   25.5983 H         1 MLZ382      0.0000 
     19 H          26.3257    7.5168   27.3683 H         1 MLZ382      0.0000 
     20 H          30.0574   13.0644   25.4733 H         1 MLZ382      0.0000 
     21 H          27.7179   12.8617   25.9028 H         1 MLZ382      0.0000 
     22 H          27.8005   11.4448   25.1466 H         1 MLZ382      0.0000 
     23 H          27.0708   11.5522   26.5756 H         1 MLZ382      0.0000 
     24 H          26.1029    3.9041   26.8471 H         1 MLZ382      0.0000 
     25 H          25.4508    5.0991   27.7032 H         1 MLZ382      0.0000 
     26 H          25.1784    5.0016   26.1213 H         1 MLZ382      0.0000 
@<TRIPOS>BOND
     1    2    1 1    
     2   21    1 1    
     3   22    1 1    
     4   23    1 1    
     5    3    2 1    
     6    9    2 1    
     7   11    2 1    
     8    4    3 1    
     9   12    3 1    
    10   13    3 1    
    11    5    4 1    
    12   14    4 1    
    13   15    4 1    
    14    6    5 1    
    15   16    5 1    
    16   17    5 1    
    17    7    6 1    
    18   18    6 1    
    19   19    6 1    
    20    8    7 1    
    21   24    8 1    
    22   25    8 1    
    23   26    8 1    
    24   10    9 2    
    25   20    9 1    
@<TRIPOS>SUBSTRUCTURE
     1 MLZ382      1 GROUP   
@<TRIPOS>SET

