#    Name: 3vr9_FTN_2_INTS_M
#    Modification time : Tue Mar 25 01:19:45 2014

@<TRIPOS>MOLECULE
3vr9_FTN_2_INTS_M
   65     0     6     0     0
SMALL
NO_CHARGES


@<TRIPOS>ATOM
      1 CA        -91.9410  -22.5980   57.0715 C.3       2 GLC5        0.0000 
      2 CA        -91.6080  -22.4450   59.1480 C.3       6 GLL5        0.0000 
      3 CA        -92.2740  -22.7510   54.9950 C.3       4 GLP5        0.0000 
      4 N         -91.0330  -24.0860   60.9755 N.am      1 SEC2        0.0000 
      5 N         -92.1810  -23.3080   61.5800 N.am      5 SEL2        0.0000 
      6 N         -89.8850  -24.8640   60.3710 N.am      3 SEP2        0.0000 
      7 N         -93.2630  -23.4955   60.8365 N.am      1 SEC2        0.0000 
      8 N         -94.3450  -23.6830   60.0930 N.am      3 SEP2        0.0000 
      9 CA        -89.4375  -22.1135   62.0445 C.3       2 GLC5        0.0000 
     10 CA        -90.1840  -21.6260   60.5790 C.3       6 GLL5        0.0000 
     11 CA        -88.6910  -22.6010   63.5100 C.3       4 GLP5        0.0000 
     12 CA        -91.3935  -19.7975   62.0540 C.3       2 GLC5        0.0000 
     13 CA        -92.9630  -21.0710   61.4610 C.3       6 GLL5        0.0000 
     14 CA        -89.8240  -18.5240   62.6470 C.3       4 GLP5        0.0000 
     15 CA        -88.7160  -20.3650   58.9100 C.3       2 GLC5        0.0000 
     16 CA        -90.4510  -20.6260   58.7170 C.3       6 GLL5        0.0000 
     17 CA        -86.9810  -20.1040   59.1030 C.3       4 GLP5        0.0000 
     18 CA        -90.4830  -19.0455   57.7470 C.3       2 GLC5        0.0000 
     19 CA        -90.5150  -17.4650   56.7770 C.3       4 GLP5        0.0000 
     20 CA        -96.2580  -19.4905   61.1915 C.3       2 GLC5        0.0000 
     21 CA        -94.3910  -19.1590   61.4130 C.3       6 GLL5        0.0000 
     22 CA        -98.1250  -19.8220   60.9700 C.3       4 GLP5        0.0000 
     23 CA        -92.4495  -17.5080   59.6370 C.3       2 GLC5        0.0000 
     24 CA        -93.7120  -18.6860   60.2800 C.3       6 GLL5        0.0000 
     25 CA        -91.1870  -16.3300   58.9940 C.3       4 GLP5        0.0000 
     26 CA        -95.2790  -20.0080   59.8210 C.3       2 GLC5        0.0000 
     27 CA        -96.8460  -21.3300   59.3620 C.3       4 GLP5        0.0000 
     28 CA        -92.0230  -18.1645   58.6830 C.3       2 GLC5        0.0000 
     29 CA        -92.6510  -19.3800   59.7030 C.3       6 GLL5        0.0000 
     30 CA        -91.3950  -16.9490   57.6630 C.3       4 GLP5        0.0000 
     31 CA        -91.2375  -18.9520   61.1750 C.3       2 GLC5        0.0000 
     32 CA        -90.6310  -22.9430   63.8835 C.3       2 GLC5        0.0000 
     33 CA        -92.5710  -23.2850   64.2570 C.3       6 GLL5        0.0000 
     34 CA        -91.0600  -26.9460   66.8385 C.3       2 GLC5        0.0000 
     35 CA        -91.8340  -25.4680   65.7990 C.3       6 GLL5        0.0000 
     36 CA        -90.2860  -28.4240   67.8780 C.3       4 GLP5        0.0000 
     37 CA        -91.7320  -27.5690   65.1530 C.3       2 GLC5        0.0000 
     38 CA        -92.4520  -25.7020   64.6320 C.3       6 GLL5        0.0000 
     39 CA        -91.0120  -29.4360   65.6740 C.3       4 GLP5        0.0000 
     40 CA        -91.2860  -22.4720   69.2180 C.3       2 GLC5        0.0000 
     41 CA        -90.5610  -23.7330   68.4720 C.3       6 GLL5        0.0000 
     42 CA        -92.0110  -21.2110   69.9640 C.3       4 GLP5        0.0000 
     43 CA        -88.0140  -24.2855   70.3005 C.3       2 GLC5        0.0000 
     44 CA        -89.1880  -23.4750   69.0770 C.3       6 GLL5        0.0000 
     45 CA        -86.8400  -25.0960   71.5240 C.3       4 GLP5        0.0000 
     46 CA        -90.3215  -22.5940   70.1180 C.3       2 GLC5        0.0000 
     47 CA        -91.4550  -21.7130   71.1590 C.3       4 GLP5        0.0000 
     48 CA        -90.7365  -26.6585   68.5560 C.3       2 GLC5        0.0000 
     49 CA        -91.1870  -24.8930   69.2340 C.3       6 GLL5        0.0000 
     50 CA        -92.2215  -24.0620   70.3380 C.3       2 GLC5        0.0000 
     51 CA        -93.2560  -23.2310   71.4420 C.3       4 GLP5        0.0000 
     52 CA        -88.7782  -21.5275   59.8210 C.3       2 GLC5        0.0000 
     53 CA        -86.9240  -21.5760   59.5270 C.3       4 GLP5        0.0000 
     54 CA        -92.2083  -23.4558   59.0312 C.3       2 GLC5        0.0000 
     55 CA        -91.0810  -21.3320   59.6510 C.3       6 GLL5        0.0000 
     56 CA        -93.0720  -25.0230   58.6630 C.3       4 GLP5        0.0000 
     57 CA        -90.3719  -19.9065   61.4574 C.3       2 GLC5        0.0000 
     58 CA        -95.1665  -21.0192   60.5487 C.3       2 GLC5        0.0000 
     59 CA        -89.9383  -23.0088   59.2521 C.3       2 GLC5        0.0000 
     60 CA        -89.2690  -24.8260   59.1510 C.3       4 GLP5        0.0000 
     61 CA        -90.2052  -22.5485   65.1912 C.3       2 GLC5        0.0000 
     62 CA        -91.7250  -23.0810   65.2730 C.3       6 GLL5        0.0000 
     63 CA        -88.7040  -21.5180   64.5530 C.3       4 GLP5        0.0000 
     64 CA        -88.2897  -24.4700   68.0093 C.3       2 GLC5        0.0000 
     65 CA        -86.7050  -25.3360   67.2440 C.3       4 GLP5        0.0000 
@<TRIPOS>BOND
@<TRIPOS>SUBSTRUCTURE
     1 SEC2        4 GROUP        1 X    SEC  0     ROOT SEC X 2
     2 GLC5        1 GROUP        1 X    GLC  0     **** GLC X 6
     3 SEP2        6 GROUP        1 Y    SEP  0     ROOT SEP Y 9
     4 GLP5        3 GROUP        1 Y    GLP  0     **** GLP Y 13
     5 SEL2        5 GROUP        1 Z    SEL  0     ROOT SEL Z 16
     6 GLL5        2 GROUP        1 Z    GLL  0     **** GLL Z 20
@<TRIPOS>SET

