#    Name: 3vr9_FTN_2_ligand
#    Modification time : Tue Mar 25 01:19:46 2014

@<TRIPOS>MOLECULE
3vr9_FTN_2_ligand
   39    40     1     0     0
SMALL
NO_CHARGES


@<TRIPOS>ATOM
      1 N         -92.8210  -22.2580   63.4690 N.am      1 FTN304      0.0000 
      2 C1        -91.0810  -21.3320   59.6510 C.3       1 FTN304      0.0000 
      3 F1        -91.6080  -22.4450   59.1480 F         1 FTN304      0.0000 
      4 O1        -92.1810  -23.3080   61.5800 O.2       1 FTN304      0.0000 
      5 C2        -92.2300  -20.5720   60.2620 C.ar      1 FTN304      0.0000 
      6 F2        -90.1840  -21.6260   60.5790 F         1 FTN304      0.0000 
      7 O2        -90.4400  -23.9640   67.0550 O.3       1 FTN304      0.0000 
      8 C3        -92.9630  -21.0710   61.4610 C.ar      1 FTN304      0.0000 
      9 F3        -90.4510  -20.6260   58.7170 F         1 FTN304      0.0000 
     10 C4        -94.0110  -20.3460   62.0100 C.ar      1 FTN304      0.0000 
     11 C5        -94.3910  -19.1590   61.4130 C.ar      1 FTN304      0.0000 
     12 C6        -93.7120  -18.6860   60.2800 C.ar      1 FTN304      0.0000 
     13 C7        -92.6510  -19.3800   59.7030 C.ar      1 FTN304      0.0000 
     14 C8        -92.6090  -22.3260   62.1650 C.2       1 FTN304      0.0000 
     15 C9        -92.5710  -23.2850   64.2570 C.ar      1 FTN304      0.0000 
     16 C10       -91.7250  -23.0810   65.2730 C.ar      1 FTN304      0.0000 
     17 C11       -91.6880  -24.0770   66.3860 C.ar      1 FTN304      0.0000 
     18 C12       -91.8340  -25.4680   65.7990 C.ar      1 FTN304      0.0000 
     19 C13       -92.4520  -25.7020   64.6320 C.ar      1 FTN304      0.0000 
     20 C14       -93.2560  -24.6090   63.9770 C.ar      1 FTN304      0.0000 
     21 C15       -90.5610  -23.7330   68.4720 C.3       1 FTN304      0.0000 
     22 C16       -89.1880  -23.4750   69.0770 C.3       1 FTN304      0.0000 
     23 C17       -91.1870  -24.8930   69.2340 C.3       1 FTN304      0.0000 
     24 H         -93.1990  -21.3600   63.8863 H         1 FTN304      0.0000 
     25 H         -94.4941  -20.6876   62.8453 H         1 FTN304      0.0000 
     26 H         -95.1758  -18.6117   61.7948 H         1 FTN304      0.0000 
     27 H         -94.0156  -17.7824   59.8580 H         1 FTN304      0.0000 
     28 H         -92.1876  -19.0043   58.8675 H         1 FTN304      0.0000 
     29 H         -91.0948  -22.2921   65.3525 H         1 FTN304      0.0000 
     30 H         -91.4145  -26.2202   66.3789 H         1 FTN304      0.0000 
     31 H         -92.4230  -26.5891   64.1320 H         1 FTN304      0.0000 
     32 H         -94.0128  -24.7173   63.5007 H         1 FTN304      0.0000 
     33 H         -91.1631  -22.8432   68.6719 H         1 FTN304      0.0000 
     34 H         -88.5710  -24.2502   68.9418 H         1 FTN304      0.0000 
     35 H         -88.7471  -22.6750   68.6699 H         1 FTN304      0.0000 
     36 H         -89.2411  -23.3109   70.0620 H         1 FTN304      0.0000 
     37 H         -90.6513  -25.7320   69.1390 H         1 FTN304      0.0000 
     38 H         -91.2576  -24.6996   70.2126 H         1 FTN304      0.0000 
     39 H         -92.1103  -25.0963   68.9081 H         1 FTN304      0.0000 
@<TRIPOS>BOND
     1   14    1 am   
     2   15    1 1    
     3   24    1 1    
     4    3    2 1    
     5    5    2 1    
     6    6    2 1    
     7    9    2 1    
     8   14    4 2    
     9    8    5 ar   
    10   13    5 ar   
    11   17    7 1    
    12   21    7 1    
    13   10    8 ar   
    14   14    8 1    
    15   11   10 ar   
    16   25   10 1    
    17   12   11 ar   
    18   26   11 1    
    19   13   12 ar   
    20   27   12 1    
    21   28   13 1    
    22   16   15 ar   
    23   20   15 ar   
    24   17   16 ar   
    25   29   16 1    
    26   18   17 ar   
    27   19   18 ar   
    28   30   18 1    
    29   20   19 ar   
    30   31   19 1    
    31   32   20 1    
    32   22   21 1    
    33   23   21 1    
    34   33   21 1    
    35   34   22 1    
    36   35   22 1    
    37   36   22 1    
    38   37   23 1    
    39   38   23 1    
    40   39   23 1    
@<TRIPOS>SUBSTRUCTURE
     1 FTN304      1 GROUP   
@<TRIPOS>SET

