#    Name: 3G2Y_2_CAVITY_N1_ALL.mol2
#    Modification time : Mon Mar 10 18:12:01 2014

@<TRIPOS>MOLECULE
3G2Y_2_CAVITY_N1_ALL.mol2
   86     0     6     0     0
SMALL
NO_CHARGES


@<TRIPOS>ATOM
      1 CA         33.3526   95.7251   -3.0271 C.3       5 GLY6        0.0000 
      2 O          33.9125   97.4630   -8.9361 O.2       2 ALA2        0.0000 
      3 O          33.1666   96.1367   -6.3507 O.2       2 ALA2        0.0000 
      4 CA         32.7936   95.4735   -5.0580 C.3       5 GLY6        0.0000 
      5 OG         32.4207   94.8103   -3.7653 O.2       1 SER1        0.0000 
      6 CA         32.9806   96.5483   -9.6742 C.3       5 GLY6        0.0000 
      7 O          32.6077   95.8851   -8.3815 O.2       2 ALA2        0.0000 
      8 DU         32.2347   95.2220   -7.0888 H         6 CUB7        0.0000 
      9 OG         31.8617   94.5588   -5.7961 O.2       1 SER1        0.0000 
     10 OG         31.4888   93.8956   -4.5034 O.2       1 SER1        0.0000 
     11 CA         32.4217   96.2968  -11.7051 C.3       5 GLY6        0.0000 
     12 CA         32.0487   95.6336  -10.4124 C.3       5 GLY6        0.0000 
     13 DU         31.6758   94.9704   -9.1197 H         6 CUB7        0.0000 
     14 DU         31.3028   94.3073   -7.8269 H         6 CUB7        0.0000 
     15 OG         30.9298   93.6441   -6.5342 O.2       1 SER1        0.0000 
     16 OG         31.1168   94.7189  -11.1505 O.2       1 SER1        0.0000 
     17 DU         30.7438   94.0557   -9.8578 H         6 CUB7        0.0000 
     18 DU         30.3709   93.3925   -8.5651 H         6 CUB7        0.0000 
     19 OG         29.9979   92.7294   -7.2724 O.2       1 SER1        0.0000 
     20 CZ         29.8119   93.1410  -10.5959 C.ar      4 PHE5        0.0000 
     21 OG         29.4390   92.4778   -9.3032 O.2       1 SER1        0.0000 
     22 OG         29.0660   91.8146   -8.0105 O.2       1 SER1        0.0000 
     23 CZ         28.8800   92.2263  -11.3340 C.ar      4 PHE5        0.0000 
     24 OG         28.5071   91.5631  -10.0413 O.2       1 SER1        0.0000 
     25 OG         28.1341   90.8999   -8.7486 O.2       1 SER1        0.0000 
     26 N          27.7611   90.2368   -7.4559 N.2       2 ALA2        0.0000 
     27 N          27.5752   90.6484  -10.7795 N.2       2 ALA2        0.0000 
     28 O          27.2022   89.9852   -9.4868 O.2       2 ALA2        0.0000 
     29 O          26.8292   89.3220   -8.1941 O.2       2 ALA2        0.0000 
     30 O          34.6542   95.8132   -7.8280 O.2       2 ALA2        0.0000 
     31 O          34.2813   95.1500   -6.5353 O.2       2 ALA2        0.0000 
     32 CA         33.9083   94.4869   -5.2425 C.3       5 GLY6        0.0000 
     33 CA         33.5353   93.8237   -3.9498 C.3       5 GLY6        0.0000 
     34 CA         33.7223   94.8985   -8.5661 C.3       5 GLY6        0.0000 
     35 OG         33.3493   94.2353   -7.2734 O.2       1 SER1        0.0000 
     36 OG         32.9764   93.5721   -5.9807 O.2       1 SER1        0.0000 
     37 CA         32.6034   92.9090   -4.6880 C.3       5 GLY6        0.0000 
     38 OG         32.7904   93.9838   -9.3042 O.2       1 SER1        0.0000 
     39 OG         32.4174   93.3206   -8.0115 O.2       1 SER1        0.0000 
     40 OG         32.0445   92.6574   -6.7188 O.2       1 SER1        0.0000 
     41 CA         31.8585   93.0690  -10.0424 C.3       5 GLY6        0.0000 
     42 OG         31.4855   92.4059   -8.7496 O.2       1 SER1        0.0000 
     43 OG         31.1126   91.7427   -7.4569 O.2       1 SER1        0.0000 
     44 OG         30.5536   91.4912   -9.4878 O.2       1 SER1        0.0000 
     45 OG         30.1806   90.8280   -8.1951 O.2       1 SER1        0.0000 
     46 OG         29.2487   89.9133   -8.9332 O.2       1 SER1        0.0000 
     47 N          28.8758   89.2501   -7.6405 N.2       2 ALA2        0.0000 
     48 CA         35.3959   94.1634   -6.7198 C.3       5 GLY6        0.0000 
     49 CA         35.0229   93.5002   -5.4271 C.3       5 GLY6        0.0000 
     50 CA         34.6500   92.8370   -4.1344 C.3       5 GLY6        0.0000 
     51 CA         34.0910   92.5855   -6.1652 C.3       5 GLY6        0.0000 
     52 O          33.1591   91.6708   -6.9034 O.2       2 ALA2        0.0000 
     53 OG         32.6002   91.4192   -8.9342 O.2       1 SER1        0.0000 
     54 DU         28.1416   95.3658   -8.1959 H         6 CUB7        0.0000 
     55 CZ         27.5826   95.1143  -10.2268 C.ar      4 PHE5        0.0000 
     56 CZ         27.2097   94.4511   -8.9341 C.ar      4 PHE5        0.0000 
     57 DU         26.8367   93.7880   -7.6414 H         6 CUB7        0.0000 
     58 CZ         26.2778   93.5364   -9.6722 C.ar      4 PHE5        0.0000 
     59 DU         25.9048   92.8732   -8.3795 H         6 CUB7        0.0000 
     60 CA         24.9729   91.9585   -9.1176 C.3       5 GLY6        0.0000 
     61 O          24.5999   91.2954   -7.8249 O.2       2 ALA2        0.0000 
     62 OD1        32.6109   97.3749   -4.1353 O.3       3 ASP3        0.0000 
     63 CA         32.2379   96.7117   -2.8426 C.3       5 GLY6        0.0000 
     64 OD1        31.6790   96.4602   -4.8734 O.3       3 ASP3        0.0000 
     65 DU         31.4930   96.8718   -8.1970 H         6 CUB7        0.0000 
     66 DU         31.1200   96.2086   -6.9042 H         6 CUB7        0.0000 
     67 OG         30.7471   95.5455   -5.6115 O.2       1 SER1        0.0000 
     68 OG         30.3741   94.8823   -4.3188 O.2       1 SER1        0.0000 
     69 DU         30.5611   95.9571   -8.9351 H         6 CUB7        0.0000 
     70 DU         30.1881   95.2939   -7.6424 H         6 CUB7        0.0000 
     71 OG         29.8152   94.6307   -6.3497 O.2       1 SER1        0.0000 
     72 OG         30.0022   95.7055  -10.9659 O.2       1 SER1        0.0000 
     73 CZ         29.6292   95.0424   -9.6732 C.ar      4 PHE5        0.0000 
     74 DU         29.2562   94.3792   -8.3805 H         6 CUB7        0.0000 
     75 OG         28.8833   93.7160   -7.0878 O.2       1 SER1        0.0000 
     76 CZ         28.6973   94.1276  -10.4113 C.ar      4 PHE5        0.0000 
     77 CZ         28.3243   93.4645   -9.1186 C.ar      4 PHE5        0.0000 
     78 OG         27.9514   92.8013   -7.8259 O.2       1 SER1        0.0000 
     79 OG         27.5784   92.1381   -6.5332 O.2       1 SER1        0.0000 
     80 CZ         27.3924   92.5498   -9.8568 C.ar      4 PHE5        0.0000 
     81 DU         27.0194   91.8866   -8.5641 H         6 CUB7        0.0000 
     82 DU         26.6465   91.2234   -7.2714 H         6 CUB7        0.0000 
     83 N          26.2735   90.5602   -5.9786 N.2       2 ALA2        0.0000 
     84 CA         26.4605   91.6350  -10.5949 C.3       5 GLY6        0.0000 
     85 O          26.0875   90.9719   -9.3022 O.2       2 ALA2        0.0000 
     86 O          25.7146   90.3087   -8.0095 O.2       2 ALA2        0.0000 
@<TRIPOS>BOND
@<TRIPOS>SUBSTRUCTURE
     1 SER1        5 GROUP   
     2 ALA2        2 GROUP   
     3 ASP3       62 GROUP   
     4 PHE5       20 GROUP   
     5 GLY6        1 GROUP   
     6 CUB7        8 GROUP   
@<TRIPOS>SET

