#    Name: 3g2y_GF4_2_INTS_M
#    Modification time : Tue Mar 25 07:01:29 2014

@<TRIPOS>MOLECULE
3g2y_GF4_2_INTS_M
   20     0     9     0     0
SMALL
NO_CHARGES


@<TRIPOS>ATOM
      1 CA         26.8910   89.6190   -4.2680 C.3       3 GLC5        0.0000 
      2 CA         26.3130   90.6220   -6.0720 C.3       9 GLL5        0.0000 
      3 CA         27.4690   88.6160   -2.4640 C.3       6 GLP5        0.0000 
      4 O          28.7780   89.8775   -5.8300 O.2       1 ALC1        0.0000 
      5 O          28.7210   91.0280   -6.7810 O.2       7 ALL1        0.0000 
      6 O          28.8350   88.7270   -4.8790 O.2       4 ALP1        0.0000 
      7 N          30.6005   92.0255   -5.7940 N.am      2 SEC2        0.0000 
      8 N          31.4380   92.1480   -6.9140 N.am      8 SEL2        0.0000 
      9 N          29.7630   91.9030   -4.6740 N.am      5 SEP2        0.0000 
     10 N          34.0850   91.9495   -8.2520 N.am      2 SEC2        0.0000 
     11 N          32.7720   92.0610   -7.3410 N.am      8 SEL2        0.0000 
     12 N          35.3980   91.8380   -9.1630 N.am      5 SEP2        0.0000 
     13 N          34.0855   91.6790   -8.9005 N.am      2 SEC2        0.0000 
     14 N          32.7730   91.5200   -8.6380 N.am      8 SEL2        0.0000 
     15 O          31.3835   90.6380  -10.3095 O.2       1 ALC1        0.0000 
     16 O          31.4420   91.2690   -9.0010 O.2       7 ALL1        0.0000 
     17 O          31.3250   90.0070  -11.6180 O.2       4 ALP1        0.0000 
     18 CA         25.1575   92.8240  -10.5267 C.3       3 GLC5        0.0000 
     19 CA         25.8660   92.1700   -8.9910 C.3       9 GLL5        0.0000 
     20 CA         24.6290   92.7630  -12.2280 C.3       6 GLP5        0.0000 
@<TRIPOS>BOND
@<TRIPOS>SUBSTRUCTURE
     1 ALC1        4 GROUP        1 X    ALC  0     ROOT ALC X 1
     2 SEC2        7 GROUP        1 X    SEC  0     **** SEC X 2
     3 GLC5        1 GROUP        1 X    GLC  0     **** GLC X 6
     4 ALP1        6 GROUP        1 Y    ALP  0     ROOT ALP Y 8
     5 SEP2        9 GROUP        1 Y    SEP  0     **** SEP Y 9
     6 GLP5        3 GROUP        1 Y    GLP  0     **** GLP Y 13
     7 ALL1        5 GROUP        1 Z    ALL  0     ROOT ALL Z 15
     8 SEL2        8 GROUP        1 Z    SEL  0     **** SEL Z 16
     9 GLL5        2 GROUP        1 Z    GLL  0     **** GLL Z 20
@<TRIPOS>SET

