#    Name: 3g2y_GF4_2_ligand
#    Modification time : Tue Mar 25 07:01:29 2014

@<TRIPOS>MOLECULE
3g2y_GF4_2_ligand
   24    25     1     0     0
SMALL
NO_CHARGES


@<TRIPOS>ATOM
      1 O11        28.8660   92.6700   -9.8680 O.2       1 GF42        0.0000 
      2 C3         28.5490   92.0900   -8.7640 C.2       1 GF42        0.0000 
      3 C4         27.1690   91.8250   -8.3120 C.2       1 GF42        0.0000 
      4 C12        25.8660   92.1700   -8.9910 C.3       1 GF42        0.0000 
      5 C13        25.5060   93.6000   -8.6600 C.3       1 GF42        0.0000 
      6 C5         27.3860   91.1300   -7.0020 C.2       1 GF42        0.0000 
      7 C14        26.3130   90.6220   -6.0720 C.3       1 GF42        0.0000 
      8 N1         28.7210   91.0280   -6.7810 N.pl3     1 GF42        0.0000 
      9 N2         29.3930   91.6010   -7.8690 N.am      1 GF42        0.0000 
     10 C6         30.7300   91.6710   -7.9340 C.2       1 GF42        0.0000 
     11 N10        31.4380   92.1480   -6.9140 N.2       1 GF42        0.0000 
     12 N9         32.7720   92.0610   -7.3410 N.2       1 GF42        0.0000 
     13 N8         32.7730   91.5200   -8.6380 N.2       1 GF42        0.0000 
     14 N7         31.4420   91.2690   -9.0010 N.pl3     1 GF42        0.0000 
     15 H          25.0839   91.5075   -8.6368 H         1 GF42        0.0000 
     16 H          25.9748   92.0623  -10.0646 H         1 GF42        0.0000 
     17 H          29.1525   90.6385   -6.0248 H         1 GF42        0.0000 
     18 H          31.1546   90.9056   -9.8065 H         1 GF42        0.0000 
     19 H          26.2092   94.2408   -8.9679 H         1 GF42        0.0000 
     20 H          24.6478   93.8766   -9.0925 H         1 GF42        0.0000 
     21 H          25.3955   93.7368   -7.6756 H         1 GF42        0.0000 
     22 H          26.7011   90.1959   -5.2548 H         1 GF42        0.0000 
     23 H          25.7118   91.3582   -5.7613 H         1 GF42        0.0000 
     24 H          25.7335   89.9366   -6.5128 H         1 GF42        0.0000 
@<TRIPOS>BOND
     1    2    1 2    
     2    3    2 1    
     3    9    2 am   
     4    4    3 1    
     5    6    3 2    
     6    5    4 1    
     7   15    4 1    
     8   16    4 1    
     9   19    5 1    
    10   20    5 1    
    11   21    5 1    
    12    7    6 1    
    13    8    6 1    
    14   22    7 1    
    15   23    7 1    
    16   24    7 1    
    17    9    8 1    
    18   17    8 1    
    19   10    9 1    
    20   11   10 2    
    21   14   10 1    
    22   12   11 1    
    23   13   12 2    
    24   14   13 1    
    25   18   14 1    
@<TRIPOS>SUBSTRUCTURE
     1 GF42        1 GROUP   
@<TRIPOS>SET

