#    Name: 3hc5_82X_1_INTS_M
#    Modification time : Tue Mar 25 13:55:12 2014

@<TRIPOS>MOLECULE
3hc5_82X_1_INTS_M
  108     0     9     0     0
SMALL
NO_CHARGES


@<TRIPOS>ATOM
      1 CA          2.6225   23.6225   51.8330 C.3       3 GLC5        0.0000 
      2 CA          1.7740   24.8980   53.2400 C.3       9 GLL5        0.0000 
      3 CA          3.4710   22.3470   50.4260 C.3       6 GLP5        0.0000 
      4 CA          0.8795   29.8045   60.7740 C.3       3 GLC5        0.0000 
      5 CA          2.2180   28.2860   60.8180 C.3       9 GLL5        0.0000 
      6 CA         -0.4590   31.3230   60.7300 C.3       6 GLP5        0.0000 
      7 CA         -0.4965   22.0950   58.2175 C.3       3 GLC5        0.0000 
      8 CA         -0.7300   23.9380   57.0370 C.3       9 GLL5        0.0000 
      9 CA         -0.2630   20.2520   59.3980 C.3       6 GLP5        0.0000 
     10 N          -3.6175   24.1280   53.1495 N.am      1 SEC2        0.0000 
     11 N          -2.5860   23.2920   53.9960 N.am      7 SEL2        0.0000 
     12 N          -4.6490   24.9640   52.3030 N.am      4 SEP2        0.0000 
     13 CA         -6.7095   21.6925   57.3585 C.3       3 GLC5        0.0000 
     14 CA         -4.8580   22.4490   57.5910 C.3       9 GLL5        0.0000 
     15 CA         -8.5610   20.9360   57.1260 C.3       6 GLP5        0.0000 
     16 CA         -6.1715   23.4715   58.6510 C.3       3 GLC5        0.0000 
     17 CA         -7.4850   24.4940   59.7110 C.3       6 GLP5        0.0000 
     18 CA         -5.3175   24.0420   56.6685 C.3       3 GLC5        0.0000 
     19 CA         -5.7770   25.6350   55.7460 C.3       6 GLP5        0.0000 
     20 CA         -4.2175   18.9350   57.0425 C.3       3 GLC5        0.0000 
     21 CA         -3.1460   20.5790   57.3600 C.3       9 GLL5        0.0000 
     22 CA         -5.2890   17.2910   56.7250 C.3       6 GLP5        0.0000 
     23 CA         -3.1170   20.1555   55.2850 C.3       3 GLC5        0.0000 
     24 CA         -3.0880   19.7320   53.2100 C.3       6 GLP5        0.0000 
     25 CA         -2.7270   27.9880   55.2115 C.3       3 GLC5        0.0000 
     26 CA         -2.2810   26.8040   54.0660 C.3       9 GLL5        0.0000 
     27 CA         -3.1730   29.1720   56.3570 C.3       6 GLP5        0.0000 
     28 CA         -3.0835   25.9285   52.6155 C.3       3 GLC5        0.0000 
     29 CA         -3.8860   25.0530   51.1650 C.3       6 GLP5        0.0000 
     30 CA         -3.9650   26.8670   54.6910 C.3       3 GLC5        0.0000 
     31 CA         -5.6490   26.9300   55.3160 C.3       6 GLP5        0.0000 
     32 CA          2.9710   22.2475   54.7960 C.3       3 GLC5        0.0000 
     33 CA          1.1590   22.4020   54.0480 C.3       9 GLL5        0.0000 
     34 CA          4.7830   22.0930   55.5440 C.3       6 GLP5        0.0000 
     35 CA          0.9450   20.6255   53.1180 C.3       3 GLC5        0.0000 
     36 CA          0.7310   18.8490   52.1880 C.3       6 GLP5        0.0000 
     37 CA          2.3150   22.3745   52.2370 C.3       3 GLC5        0.0000 
     38 CA          4.2595   24.3055   60.5625 C.3       3 GLC5        0.0000 
     39 CA          3.0640   25.8830   60.6960 C.3       9 GLL5        0.0000 
     40 CA          5.4550   22.7280   60.4290 C.3       6 GLP5        0.0000 
     41 CA          7.3130   29.0030   65.8260 C.3       3 GLC5        0.0000 
     42 CA          5.8700   28.6220   64.4970 C.3       9 GLL5        0.0000 
     43 CA          8.7560   29.3840   67.1550 C.3       6 GLP5        0.0000 
     44 CA          3.4645   30.2250   64.9055 C.3       3 GLC5        0.0000 
     45 CA          5.1070   29.6060   63.8250 C.3       9 GLL5        0.0000 
     46 CA          1.8220   30.8440   65.9860 C.3       6 GLP5        0.0000 
     47 CA          4.2820   30.6595   61.1420 C.3       3 GLC5        0.0000 
     48 CA          4.2320   29.2150   62.7860 C.3       9 GLL5        0.0000 
     49 CA          4.3320   32.1040   59.4980 C.3       6 GLP5        0.0000 
     50 N           6.4015   32.5310   64.1410 N.am      1 SEC2        0.0000 
     51 N           5.9680   31.3550   65.0840 N.am      7 SEL2        0.0000 
     52 N           6.8350   33.7070   63.1980 N.am      4 SEP2        0.0000 
     53 NZ          5.6715   32.8380   63.3590 N.4       2 LYC4        0.0000 
     54 NZ          4.5080   31.9690   63.5200 N.4       8 LYL4        0.0000 
     55 NZ          6.6060   33.8610   61.8990 N.4       5 LYP4        0.0000 
     56 N           5.1320   32.5055   62.3990 N.am      1 SEC2        0.0000 
     57 N           4.5080   31.9690   63.5200 N.am      7 SEL2        0.0000 
     58 N           5.7560   33.0420   61.2780 N.am      4 SEP2        0.0000 
     59 N           5.6715   32.8380   63.3590 N.am      1 SEC2        0.0000 
     60 CA          1.9137   28.3027   52.8405 C.3       3 GLC5        0.0000 
     61 CA          0.2880   26.8170   53.2440 C.3       9 GLL5        0.0000 
     62 CA          2.9080   30.0640   52.5640 C.3       6 GLP5        0.0000 
     63 CA         -0.4513   28.2085   54.4303 C.3       3 GLC5        0.0000 
     64 CA         -0.6710   29.9950   55.3500 C.3       6 GLP5        0.0000 
     65 CA         -2.2613   25.1947   52.5363 C.3       3 GLC5        0.0000 
     66 CA         -0.7510   26.0270   53.7770 C.3       9 GLL5        0.0000 
     67 CA         -1.4305   25.7440   58.9433 C.3       3 GLC5        0.0000 
     68 CA         -0.0470   26.0150   58.0900 C.3       9 GLL5        0.0000 
     69 CA         -3.3520   25.7500   59.4360 C.3       6 GLP5        0.0000 
     70 CA         -1.4642   27.1737   59.6740 C.3       3 GLC5        0.0000 
     71 CA         -0.3900   27.3790   58.2490 C.3       9 GLL5        0.0000 
     72 CA         -2.8970   26.5610   60.6510 C.3       6 GLP5        0.0000 
     73 CA         -0.9078   29.0708   57.5110 C.3       3 GLC5        0.0000 
     74 CA          0.3270   28.1940   59.1450 C.3       9 GLL5        0.0000 
     75 CA         -1.7840   30.3550   56.3250 C.3       6 GLP5        0.0000 
     76 CA          0.9445   25.3237   61.0083 C.3       3 GLC5        0.0000 
     77 CA          1.0290   25.4610   58.8110 C.3       9 GLL5        0.0000 
     78 CA          0.5000   24.7700   62.7580 C.3       6 GLP5        0.0000 
     79 CA         -0.3201   29.0176   60.3547 C.3       3 GLC5        0.0000 
     80 CA          1.4070   27.6420   59.8720 C.3       9 GLL5        0.0000 
     81 CA         -1.3280   30.3210   61.4250 C.3       6 GLP5        0.0000 
     82 CA          1.9960   28.0853   63.0583 C.3       3 GLC5        0.0000 
     83 CA          1.2950   28.2980   65.0150 C.3       6 GLP5        0.0000 
     84 CA          4.6848   27.1160   65.4958 C.3       3 GLC5        0.0000 
     85 CA          4.8490   26.8760   63.1230 C.3       9 GLL5        0.0000 
     86 CA          4.0760   27.1680   67.3520 C.3       6 GLP5        0.0000 
     87 CA          5.3323   25.2055   63.9528 C.3       3 GLC5        0.0000 
     88 CA          5.7380   27.2520   64.1560 C.3       9 GLL5        0.0000 
     89 CA          5.3710   23.3470   64.2660 C.3       6 GLP5        0.0000 
     90 CA          3.0810   25.8073   63.1917 C.3       3 GLC5        0.0000 
     91 CA          1.6900   24.2500   63.6050 C.3       6 GLP5        0.0000 
     92 CA          6.7138   28.1400   62.4592 C.3       3 GLC5        0.0000 
     93 CA          8.1340   29.2160   61.2790 C.3       6 GLP5        0.0000 
     94 CA         -2.2790   24.7368   57.9728 C.3       3 GLC5        0.0000 
     95 CA         -1.7615   20.7973   58.3852 C.3       3 GLC5        0.0000 
     96 CA         -3.3740   22.1060   57.3850 C.3       9 GLL5        0.0000 
     97 CA         -3.7340   24.0138   58.4620 C.3       3 GLC5        0.0000 
     98 CA         -3.9440   21.5101   59.2950 C.3       3 GLC5        0.0000 
     99 CA         -4.2570   21.5920   61.1660 C.3       6 GLP5        0.0000 
    100 CA          6.1487   28.8750   61.9445 C.3       3 GLC5        0.0000 
    101 CA          4.0950   27.8530   62.4340 C.3       9 GLL5        0.0000 
    102 CA          4.7822   28.1410   65.7565 C.3       3 GLC5        0.0000 
    103 CA          6.8113   29.1650   62.7200 C.3       3 GLC5        0.0000 
    104 CA          7.3589   27.1230   63.8566 C.3       3 GLC5        0.0000 
    105 CA          9.1360   26.4030   63.6450 C.3       6 GLP5        0.0000 
    106 CA          2.8235   28.2939   63.8986 C.3       3 GLC5        0.0000 
    107 CA          1.4831   26.0437   61.7254 C.3       3 GLC5        0.0000 
    108 CA          3.1760   27.4590   61.3850 C.3       9 GLL5        0.0000 
@<TRIPOS>BOND
@<TRIPOS>SUBSTRUCTURE
     1 SEC2       10 GROUP        1 X    SEC  0     ROOT SEC X 2
     2 LYC4       53 GROUP        1 X    LYC  0     **** LYC X 4
     3 GLC5        1 GROUP        1 X    GLC  0     **** GLC X 6
     4 SEP2       12 GROUP        1 Y    SEP  0     ROOT SEP Y 9
     5 LYP4       55 GROUP        1 Y    LYP  0     **** LYP Y 11
     6 GLP5        3 GROUP        1 Y    GLP  0     **** GLP Y 13
     7 SEL2       11 GROUP        1 Z    SEL  0     ROOT SEL Z 16
     8 LYL4       54 GROUP        1 Z    LYL  0     **** LYL Z 18
     9 GLL5        2 GROUP        1 Z    GLL  0     **** GLL Z 20
@<TRIPOS>SET

