#    Name: 3hc5_82X_1_ligand
#    Modification time : Tue Mar 25 13:55:12 2014

@<TRIPOS>MOLECULE
3hc5_82X_1_ligand
   56    60     1     0     0
SMALL
NO_CHARGES


@<TRIPOS>ATOM
      1 C11         0.7540   24.0700   53.7770 C.ar      1 82X1        0.0000 
      2 C12         1.7740   24.8980   53.2400 C.ar      1 82X1        0.0000 
      3 C13         1.5510   26.2660   52.9900 C.ar      1 82X1        0.0000 
      4 C14         0.2880   26.8170   53.2440 C.ar      1 82X1        0.0000 
      5 C15        -0.7510   26.0270   53.7770 C.ar      1 82X1        0.0000 
      6 C19        -0.0470   26.0150   58.0900 C.ar      1 82X1        0.0000 
      7 C20        -0.3900   27.3790   58.2490 C.ar      1 82X1        0.0000 
      8 C21         0.3270   28.1940   59.1450 C.ar      1 82X1        0.0000 
      9 C22         1.0290   25.4610   58.8110 C.ar      1 82X1        0.0000 
     10 C23         1.7490   26.2940   59.7060 C.ar      1 82X1        0.0000 
     11 C24         1.4070   27.6420   59.8720 C.ar      1 82X1        0.0000 
     12 C25         2.2180   28.2860   60.8180 C.2       1 82X1        0.0000 
     13 C26         3.1760   27.4590   61.3850 C.2       1 82X1        0.0000 
     14 C29         4.8490   26.8760   63.1230 C.ar      1 82X1        0.0000 
     15 C30         5.7380   27.2520   64.1560 C.ar      1 82X1        0.0000 
     16 C1         -0.7300   23.9380   57.0370 C.3       1 82X1        0.0000 
     17 C2         -1.6820   23.5090   55.9820 C.2       1 82X1        0.0000 
     18 C3         -1.5780   23.8370   54.6220 C.2       1 82X1        0.0000 
     19 N4         -2.5860   23.2920   53.9960 N.2       1 82X1        0.0000 
     20 O5         -3.3760   22.5930   54.9010 O.3       1 82X1        0.0000 
     21 C6         -2.8160   22.7290   56.1150 C.2       1 82X1        0.0000 
     22 C7         -0.5220   24.6460   54.0380 C.ar      1 82X1        0.0000 
     23 C8         -3.3740   22.1060   57.3850 C.3       1 82X1        0.0000 
     24 C9         -4.8580   22.4490   57.5910 C.3       1 82X1        0.0000 
     25 C10        -3.1460   20.5790   57.3600 C.3       1 82X1        0.0000 
     26 CL16       -2.2810   26.8040   54.0660 Cl        1 82X1        0.0000 
     27 CL17        1.1590   22.4020   54.0480 Cl        1 82X1        0.0000 
     28 O18        -0.8310   25.3050   57.2560 O.3       1 82X1        0.0000 
     29 S27         3.0640   25.8830   60.6960 S.3       1 82X1        0.0000 
     30 C28         4.0950   27.8530   62.4340 C.ar      1 82X1        0.0000 
     31 C31         5.8700   28.6220   64.4970 C.ar      1 82X1        0.0000 
     32 C32         5.1070   29.6060   63.8250 C.ar      1 82X1        0.0000 
     33 C33         4.2320   29.2150   62.7860 C.ar      1 82X1        0.0000 
     34 C34         5.2330   31.0070   64.1830 C.2       1 82X1        0.0000 
     35 O35         5.9680   31.3550   65.0840 O.co2     1 82X1        0.0000 
     36 O36         4.5080   31.9690   63.5200 O.co2     1 82X1        0.0000 
     37 H           2.6944   24.4857   53.0304 H         1 82X1        0.0000 
     38 H           2.3054   26.8486   52.6267 H         1 82X1        0.0000 
     39 H           0.1128   27.8105   53.0402 H         1 82X1        0.0000 
     40 H          -1.1652   27.7721   57.7072 H         1 82X1        0.0000 
     41 H           0.0731   29.1708   59.2704 H         1 82X1        0.0000 
     42 H           1.2866   24.4901   58.6964 H         1 82X1        0.0000 
     43 H           2.1109   29.2350   61.0515 H         1 82X1        0.0000 
     44 H           4.7507   25.8878   62.8720 H         1 82X1        0.0000 
     45 H           6.2782   26.5484   64.6507 H         1 82X1        0.0000 
     46 H           0.2905   23.6435   56.7195 H         1 82X1        0.0000 
     47 H          -0.9473   23.3542   57.9541 H         1 82X1        0.0000 
     48 H          -2.8118   22.5044   58.2349 H         1 82X1        0.0000 
     49 H           6.5223   28.8998   65.2348 H         1 82X1        0.0000 
     50 H           3.6916   29.9263   62.2829 H         1 82X1        0.0000 
     51 H          -5.0044   23.4355   57.6650 H         1 82X1        0.0000 
     52 H          -5.4229   22.1249   56.8321 H         1 82X1        0.0000 
     53 H          -5.2225   22.0352   58.4252 H         1 82X1        0.0000 
     54 H          -2.1746   20.3495   57.2998 H         1 82X1        0.0000 
     55 H          -3.5011   20.1369   58.1837 H         1 82X1        0.0000 
     56 H          -3.5978   20.1488   56.5785 H         1 82X1        0.0000 
@<TRIPOS>BOND
     1    2    1 ar   
     2   22    1 ar   
     3   27    1 1    
     4    3    2 ar   
     5   37    2 1    
     6    4    3 ar   
     7   38    3 1    
     8    5    4 ar   
     9   39    4 1    
    10   22    5 ar   
    11   26    5 1    
    12    7    6 ar   
    13    9    6 ar   
    14   28    6 1    
    15    8    7 ar   
    16   40    7 1    
    17   11    8 ar   
    18   41    8 1    
    19   10    9 ar   
    20   42    9 1    
    21   11   10 ar   
    22   29   10 1    
    23   12   11 1    
    24   13   12 2    
    25   43   12 1    
    26   29   13 1    
    27   30   13 1    
    28   15   14 ar   
    29   30   14 ar   
    30   44   14 1    
    31   31   15 ar   
    32   45   15 1    
    33   17   16 1    
    34   28   16 1    
    35   46   16 1    
    36   47   16 1    
    37   18   17 1    
    38   21   17 2    
    39   19   18 2    
    40   22   18 1    
    41   20   19 1    
    42   21   20 1    
    43   23   21 1    
    44   24   23 1    
    45   25   23 1    
    46   48   23 1    
    47   51   24 1    
    48   52   24 1    
    49   53   24 1    
    50   54   25 1    
    51   55   25 1    
    52   56   25 1    
    53   33   30 ar   
    54   32   31 ar   
    55   49   31 1    
    56   33   32 ar   
    57   34   32 1    
    58   50   33 1    
    59   35   34 ar   
    60   36   34 ar   
@<TRIPOS>SUBSTRUCTURE
     1 82X1        1 GROUP   
@<TRIPOS>SET

