#    Name: 1bvg_DMP_1_INTS_M
#    Modification time : Mon Mar 24 19:51:04 2014

@<TRIPOS>MOLECULE
1bvg_DMP_1_INTS_M
  116     0     9     0     0
SMALL
NO_CHARGES


@<TRIPOS>ATOM
      1 CA         -3.4665   -1.5025   -8.4950 C.3       3 GLC5        0.0000 
      2 CA         -4.4030   -2.6760   -9.4620 C.3       9 GLL5        0.0000 
      3 CA         -2.5300   -0.3290   -7.5280 C.3       6 GLP5        0.0000 
      4 CA         -5.8510   -1.2875  -10.2125 C.3       3 GLC5        0.0000 
      5 CA         -7.2990    0.1010  -10.9630 C.3       6 GLP5        0.0000 
      6 CA         -5.7475   -3.5735   -8.0145 C.3       3 GLC5        0.0000 
      7 CA         -7.0920   -4.4710   -6.5670 C.3       6 GLP5        0.0000 
      8 CA         -4.9580   -4.4710  -10.6270 C.3       3 GLC5        0.0000 
      9 CA         -5.5130   -6.2660  -11.7920 C.3       6 GLP5        0.0000 
     10 CA          3.8710   -4.8375   -6.0745 C.3       3 GLC5        0.0000 
     11 CA          2.7300   -3.4750   -6.8310 C.3       9 GLL5        0.0000 
     12 CA          5.0120   -6.2000   -5.3180 C.3       6 GLP5        0.0000 
     13 CA          5.6775   -3.6730  -10.3735 C.3       3 GLC5        0.0000 
     14 CA          4.1310   -4.9530   -9.9980 C.3       9 GLL5        0.0000 
     15 CA          7.2240   -2.3930  -10.7490 C.3       6 GLP5        0.0000 
     16 CA          4.9345   -3.2415  -11.5200 C.3       3 GLC5        0.0000 
     17 CA          3.3580   -4.3390  -10.9630 C.3       9 GLL5        0.0000 
     18 CA          6.5110   -2.1440  -12.0770 C.3       6 GLP5        0.0000 
     19 CA          2.7560   -1.1365   -9.1565 C.3       3 GLC5        0.0000 
     20 CA          2.1690   -3.1440   -9.2580 C.3       9 GLL5        0.0000 
     21 CA          3.3430    0.8710   -9.0550 C.3       6 GLP5        0.0000 
     22 CA         -1.3775   -5.5695   -4.5150 C.3       3 GLC5        0.0000 
     23 CA         -0.3610   -4.6870   -3.1140 C.3       9 GLL5        0.0000 
     24 CA         -2.3940   -6.4520   -5.9160 C.3       6 GLP5        0.0000 
     25 CA         -3.1345   -6.8640   -0.2405 C.3       3 GLC5        0.0000 
     26 CA         -1.4740   -7.7370   -1.2060 C.3       9 GLL5        0.0000 
     27 CA         -4.7950   -5.9910    0.7250 C.3       6 GLP5        0.0000 
     28 CA         -2.4635   -6.9515    1.0275 C.3       3 GLC5        0.0000 
     29 CA         -0.7570   -7.6160   -0.0340 C.3       9 GLL5        0.0000 
     30 CA         -4.1700   -6.2870    2.0890 C.3       6 GLP5        0.0000 
     31 CA         -0.4610   -3.8215   -0.0300 C.3       3 GLC5        0.0000 
     32 CA          0.2240   -5.5810   -0.8390 C.3       9 GLL5        0.0000 
     33 CA         -1.1460   -2.0620    0.7790 C.3       6 GLP5        0.0000 
     34 CA          1.7855   -8.1890   -2.9485 C.3       3 GLC5        0.0000 
     35 CA          2.4300   -6.5300   -3.5260 C.3       9 GLL5        0.0000 
     36 CA          1.1410   -9.8480   -2.3710 C.3       6 GLP5        0.0000 
     37 CA          2.5615   -8.3090   -1.9860 C.3       3 GLC5        0.0000 
     38 CA          3.9820   -6.7700   -1.6010 C.3       9 GLL5        0.0000 
     39 CA          8.2240   -3.6595    1.0110 C.3       3 GLC5        0.0000 
     40 CA          6.7610   -4.5680   -0.3030 C.3       9 GLL5        0.0000 
     41 CA          9.6870   -2.7510    2.3250 C.3       6 GLP5        0.0000 
     42 N           2.1525   -7.7115   -7.0100 N.am      2 SEC2        0.0000 
     43 N           1.3580   -7.0130   -5.7920 N.am      8 SEL2        0.0000 
     44 N           2.9470   -8.4100   -8.2280 N.am      5 SEP2        0.0000 
     45 N           0.6585   -8.3225   -5.1255 N.am      2 SEC2        0.0000 
     46 N          -0.0410   -9.6320   -4.4590 N.am      5 SEP2        0.0000 
     47 O           0.4025   -0.7855   -4.6060 O.2       1 ALC1        0.0000 
     48 O           1.0440   -1.3470   -5.6430 O.2       7 ALL1        0.0000 
     49 O          -0.2390   -0.2240   -3.5690 O.2       4 ALP1        0.0000 
     50 O           0.4025   -1.1540   -3.2805 O.2       1 ALC1        0.0000 
     51 O           1.0440   -2.0840   -2.9920 O.2       7 ALL1        0.0000 
     52 O           1.4745   -0.7325   -3.4690 O.2       1 ALC1        0.0000 
     53 O           1.9050    0.6190   -3.9460 O.2       4 ALP1        0.0000 
     54 N          -3.3090   -0.2980  -10.3895 N.am      2 SEC2        0.0000 
     55 N          -4.0310   -1.8430  -10.5500 N.am      8 SEL2        0.0000 
     56 N          -2.5870    1.2470  -10.2290 N.am      5 SEP2        0.0000 
     57 N          -4.6350   -0.3055  -10.3905 N.am      2 SEC2        0.0000 
     58 N          -5.2390    1.2320  -10.2310 N.am      5 SEP2        0.0000 
     59 N           5.5555   -3.0065    1.5435 N.am      2 SEC2        0.0000 
     60 N           6.2750   -4.1440    0.9620 N.am      8 SEL2        0.0000 
     61 N           4.8360   -1.8690    2.1250 N.am      5 SEP2        0.0000 
     62 N           6.8815   -2.8970    1.5840 N.am      2 SEC2        0.0000 
     63 N           7.4880   -1.6500    2.2060 N.am      5 SEP2        0.0000 
     64 CA         -2.6342   -6.0785   -8.8902 C.3       3 GLC5        0.0000 
     65 CA         -1.0010   -4.8190   -8.0300 C.3       9 GLL5        0.0000 
     66 CA         -4.0740   -7.2750   -9.0890 C.3       6 GLP5        0.0000 
     67 CA          0.4146   -6.3626   -9.3657 C.3       3 GLC5        0.0000 
     68 CA         -1.3880   -4.9450   -9.3530 C.3       9 GLL5        0.0000 
     69 CA          1.7300   -7.6600  -10.1670 C.3       6 GLP5        0.0000 
     70 CA         -2.1670   -5.5250   -7.7515 C.3       3 GLC5        0.0000 
     71 CA         -3.4617   -5.5580   -9.2405 C.3       3 GLC5        0.0000 
     72 CA         -2.4920   -4.2510   -9.8210 C.3       9 GLL5        0.0000 
     73 CA         -2.7038   -4.9102   -7.1095 C.3       3 GLC5        0.0000 
     74 CA         -2.8200   -3.3060   -7.6430 C.3       9 GLL5        0.0000 
     75 CA         -3.1715   -5.4635   -8.2492 C.3       3 GLC5        0.0000 
     76 CA         -1.7180   -3.9980   -7.1760 C.3       9 GLL5        0.0000 
     77 CA         -3.1230   -2.7375   -5.8552 C.3       3 GLC5        0.0000 
     78 CA         -3.9770   -1.8230   -4.3010 C.3       6 GLP5        0.0000 
     79 CA         -2.4479   -2.0061   -7.6338 C.3       3 GLC5        0.0000 
     80 CA         -1.7299   -5.5219   -6.6960 C.3       3 GLC5        0.0000 
     81 CA          2.5833   -5.9362   -9.3235 C.3       3 GLC5        0.0000 
     82 CA          2.9470   -3.7610   -8.2940 C.3       9 GLL5        0.0000 
     83 CA          4.6321   -3.1215   -7.5116 C.3       3 GLC5        0.0000 
     84 CA          3.9260   -4.6640   -8.6660 C.3       9 GLL5        0.0000 
     85 CA          5.8820   -2.1020   -6.9090 C.3       6 GLP5        0.0000 
     86 CA          4.1909   -5.7744   -7.9035 C.3       3 GLC5        0.0000 
     87 CA          4.5980   -6.9660   -6.5680 C.3       6 GLP5        0.0000 
     88 CA          5.0127   -5.9290  -11.2918 C.3       3 GLC5        0.0000 
     89 CA          6.2810   -7.2120  -12.1030 C.3       6 GLP5        0.0000 
     90 CA          2.3954   -5.8495  -10.3526 C.3       3 GLC5        0.0000 
     91 CA          0.1098   -8.0463   -2.2368 C.3       3 GLC5        0.0000 
     92 CA         -0.4980   -5.7060   -2.0130 C.3       9 GLL5        0.0000 
     93 CA         -2.2546   -4.9529   -2.4344 C.3       3 GLC5        0.0000 
     94 CA         -1.3450   -6.7830   -2.1920 C.3       9 GLL5        0.0000 
     95 CA         -3.6220   -3.9160   -2.4910 C.3       6 GLP5        0.0000 
     96 CA         -2.3247   -9.2393   -0.5720 C.3       3 GLC5        0.0000 
     97 CA         -3.5340  -10.8020   -0.5240 C.3       6 GLP5        0.0000 
     98 CA         -1.5209   -7.3379   -3.4321 C.3       3 GLC5        0.0000 
     99 CA         -1.8440   -7.6850   -5.2100 C.3       6 GLP5        0.0000 
    100 CA          0.3149   -8.4774   -1.3020 C.3       3 GLC5        0.0000 
    101 CA          5.3513   -7.4367   -2.5730 C.3       3 GLC5        0.0000 
    102 CA          3.5390   -6.0350   -2.6890 C.3       9 GLL5        0.0000 
    103 CA          6.9420   -8.4710   -3.0010 C.3       6 GLP5        0.0000 
    104 CA          4.7585   -6.3662   -3.2657 C.3       3 GLC5        0.0000 
    105 CA          6.1350   -7.0808   -1.9917 C.3       3 GLC5        0.0000 
    106 CA          5.6280   -5.0860   -1.1390 C.3       9 GLL5        0.0000 
    107 CA          5.2092   -5.4598   -3.4997 C.3       3 GLC5        0.0000 
    108 CA          4.7363   -3.2097   -1.7917 C.3       3 GLC5        0.0000 
    109 CA          4.1420   -4.8260   -2.9990 C.3       9 GLL5        0.0000 
    110 CA          4.8090   -1.8300   -0.9720 C.3       6 GLP5        0.0000 
    111 CA          5.4242   -2.8438   -3.4683 C.3       3 GLC5        0.0000 
    112 CA          5.1850   -4.3530   -2.2240 C.3       9 GLL5        0.0000 
    113 CA          6.1850   -1.0980   -4.3250 C.3       6 GLP5        0.0000 
    114 CA          4.2876   -5.8771   -4.1856 C.3       3 GLC5        0.0000 
    115 CA          5.4268   -3.4796   -0.8074 C.3       3 GLC5        0.0000 
    116 CA          5.0280   -6.2950   -0.8260 C.3       9 GLL5        0.0000 
@<TRIPOS>BOND
@<TRIPOS>SUBSTRUCTURE
     1 ALC1       47 GROUP        1 X    ALC  0     ROOT ALC X 1
     2 SEC2       42 GROUP        1 X    SEC  0     **** SEC X 2
     3 GLC5        1 GROUP        1 X    GLC  0     **** GLC X 6
     4 ALP1       49 GROUP        1 Y    ALP  0     ROOT ALP Y 8
     5 SEP2       44 GROUP        1 Y    SEP  0     **** SEP Y 9
     6 GLP5        3 GROUP        1 Y    GLP  0     **** GLP Y 13
     7 ALL1       48 GROUP        1 Z    ALL  0     ROOT ALL Z 15
     8 SEL2       43 GROUP        1 Z    SEL  0     **** SEL Z 16
     9 GLL5        2 GROUP        1 Z    GLL  0     **** GLL Z 20
@<TRIPOS>SET

