#    Name: 1bvg_DMP_1_ligand
#    Modification time : Mon Mar 24 19:51:04 2014

@<TRIPOS>MOLECULE
1bvg_DMP_1_ligand
   80    84     1     0     0
SMALL
NO_CHARGES


@<TRIPOS>ATOM
      1 C1          1.2870   -5.8370   -5.4640 C.2       1 DMP100      0.0000 
      2 C3          1.2510   -3.5270   -6.4580 C.3       1 DMP100      0.0000 
      3 C4          0.7870   -2.6580   -5.2880 C.3       1 DMP100      0.0000 
      4 C5          1.4310   -2.9890   -3.9630 C.3       1 DMP100      0.0000 
      5 C6          1.1020   -4.3790   -3.4210 C.3       1 DMP100      0.0000 
      6 C20         0.1740   -5.5520   -7.5220 C.3       1 DMP100      0.0000 
      7 C21        -1.0010   -4.8190   -8.0300 C.ar      1 DMP100      0.0000 
      8 C22        -1.3880   -4.9450   -9.3530 C.ar      1 DMP100      0.0000 
      9 C23        -2.4920   -4.2510   -9.8210 C.ar      1 DMP100      0.0000 
     10 C24        -3.2070   -3.4310   -8.9630 C.ar      1 DMP100      0.0000 
     11 C25        -2.8200   -3.3060   -7.6430 C.ar      1 DMP100      0.0000 
     12 C26        -1.7180   -3.9980   -7.1760 C.ar      1 DMP100      0.0000 
     13 C27        -4.4030   -2.6760   -9.4620 C.3       1 DMP100      0.0000 
     14 C30         2.7300   -3.4750   -6.8310 C.3       1 DMP100      0.0000 
     15 C31         2.9470   -3.7610   -8.2940 C.ar      1 DMP100      0.0000 
     16 C32         3.9260   -4.6640   -8.6660 C.ar      1 DMP100      0.0000 
     17 C33         4.1310   -4.9530   -9.9980 C.ar      1 DMP100      0.0000 
     18 C34         3.3580   -4.3390  -10.9630 C.ar      1 DMP100      0.0000 
     19 C35         2.3770   -3.4320  -10.5960 C.ar      1 DMP100      0.0000 
     20 C36         2.1690   -3.1440   -9.2580 C.ar      1 DMP100      0.0000 
     21 C60        -0.3610   -4.6870   -3.1140 C.3       1 DMP100      0.0000 
     22 C61        -0.4980   -5.7060   -2.0130 C.ar      1 DMP100      0.0000 
     23 C62        -1.3450   -6.7830   -2.1920 C.ar      1 DMP100      0.0000 
     24 C63        -1.4740   -7.7370   -1.2060 C.ar      1 DMP100      0.0000 
     25 C64        -0.7570   -7.6160   -0.0340 C.ar      1 DMP100      0.0000 
     26 C65         0.0930   -6.5370    0.1540 C.ar      1 DMP100      0.0000 
     27 C66         0.2240   -5.5810   -0.8390 C.ar      1 DMP100      0.0000 
     28 C70         2.4300   -6.5300   -3.5260 C.3       1 DMP100      0.0000 
     29 C71         3.5390   -6.0350   -2.6890 C.ar      1 DMP100      0.0000 
     30 C72         3.9820   -6.7700   -1.6010 C.ar      1 DMP100      0.0000 
     31 C73         5.0280   -6.2950   -0.8260 C.ar      1 DMP100      0.0000 
     32 C74         5.6280   -5.0860   -1.1390 C.ar      1 DMP100      0.0000 
     33 C75         5.1850   -4.3530   -2.2240 C.ar      1 DMP100      0.0000 
     34 C76         4.1420   -4.8260   -2.9990 C.ar      1 DMP100      0.0000 
     35 C77         6.7610   -4.5680   -0.3030 C.3       1 DMP100      0.0000 
     36 N2          0.8710   -4.9570   -6.3850 N.am      1 DMP100      0.0000 
     37 N7          1.6330   -5.5160   -4.2100 N.am      1 DMP100      0.0000 
     38 O1          1.3580   -7.0130   -5.7920 O.2       1 DMP100      0.0000 
     39 O4          1.0440   -1.3470   -5.6430 O.3       1 DMP100      0.0000 
     40 O5          1.0440   -2.0840   -2.9920 O.3       1 DMP100      0.0000 
     41 O27        -4.0310   -1.8430  -10.5500 O.3       1 DMP100      0.0000 
     42 O77         6.2750   -4.1440    0.9620 O.3       1 DMP100      0.0000 
     43 H           0.7109   -3.1251   -7.3910 H         1 DMP100      0.0000 
     44 H          -0.2987   -2.8157   -5.1912 H         1 DMP100      0.0000 
     45 H           2.5244   -2.9534   -4.0946 H         1 DMP100      0.0000 
     46 H           1.6268   -4.4584   -2.3997 H         1 DMP100      0.0000 
     47 H           0.9021   -5.6983   -8.3692 H         1 DMP100      0.0000 
     48 H          -0.1415   -6.6006   -7.2572 H         1 DMP100      0.0000 
     49 H          -0.8555   -5.5547   -9.9902 H         1 DMP100      0.0000 
     50 H          -2.7807   -4.3444  -10.8045 H         1 DMP100      0.0000 
     51 H          -3.3533   -2.6959   -7.0046 H         1 DMP100      0.0000 
     52 H          -1.4289   -3.9033   -6.1908 H         1 DMP100      0.0000 
     53 H          -4.8139   -2.0889   -8.6264 H         1 DMP100      0.0000 
     54 H          -5.1731   -3.4052   -9.7570 H         1 DMP100      0.0000 
     55 H           3.2734   -4.2099   -6.2275 H         1 DMP100      0.0000 
     56 H           3.1218   -2.4815   -6.5879 H         1 DMP100      0.0000 
     57 H           4.5037   -5.1217   -7.9428 H         1 DMP100      0.0000 
     58 H           4.8610   -5.6273  -10.2745 H         1 DMP100      0.0000 
     59 H           3.5094   -4.5546  -11.9607 H         1 DMP100      0.0000 
     60 H           1.8038   -2.9732  -11.3177 H         1 DMP100      0.0000 
     61 H           1.4391   -2.4741   -8.9817 H         1 DMP100      0.0000 
     62 H          -0.8426   -5.0609   -4.0239 H         1 DMP100      0.0000 
     63 H          -0.8644   -3.7592   -2.8218 H         1 DMP100      0.0000 
     64 H          -1.8835   -6.8720   -3.0700 H         1 DMP100      0.0000 
     65 H          -2.1058   -8.5408   -1.3437 H         1 DMP100      0.0000 
     66 H          -0.8512   -8.3285    0.7065 H         1 DMP100      0.0000 
     67 H           0.6252   -6.4475    1.0302 H         1 DMP100      0.0000 
     68 H           0.8561   -4.7805   -0.7042 H         1 DMP100      0.0000 
     69 H           1.7543   -7.1677   -2.8899 H         1 DMP100      0.0000 
     70 H           2.8443   -7.2516   -4.2845 H         1 DMP100      0.0000 
     71 H           3.5348   -7.6675   -1.3688 H         1 DMP100      0.0000 
     72 H           5.3591   -6.8405   -0.0178 H         1 DMP100      0.0000 
     73 H           5.6322   -3.4533   -2.4557 H         1 DMP100      0.0000 
     74 H           3.8115   -4.2800   -3.8085 H         1 DMP100      0.0000 
     75 H           7.2423   -3.7417   -0.8481 H         1 DMP100      0.0000 
     76 H           7.5084   -5.3694   -0.2002 H         1 DMP100      0.0000 
     77 H           0.6616   -0.7980   -4.8998 H         1 DMP100      0.0000 
     78 H           0.9393   -1.2149   -3.4755 H         1 DMP100      0.0000 
     79 H          -3.4536   -1.2656   -9.9726 H         1 DMP100      0.0000 
     80 H           6.2323   -4.9706    1.5233 H         1 DMP100      0.0000 
@<TRIPOS>BOND
     1   36    1 am   
     2   37    1 am   
     3   38    1 2    
     4    3    2 1    
     5   14    2 1    
     6   36    2 1    
     7   43    2 1    
     8    4    3 1    
     9   39    3 1    
    10   44    3 1    
    11    5    4 1    
    12   40    4 1    
    13   45    4 1    
    14   21    5 1    
    15   37    5 1    
    16   46    5 1    
    17    7    6 1    
    18   36    6 1    
    19   47    6 1    
    20   48    6 1    
    21    8    7 ar   
    22   12    7 ar   
    23    9    8 ar   
    24   49    8 1    
    25   10    9 ar   
    26   50    9 1    
    27   11   10 ar   
    28   13   10 1    
    29   12   11 ar   
    30   51   11 1    
    31   52   12 1    
    32   41   13 1    
    33   53   13 1    
    34   54   13 1    
    35   15   14 1    
    36   55   14 1    
    37   56   14 1    
    38   16   15 ar   
    39   20   15 ar   
    40   17   16 ar   
    41   57   16 1    
    42   18   17 ar   
    43   58   17 1    
    44   19   18 ar   
    45   59   18 1    
    46   20   19 ar   
    47   60   19 1    
    48   61   20 1    
    49   22   21 1    
    50   62   21 1    
    51   63   21 1    
    52   23   22 ar   
    53   27   22 ar   
    54   24   23 ar   
    55   64   23 1    
    56   25   24 ar   
    57   65   24 1    
    58   26   25 ar   
    59   66   25 1    
    60   27   26 ar   
    61   67   26 1    
    62   68   27 1    
    63   29   28 1    
    64   37   28 1    
    65   69   28 1    
    66   70   28 1    
    67   30   29 ar   
    68   34   29 ar   
    69   31   30 ar   
    70   71   30 1    
    71   32   31 ar   
    72   72   31 1    
    73   33   32 ar   
    74   35   32 1    
    75   34   33 ar   
    76   73   33 1    
    77   74   34 1    
    78   42   35 1    
    79   75   35 1    
    80   76   35 1    
    81   77   39 1    
    82   78   40 1    
    83   79   41 1    
    84   80   42 1    
@<TRIPOS>SUBSTRUCTURE
     1 DMP100      1 GROUP   
@<TRIPOS>SET

