#    Name: 1l2t_ATP_2_INTS_M
#    Modification time : Mon Apr  7 13:55:03 2014

@<TRIPOS>MOLECULE
1l2t_ATP_2_INTS_M
   75     0    12     0     0
SMALL
NO_CHARGES


@<TRIPOS>ATOM
      1 N          29.0475   25.0820   42.9870 N.am      2 SEC2        0.0000 
      2 N          29.4180   26.3190   42.5130 N.am     10 SEL2        0.0000 
      3 N          28.6770   23.8450   43.4610 N.am      6 SEP2        0.0000 
      4 N          27.4695   27.2905   40.2145 N.am      2 SEC2        0.0000 
      5 N          27.2290   26.7650   41.3710 N.am     10 SEL2        0.0000 
      6 N          27.7100   27.8160   39.0580 N.am      6 SEP2        0.0000 
      7 N          27.4050   25.5445   40.7840 N.am      2 SEC2        0.0000 
      8 N          27.5810   24.3240   40.1970 N.am      6 SEP2        0.0000 
      9 N          25.8700   26.7820   41.2655 N.am      2 SEC2        0.0000 
     10 N          24.5110   26.7990   41.1600 N.am      6 SEP2        0.0000 
     11 N          26.5965   28.2965   41.5780 N.am      2 SEC2        0.0000 
     12 N          25.9640   29.8280   41.7850 N.am      6 SEP2        0.0000 
     13 NZ         27.4910   27.9105   44.8700 N.4       3 LYC4        0.0000 
     14 NZ         27.4350   26.8340   43.7980 N.4      11 LYL4        0.0000 
     15 NZ         27.5470   28.9870   45.9420 N.4       7 LYP4        0.0000 
     16 N          27.4910   27.9105   44.8700 N.am      2 SEC2        0.0000 
     17 N          27.4350   26.8340   43.7980 N.am     10 SEL2        0.0000 
     18 N          27.5470   28.9870   45.9420 N.am      6 SEP2        0.0000 
     19 N          26.9190   26.1655   44.8925 N.am      2 SEC2        0.0000 
     20 N          26.4030   25.4970   45.9870 N.am      6 SEP2        0.0000 
     21 NZ         28.2940   29.8820   44.7465 N.4       3 LYC4        0.0000 
     22 NZ         29.0410   30.7770   43.5510 N.4      11 LYL4        0.0000 
     23 N          28.9585   32.1050   43.4810 N.am      2 SEC2        0.0000 
     24 N          29.0410   30.7770   43.5510 N.am     10 SEL2        0.0000 
     25 N          28.8760   33.4330   43.4110 N.am      6 SEP2        0.0000 
     26 N          29.9340   31.5225   44.3285 N.am      2 SEC2        0.0000 
     27 N          30.8270   32.2680   45.1060 N.am      6 SEP2        0.0000 
     28 N          28.2940   29.8820   44.7465 N.am      2 SEC2        0.0000 
     29 N          31.9325   29.6815   43.9530 N.am      2 SEC2        0.0000 
     30 N          30.7520   29.0020   43.3570 N.am     10 SEL2        0.0000 
     31 N          33.1130   30.3610   44.5490 N.am      6 SEP2        0.0000 
     32 N          31.1930   27.6205   44.1485 N.am      2 SEC2        0.0000 
     33 N          31.6340   26.2390   44.9400 N.am      6 SEP2        0.0000 
     34 N          27.1275   29.2205   42.1640 N.am      2 SEC2        0.0000 
     35 N          28.2910   28.6130   42.5430 N.am     10 SEL2        0.0000 
     36 N          33.2210   31.9665   42.1920 N.am      2 SEC2        0.0000 
     37 N          31.8330   31.9420   41.5620 N.am     10 SEL2        0.0000 
     38 N          34.6090   31.9910   42.8220 N.am      6 SEP2        0.0000 
     39 N          32.7305   32.7190   41.1215 N.am      2 SEC2        0.0000 
     40 N          33.6280   33.4960   40.6810 N.am      6 SEP2        0.0000 
     41 CA         29.4475   30.1315   39.1350 C.3       4 GLC5        0.0000 
     42 CA         29.8250   32.0420   39.1510 C.3      12 GLL5        0.0000 
     43 CA         29.0700   28.2210   39.1190 C.3       8 GLP5        0.0000 
     44 CA         30.7530   34.8475   38.6985 C.3       4 GLC5        0.0000 
     45 CA         29.2680   33.2460   38.5420 C.3      12 GLL5        0.0000 
     46 CA         32.2380   36.4490   38.8550 C.3       8 GLP5        0.0000 
     47 N          26.1990   31.8160   37.2810 N.am      2 SEC2        0.0000 
     48 N          26.9860   33.1450   37.5960 N.am     10 SEL2        0.0000 
     49 N          25.4120   30.4870   36.9660 N.am      6 SEP2        0.0000 
     50 O          26.8640   33.2085   39.2750 O.2       1 ALC1        0.0000 
     51 O          26.9860   33.1450   37.5960 O.2       9 ALL1        0.0000 
     52 O          26.7420   33.2720   40.9540 O.2       5 ALP1        0.0000 
     53 CA         27.0695   32.3235   35.4265 C.3       4 GLC5        0.0000 
     54 CA         28.9910   32.0140   36.5510 C.3      12 GLL5        0.0000 
     55 CA         25.1480   32.6330   34.3020 C.3       8 GLP5        0.0000 
     56 N          26.7910   31.1125   36.1945 N.am      2 SEC2        0.0000 
     57 N          28.1700   31.7380   35.4230 N.am     10 SEL2        0.0000 
     58 O          27.6850   30.5635   35.7970 O.2       1 ALC1        0.0000 
     59 O          28.1700   31.7380   35.4230 O.2       9 ALL1        0.0000 
     60 O          27.2000   29.3890   36.1710 O.2       5 ALP1        0.0000 
     61 CA         33.2665   34.9710   32.8190 C.3       4 GLC5        0.0000 
     62 CA         33.5140   32.7500   32.9610 C.3      12 GLL5        0.0000 
     63 CA         33.0190   37.1920   32.6770 C.3       8 GLP5        0.0000 
     64 CA         31.7195   32.1510   31.4865 C.3       4 GLC5        0.0000 
     65 CA         31.6320   33.9960   32.3890 C.3      12 GLL5        0.0000 
     66 CA         31.8070   30.3060   30.5840 C.3       8 GLP5        0.0000 
     67 CA         32.3255   35.5940   32.5330 C.3       4 GLC5        0.0000 
     68 CA         31.0840   34.2815   30.5175 C.3       4 GLC5        0.0000 
     69 CA         30.5360   34.5670   28.6460 C.3       8 GLP5        0.0000 
     70 CA         27.5504   31.7660   39.6286 C.3       4 GLC5        0.0000 
     71 CA         28.2070   32.4780   37.8120 C.3      12 GLL5        0.0000 
     72 CA         26.2240   30.9710   40.9280 C.3       8 GLP5        0.0000 
     73 CA         32.3588   31.2114   32.9370 C.3       4 GLC5        0.0000 
     74 CA         32.9200   32.4990   34.2470 C.3      12 GLL5        0.0000 
     75 CA         32.2570   29.5800   31.8460 C.3       8 GLP5        0.0000 
@<TRIPOS>BOND
@<TRIPOS>SUBSTRUCTURE
     1 ALC1       50 GROUP        1 X    ALC  0     ROOT ALC X 1
     2 SEC2        1 GROUP        1 X    SEC  0     **** SEC X 2
     3 LYC4       13 GROUP        1 X    LYC  0     **** LYC X 4
     4 GLC5       41 GROUP        1 X    GLC  0     **** GLC X 6
     5 ALP1       52 GROUP        1 Y    ALP  0     ROOT ALP Y 8
     6 SEP2        3 GROUP        1 Y    SEP  0     **** SEP Y 9
     7 LYP4       15 GROUP        1 Y    LYP  0     **** LYP Y 11
     8 GLP5       43 GROUP        1 Y    GLP  0     **** GLP Y 13
     9 ALL1       51 GROUP        1 Z    ALL  0     ROOT ALL Z 15
    10 SEL2        2 GROUP        1 Z    SEL  0     **** SEL Z 16
    11 LYL4       14 GROUP        1 Z    LYL  0     **** LYL Z 18
    12 GLL5       42 GROUP        1 Z    GLL  0     **** GLL Z 20
@<TRIPOS>SET

