#    Name: 1l2t_ATP_2_ligand
#    Modification time : Mon Apr  7 13:55:03 2014

@<TRIPOS>MOLECULE
1l2t_ATP_2_ligand
   43    45     1     0     0
SMALL
NO_CHARGES


@<TRIPOS>ATOM
      1 PG         28.1330   27.0390   42.5040 P.3       1 ATP1302     0.0000 
      2 O1G        29.4180   26.3190   42.5130 O.co2     1 ATP1302     0.0000 
      3 O2G        27.2290   26.7650   41.3710 O.co2     1 ATP1302     0.0000 
      4 O3G        27.4350   26.8340   43.7980 O.co2     1 ATP1302     0.0000 
      5 PB         29.4610   29.5270   43.0130 P.3       1 ATP1302     0.0000 
      6 O1B        29.0410   30.7770   43.5510 O.co2     1 ATP1302     0.0000 
      7 O2B        30.7520   29.0020   43.3570 O.co2     1 ATP1302     0.0000 
      8 O3B        28.2910   28.6130   42.5430 O.3       1 ATP1302     0.0000 
      9 PA         31.1700   30.7660   41.0270 P.3       1 ATP1302     0.0000 
     10 O1A        31.8120   29.8910   40.1030 O.co2     1 ATP1302     0.0000 
     11 O2A        31.8330   31.9420   41.5620 O.co2     1 ATP1302     0.0000 
     12 O3A        29.7740   30.2920   41.5920 O.3       1 ATP1302     0.0000 
     13 O5'        30.5670   31.3000   39.8460 O.3       1 ATP1302     0.0000 
     14 C5'        29.8250   32.0420   39.1510 C.3       1 ATP1302     0.0000 
     15 C4'        29.2680   33.2460   38.5420 C.3       1 ATP1302     0.0000 
     16 O4'        30.2620   33.7970   37.6060 O.3       1 ATP1302     0.0000 
     17 C3'        28.2070   32.4780   37.8120 C.3       1 ATP1302     0.0000 
     18 O3'        26.9860   33.1450   37.5960 O.3       1 ATP1302     0.0000 
     19 C2'        28.9910   32.0140   36.5510 C.3       1 ATP1302     0.0000 
     20 O2'        28.1700   31.7380   35.4230 O.3       1 ATP1302     0.0000 
     21 C1'        30.0450   33.1460   36.2980 C.3       1 ATP1302     0.0000 
     22 N9         31.3230   32.7210   35.7060 N.pl3     1 ATP1302     0.0000 
     23 C8         32.3580   31.9460   36.2160 C.2       1 ATP1302     0.0000 
     24 N7         33.3440   31.7890   35.3750 N.2       1 ATP1302     0.0000 
     25 C5         32.9200   32.4990   34.2470 C.ar      1 ATP1302     0.0000 
     26 C6         33.5140   32.7500   32.9610 C.ar      1 ATP1302     0.0000 
     27 N6         34.6860   32.2750   32.6170 N.pl3     1 ATP1302     0.0000 
     28 N1         32.8320   33.5030   32.0690 N.ar      1 ATP1302     0.0000 
     29 C2         31.6320   33.9960   32.3890 C.ar      1 ATP1302     0.0000 
     30 N3         30.9690   33.8430   33.5410 N.ar      1 ATP1302     0.0000 
     31 C4         31.7040   33.0610   34.4520 C.ar      1 ATP1302     0.0000 
     32 H          28.6008   31.4522   39.3909 H         1 ATP1302     0.0000 
     33 H          29.7031   31.2667   38.0160 H         1 ATP1302     0.0000 
     34 H          28.8757   33.8636   39.2162 H         1 ATP1302     0.0000 
     35 H          28.0758   31.5348   38.4019 H         1 ATP1302     0.0000 
     36 H          29.5757   31.1402   36.8687 H         1 ATP1302     0.0000 
     37 H          29.5488   33.8813   35.6463 H         1 ATP1302     0.0000 
     38 H          32.3098   31.5678   37.1379 H         1 ATP1302     0.0000 
     39 H          35.1362   31.6859   33.2880 H         1 ATP1302     0.0000 
     40 H          35.0228   32.5452   31.7150 H         1 ATP1302     0.0000 
     41 H          31.1317   34.5961   31.6179 H         1 ATP1302     0.0000 
     42 H          26.6273   33.3306   38.5108 H         1 ATP1302     0.0000 
     43 H          27.7440   30.8556   35.6228 H         1 ATP1302     0.0000 
@<TRIPOS>BOND
     1    2    1 ar   
     2    3    1 ar   
     3    4    1 ar   
     4    8    1 1    
     5    6    5 ar   
     6    7    5 ar   
     7    8    5 1    
     8   12    5 1    
     9   10    9 ar   
    10   11    9 ar   
    11   12    9 1    
    12   13    9 1    
    13   14   13 1    
    14   15   14 1    
    15   32   14 1    
    16   33   14 1    
    17   16   15 1    
    18   17   15 1    
    19   34   15 1    
    20   21   16 1    
    21   18   17 1    
    22   19   17 1    
    23   35   17 1    
    24   42   18 1    
    25   20   19 1    
    26   21   19 1    
    27   36   19 1    
    28   43   20 1    
    29   22   21 1    
    30   37   21 1    
    31   23   22 1    
    32   31   22 1    
    33   24   23 2    
    34   38   23 1    
    35   25   24 1    
    36   26   25 ar   
    37   31   25 ar   
    38   27   26 1    
    39   28   26 ar   
    40   39   27 1    
    41   40   27 1    
    42   29   28 ar   
    43   30   29 ar   
    44   41   29 1    
    45   31   30 ar   
@<TRIPOS>SUBSTRUCTURE
     1 ATP1302     1 GROUP   
@<TRIPOS>SET

