#    Name: 2y4o_DLL_2_INTS_M
#    Modification time : Tue Mar 25 07:35:13 2014

@<TRIPOS>MOLECULE
2y4o_DLL_2_INTS_M
   79     0     9     0     0
SMALL
NO_CHARGES


@<TRIPOS>ATOM
      1 CA         52.0110   32.7765   49.4225 C.3       3 GLC5        0.0000 
      2 CA         50.5540   31.4830   48.5500 C.3       9 GLL5        0.0000 
      3 CA         53.4680   34.0700   50.2950 C.3       6 GLP5        0.0000 
      4 CA         48.9170   32.0560   49.2205 C.3       3 GLC5        0.0000 
      5 CA         47.2800   32.6290   49.8910 C.3       6 GLP5        0.0000 
      6 CA         49.0115   28.8445   47.6885 C.3       3 GLC5        0.0000 
      7 CA         50.1030   29.1840   49.4970 C.3       9 GLL5        0.0000 
      8 CA         47.9200   28.5050   45.8800 C.3       6 GLP5        0.0000 
      9 CA         49.0825   26.7940   49.2085 C.3       3 GLC5        0.0000 
     10 CA         49.9360   28.3130   50.5760 C.3       9 GLL5        0.0000 
     11 CA         48.2290   25.2750   47.8410 C.3       6 GLP5        0.0000 
     12 N          51.1775   33.6735   44.4790 N.am      2 SEC2        0.0000 
     13 N          52.6100   33.5560   44.8000 N.am      8 SEL2        0.0000 
     14 N          49.7450   33.7910   44.1580 N.am      5 SEP2        0.0000 
     15 N          55.1450   32.1225   44.7905 N.am      2 SEC2        0.0000 
     16 N          53.9170   31.4860   45.4910 N.am      8 SEL2        0.0000 
     17 N          56.3730   32.7590   44.0900 N.am      5 SEP2        0.0000 
     18 O          53.9395   27.0805   41.6705 O.2       1 ALC1        0.0000 
     19 O          53.2290   28.4950   42.3190 O.2       7 ALL1        0.0000 
     20 O          54.6500   25.6660   41.0220 O.2       4 ALP1        0.0000 
     21 O          52.8650   27.3230   41.7535 O.2       1 ALC1        0.0000 
     22 O          52.5010   26.1510   41.1880 O.2       4 ALP1        0.0000 
     23 N          55.6170   27.6610   41.8325 N.am      2 SEC2        0.0000 
     24 N          55.2680   26.9000   43.2190 N.am      8 SEL2        0.0000 
     25 N          55.9660   28.4220   40.4460 N.am      5 SEP2        0.0000 
     26 O          54.9590   26.2830   42.1205 O.2       1 ALC1        0.0000 
     27 O          55.2680   26.9000   43.2190 O.2       7 ALL1        0.0000 
     28 CA         55.4240   26.3925   47.2625 C.3       3 GLC5        0.0000 
     29 CA         54.4790   27.2360   45.4900 C.3       9 GLL5        0.0000 
     30 CA         56.3690   25.5490   49.0350 C.3       6 GLP5        0.0000 
     31 N          52.3940   26.6100   49.3040 N.am      2 SEC2        0.0000 
     32 N          51.9070   26.1820   47.9100 N.am      8 SEL2        0.0000 
     33 N          52.8810   27.0380   50.6980 N.am      5 SEP2        0.0000 
     34 CA         52.1810   24.5170   50.1205 C.3       3 GLC5        0.0000 
     35 CA         52.2680   23.7110   48.0380 C.3       9 GLL5        0.0000 
     36 CA         52.0940   25.3230   52.2030 C.3       6 GLP5        0.0000 
     37 CA         51.8900   22.6775   46.1010 C.3       3 GLC5        0.0000 
     38 CA         51.5120   21.6440   44.1640 C.3       6 GLP5        0.0000 
     39 O          50.9180   22.3430   49.7490 O.2       1 ALC1        0.0000 
     40 O          51.3120   23.4220   48.9260 O.2       7 ALL1        0.0000 
     41 O          50.5240   21.2640   50.5720 O.2       4 ALP1        0.0000 
     42 O          50.2790   24.1520   49.6650 O.2       1 ALC1        0.0000 
     43 O          49.2460   24.8820   50.4040 O.2       4 ALP1        0.0000 
     44 CA         51.7415   29.5305   43.2370 C.3       3 GLC5        0.0000 
     45 CA         53.2040   28.1540   43.7150 C.3       9 GLL5        0.0000 
     46 CA         50.2790   30.9070   42.7590 C.3       6 GLP5        0.0000 
     47 CA         55.1700   24.2630   47.8445 C.3       3 GLC5        0.0000 
     48 CA         53.9710   22.9770   46.6540 C.3       9 GLL5        0.0000 
     49 CA         55.3560   22.3830   47.4745 C.3       3 GLC5        0.0000 
     50 CA         56.7410   21.7890   48.2950 C.3       6 GLP5        0.0000 
     51 CA         52.7415   22.3105   45.4090 C.3       3 GLC5        0.0000 
     52 CA         48.6217   30.1825   50.2860 C.3       3 GLC5        0.0000 
     53 CA         46.9280   30.5250   50.9670 C.3       6 GLP5        0.0000 
     54 CA         50.1960   32.2960   52.1405 C.3       3 GLC5        0.0000 
     55 CA         50.5860   30.9980   51.0120 C.3       9 GLL5        0.0000 
     56 CA         49.8630   34.0340   52.7320 C.3       6 GLP5        0.0000 
     57 CA         48.7285   30.5415   51.2580 C.3       3 GLC5        0.0000 
     58 CA         50.4720   30.1180   52.0860 C.3       9 GLL5        0.0000 
     59 CA         51.0553   26.9383   51.7140 C.3       3 GLC5        0.0000 
     60 CA         50.0970   28.7940   51.8740 C.3       9 GLL5        0.0000 
     61 CA         51.9449   28.5797   50.1128 C.3       3 GLC5        0.0000 
     62 CA         53.7640   28.0830   50.1350 C.3       6 GLP5        0.0000 
     63 CA         48.9402   27.0693   52.1400 C.3       3 GLC5        0.0000 
     64 CA         47.8640   25.5850   53.0550 C.3       6 GLP5        0.0000 
     65 CA         48.4723   29.5392   51.0960 C.3       3 GLC5        0.0000 
     66 CA         52.2270   29.4105   51.4442 C.3       3 GLC5        0.0000 
     67 CA         54.1410   29.1450   51.1770 C.3       6 GLP5        0.0000 
     68 CA         51.9173   30.4210   43.6863 C.3       3 GLC5        0.0000 
     69 CA         53.2610   30.6340   44.6630 C.3       9 GLL5        0.0000 
     70 CA         52.0292   26.3152   43.8190 C.3       3 GLC5        0.0000 
     71 CA         50.4140   25.0780   43.7610 C.3       6 GLP5        0.0000 
     72 CA         56.1805   27.3438   45.1202 C.3       3 GLC5        0.0000 
     73 CA         54.0850   26.9510   44.0390 C.3       9 GLL5        0.0000 
     74 CA         58.0790   27.5940   45.4760 C.3       6 GLP5        0.0000 
     75 CA         53.3645   26.6062   48.6238 C.3       3 GLC5        0.0000 
     76 CA         53.4840   25.2460   46.6630 C.3       9 GLL5        0.0000 
     77 CA         54.6670   25.3392   48.0737 C.3       3 GLC5        0.0000 
     78 CA         52.4460   25.0130   47.5620 C.3       9 GLL5        0.0000 
     79 CA         50.2930   24.8185   47.8205 C.3       3 GLC5        0.0000 
@<TRIPOS>BOND
@<TRIPOS>SUBSTRUCTURE
     1 ALC1       18 GROUP        1 X    ALC  0     ROOT ALC X 1
     2 SEC2       12 GROUP        1 X    SEC  0     **** SEC X 2
     3 GLC5        1 GROUP        1 X    GLC  0     **** GLC X 6
     4 ALP1       20 GROUP        1 Y    ALP  0     ROOT ALP Y 8
     5 SEP2       14 GROUP        1 Y    SEP  0     **** SEP Y 9
     6 GLP5        3 GROUP        1 Y    GLP  0     **** GLP Y 13
     7 ALL1       19 GROUP        1 Z    ALL  0     ROOT ALL Z 15
     8 SEL2       13 GROUP        1 Z    SEL  0     **** SEL Z 16
     9 GLL5        2 GROUP        1 Z    GLL  0     **** GLL Z 20
@<TRIPOS>SET

