#    Name: 2y4o_DLL_2_ligand
#    Modification time : Tue Mar 25 07:35:13 2014

@<TRIPOS>MOLECULE
2y4o_DLL_2_ligand
   51    54     1     0     0
SMALL
NO_CHARGES


@<TRIPOS>ATOM
      1 O          52.8680   30.8620   48.1870 O.2       1 DLL1438     0.0000 
      2 CB         50.5540   31.4830   48.5500 C.3       1 DLL1438     0.0000 
      3 CG         50.5280   30.4960   49.7130 C.ar      1 DLL1438     0.0000 
      4 CD2        50.1030   29.1840   49.4970 C.ar      1 DLL1438     0.0000 
      5 CD1        50.5860   30.9980   51.0120 C.ar      1 DLL1438     0.0000 
      6 CE2        49.9360   28.3130   50.5760 C.ar      1 DLL1438     0.0000 
      7 CE1        50.4720   30.1180   52.0860 C.ar      1 DLL1438     0.0000 
      8 CZ         50.0970   28.7940   51.8740 C.ar      1 DLL1438     0.0000 
      9 P          53.1540   32.8140   45.9420 P.3       1 DLL1438     0.0000 
     10 O2P        54.0560   33.5250   46.8720 O.co2     1 DLL1438     0.0000 
     11 O3P        52.6100   33.5560   44.8000 O.co2     1 DLL1438     0.0000 
     12 O1P        51.8050   32.2730   46.6900 O.3       1 DLL1438     0.0000 
     13 O5'        53.9170   31.4860   45.4910 O.3       1 DLL1438     0.0000 
     14 C5'        53.2610   30.6340   44.6630 C.3       1 DLL1438     0.0000 
     15 O4'        54.3910   28.6690   45.6880 O.3       1 DLL1438     0.0000 
     16 O3'        53.2290   28.4950   42.3190 O.3       1 DLL1438     0.0000 
     17 C2'        54.0850   26.9510   44.0390 C.3       1 DLL1438     0.0000 
     18 O2'        55.2680   26.9000   43.2190 O.3       1 DLL1438     0.0000 
     19 C1'        54.4790   27.2360   45.4900 C.3       1 DLL1438     0.0000 
     20 N9         53.5610   26.5430   46.4090 N.pl3     1 DLL1438     0.0000 
     21 C8         52.4420   27.2230   47.0420 C.2       1 DLL1438     0.0000 
     22 N7         51.9070   26.1820   47.9100 N.2       1 DLL1438     0.0000 
     23 C5         52.4460   25.0130   47.5620 C.ar      1 DLL1438     0.0000 
     24 C6         52.2680   23.7110   48.0380 C.ar      1 DLL1438     0.0000 
     25 CAZ        51.9080   31.5650   47.8490 C.2       1 DLL1438     0.0000 
     26 N6         51.3120   23.4220   48.9260 N.pl3     1 DLL1438     0.0000 
     27 C4'        53.8500   29.2360   44.5640 C.3       1 DLL1438     0.0000 
     28 N1         53.0080   22.7170   47.5310 N.ar      1 DLL1438     0.0000 
     29 C3'        53.2040   28.1540   43.7150 C.3       1 DLL1438     0.0000 
     30 C2         53.9710   22.9770   46.6540 C.ar      1 DLL1438     0.0000 
     31 C4         53.4840   25.2460   46.6630 C.ar      1 DLL1438     0.0000 
     32 N3         54.2230   24.2170   46.2550 N.ar      1 DLL1438     0.0000 
     33 H          50.2831   32.4830   48.9224 H         1 DLL1438     0.0000 
     34 H          49.7880   31.1912   47.8150 H         1 DLL1438     0.0000 
     35 H          49.9123   28.8576   48.5413 H         1 DLL1438     0.0000 
     36 H          50.7106   31.9989   51.1742 H         1 DLL1438     0.0000 
     37 H          49.6979   27.3321   50.4137 H         1 DLL1438     0.0000 
     38 H          50.6662   30.4490   53.0419 H         1 DLL1438     0.0000 
     39 H          49.9386   28.1701   52.6755 H         1 DLL1438     0.0000 
     40 H          53.1978   31.0230   43.6035 H         1 DLL1438     0.0000 
     41 H          52.1770   30.4973   44.9531 H         1 DLL1438     0.0000 
     42 H          53.5021   26.0814   44.0204 H         1 DLL1438     0.0000 
     43 H          55.4838   26.8967   45.6333 H         1 DLL1438     0.0000 
     44 H          52.1594   28.0499   46.9307 H         1 DLL1438     0.0000 
     45 H          50.7771   24.1962   49.2643 H         1 DLL1438     0.0000 
     46 H          51.2173   22.4575   49.1724 H         1 DLL1438     0.0000 
     47 H          54.8625   29.4503   43.8773 H         1 DLL1438     0.0000 
     48 H          52.2357   27.9677   44.1000 H         1 DLL1438     0.0000 
     49 H          54.5480   22.1795   46.2664 H         1 DLL1438     0.0000 
     50 H          52.9867   27.6502   41.8420 H         1 DLL1438     0.0000 
     51 H          55.1538   26.0854   42.6504 H         1 DLL1438     0.0000 
@<TRIPOS>BOND
     1   25    1 2    
     2    3    2 1    
     3   25    2 1    
     4   33    2 1    
     5   34    2 1    
     6    4    3 ar   
     7    5    3 ar   
     8    6    4 ar   
     9   35    4 1    
    10    7    5 ar   
    11   36    5 1    
    12    8    6 ar   
    13   37    6 1    
    14    8    7 ar   
    15   38    7 1    
    16   39    8 1    
    17   10    9 ar   
    18   11    9 ar   
    19   12    9 1    
    20   13    9 1    
    21   25   12 1    
    22   14   13 1    
    23   27   14 1    
    24   40   14 1    
    25   41   14 1    
    26   19   15 1    
    27   27   15 1    
    28   29   16 1    
    29   50   16 1    
    30   18   17 1    
    31   19   17 1    
    32   29   17 1    
    33   42   17 1    
    34   51   18 1    
    35   20   19 1    
    36   43   19 1    
    37   21   20 1    
    38   31   20 1    
    39   22   21 2    
    40   44   21 1    
    41   23   22 1    
    42   24   23 ar   
    43   31   23 ar   
    44   26   24 1    
    45   28   24 ar   
    46   45   26 1    
    47   46   26 1    
    48   29   27 1    
    49   47   27 1    
    50   30   28 ar   
    51   48   29 1    
    52   32   30 ar   
    53   49   30 1    
    54   32   31 ar   
@<TRIPOS>SUBSTRUCTURE
     1 DLL1438     1 GROUP   
@<TRIPOS>SET

