#    Name: 2c99_ANP_1_INTS_M
#    Modification time : Mon Mar 24 23:17:42 2014

@<TRIPOS>MOLECULE
2c99_ANP_1_INTS_M
   59     0    12     0     0
SMALL
NO_CHARGES


@<TRIPOS>ATOM
      1 NZ         29.4350   -9.8475   -0.7235 N.4       3 LYC4        0.0000 
      2 NZ         28.7560   -8.8770   -2.0350 N.4      11 LYL4        0.0000 
      3 NZ         30.1140  -10.8180    0.5880 N.4       7 LYP4        0.0000 
      4 NZ         30.7755   -6.2300   -4.1080 N.4       3 LYC4        0.0000 
      5 NZ         29.4670   -6.9850   -3.7210 N.4      11 LYL4        0.0000 
      6 NZ         32.4590   -4.5800   -3.6020 N.4       7 LYP4        0.0000 
      7 N          30.7755   -6.2300   -4.1080 N.am      2 SEC2        0.0000 
      8 N          29.4670   -6.9850   -3.7210 N.am     10 SEL2        0.0000 
      9 N          32.0840   -5.4750   -4.4950 N.am      6 SEP2        0.0000 
     10 NZ         31.2210  -10.5930   -0.2460 N.4       3 LYC4        0.0000 
     11 NZ         32.3280  -10.3680   -1.0800 N.4      11 LYL4        0.0000 
     12 N          33.5620   -9.7965   -0.2245 N.am      2 SEC2        0.0000 
     13 N          32.3280  -10.3680   -1.0800 N.am     10 SEL2        0.0000 
     14 N          34.7960   -9.2250    0.6310 N.am      6 SEP2        0.0000 
     15 N          33.8470  -10.7215   -1.1555 N.am      2 SEC2        0.0000 
     16 N          35.3660  -11.0750   -1.2310 N.am      6 SEP2        0.0000 
     17 N          32.8660  -11.6205   -1.6455 N.am      2 SEC2        0.0000 
     18 N          33.4040  -12.8730   -2.2110 N.am      6 SEP2        0.0000 
     19 N          31.2210  -10.5930   -0.2460 N.am      2 SEC2        0.0000 
     20 N          30.1140  -10.8180    0.5880 N.am      6 SEP2        0.0000 
     21 N          31.5450  -11.8500   -4.0235 N.am      2 SEC2        0.0000 
     22 N          31.1780  -10.4730   -3.4500 N.am     10 SEL2        0.0000 
     23 N          31.9120  -13.2270   -4.5970 N.am      6 SEP2        0.0000 
     24 N          34.1635  -12.2635   -5.7620 N.am      2 SEC2        0.0000 
     25 N          34.2360  -10.8470   -5.1700 N.am     10 SEL2        0.0000 
     26 N          34.0910  -13.6800   -6.3540 N.am      6 SEP2        0.0000 
     27 N          34.4525  -10.2550   -2.1095 N.am      2 SEC2        0.0000 
     28 N          33.5390   -9.4350   -2.9880 N.am     10 SEL2        0.0000 
     29 CA         34.7995   -7.1185   -2.0670 C.3       4 GLC5        0.0000 
     30 CA         35.3810   -7.2560   -4.0450 C.3      12 GLL5        0.0000 
     31 CA         34.2180   -6.9810   -0.0890 C.3       8 GLP5        0.0000 
     32 CA         39.5255   -7.3420   -3.3025 C.3       4 GLC5        0.0000 
     33 CA         38.6370   -7.8250   -4.8760 C.3      12 GLL5        0.0000 
     34 CA         40.4140   -6.8590   -1.7290 C.3       8 GLP5        0.0000 
     35 CA         43.9160  -11.8440   -3.3215 C.3       4 GLC5        0.0000 
     36 CA         41.7640  -11.3880   -3.3410 C.3      12 GLL5        0.0000 
     37 CA         46.0680  -12.3000   -3.3020 C.3       8 GLP5        0.0000 
     38 O          43.2315  -12.7370   -2.0860 O.2       1 ALC1        0.0000 
     39 O          41.9360  -12.5050   -2.5770 O.2       9 ALL1        0.0000 
     40 O          44.5270  -12.9690   -1.5950 O.2       5 ALP1        0.0000 
     41 N          43.9220  -11.7340   -4.1705 N.am      2 SEC2        0.0000 
     42 N          42.7920  -10.8310   -4.0340 N.am     10 SEL2        0.0000 
     43 N          45.0520  -12.6370   -4.3070 N.am      6 SEP2        0.0000 
     44 CA         44.5370   -9.8125   -4.5900 C.3       4 GLC5        0.0000 
     45 CA         42.6650   -9.7080   -4.7910 C.3      12 GLL5        0.0000 
     46 CA         46.4090   -9.9170   -4.3890 C.3       8 GLP5        0.0000 
     47 CA         40.3775   -8.1995   -2.9870 C.3       4 GLC5        0.0000 
     48 CA         40.3410   -9.5400   -4.2450 C.3      12 GLL5        0.0000 
     49 CA         35.7807   -5.2775   -3.2702 C.3       4 GLC5        0.0000 
     50 CA         36.6040   -6.8520   -4.7200 C.3      12 GLL5        0.0000 
     51 CA         35.5690   -3.5010   -2.1580 C.3       8 GLP5        0.0000 
     52 CA         38.1947   -9.7320   -6.0563 C.3       4 GLC5        0.0000 
     53 CA         38.0830  -11.6140   -6.5640 C.3       8 GLP5        0.0000 
     54 CA         40.9973  -12.5530   -4.7035 C.3       4 GLC5        0.0000 
     55 CA         40.4290  -10.7360   -3.4190 C.3      12 GLL5        0.0000 
     56 CA         40.8980  -14.0440   -6.0270 C.3       8 GLP5        0.0000 
     57 CA         39.2340  -10.8760   -5.1980 C.3       4 GLC5        0.0000 
     58 CA         40.4657  -10.2765   -1.7270 C.3       4 GLC5        0.0000 
     59 CA         39.8350   -9.4910   -0.0740 C.3       8 GLP5        0.0000 
@<TRIPOS>BOND
@<TRIPOS>SUBSTRUCTURE
     1 ALC1       38 GROUP        1 X    ALC  0     ROOT ALC X 1
     2 SEC2        7 GROUP        1 X    SEC  0     **** SEC X 2
     3 LYC4        1 GROUP        1 X    LYC  0     **** LYC X 4
     4 GLC5       29 GROUP        1 X    GLC  0     **** GLC X 6
     5 ALP1       40 GROUP        1 Y    ALP  0     ROOT ALP Y 8
     6 SEP2        9 GROUP        1 Y    SEP  0     **** SEP Y 9
     7 LYP4        3 GROUP        1 Y    LYP  0     **** LYP Y 11
     8 GLP5       31 GROUP        1 Y    GLP  0     **** GLP Y 13
     9 ALL1       39 GROUP        1 Z    ALL  0     ROOT ALL Z 15
    10 SEL2        8 GROUP        1 Z    SEL  0     **** SEL Z 16
    11 LYL4        2 GROUP        1 Z    LYL  0     **** LYL Z 18
    12 GLL5       30 GROUP        1 Z    GLL  0     **** GLL Z 20
@<TRIPOS>SET

