#    Name: 2c99_ANP_1_ligand
#    Modification time : Mon Mar 24 23:17:42 2014

@<TRIPOS>MOLECULE
2c99_ANP_1_ligand
   43    45     1     0     0
SMALL
NO_CHARGES


@<TRIPOS>ATOM
      1 PG         29.7570   -7.6200   -2.2390 P.3       1 ANP303      0.0000 
      2 O1G        28.7560   -8.8770   -2.0350 O.co2     1 ANP303      0.0000 
      3 O2G        29.3680   -6.4810   -1.2360 O.co2     1 ANP303      0.0000 
      4 O3G        29.4670   -6.9850   -3.7210 O.co2     1 ANP303      0.0000 
      5 PB         32.0790   -9.6550   -2.4390 P.3       1 ANP303      0.0000 
      6 O1B        32.3280  -10.3680   -1.0800 O.co2     1 ANP303      0.0000 
      7 O2B        31.1780  -10.4730   -3.4500 O.co2     1 ANP303      0.0000 
      8 N3B        31.4660   -8.0650   -2.1180 N.4       1 ANP303      0.0000 
      9 PA         33.9680   -9.4090   -4.5520 P.3       1 ANP303      0.0000 
     10 O1A        34.2360  -10.8470   -5.1700 O.co2     1 ANP303      0.0000 
     11 O2A        32.9300   -8.6190   -5.4010 O.co2     1 ANP303      0.0000 
     12 O3A        33.5390   -9.4350   -2.9880 O.3       1 ANP303      0.0000 
     13 O5'        35.4090   -8.6850   -4.3300 O.3       1 ANP303      0.0000 
     14 C5'        35.3810   -7.2560   -4.0450 C.3       1 ANP303      0.0000 
     15 C4'        36.6040   -6.8520   -4.7200 C.3       1 ANP303      0.0000 
     16 O4'        37.7370   -7.0640   -4.0290 O.3       1 ANP303      0.0000 
     17 C3'        36.8280   -6.9720   -6.1850 C.3       1 ANP303      0.0000 
     18 O3'        37.4530   -5.7900   -6.6740 O.3       1 ANP303      0.0000 
     19 C2'        37.9760   -7.8750   -6.2210 C.3       1 ANP303      0.0000 
     20 O2'        38.4850   -8.4330   -7.4080 O.3       1 ANP303      0.0000 
     21 C1'        38.6370   -7.8250   -4.8760 C.3       1 ANP303      0.0000 
     22 N9         39.0940   -9.0600   -4.2270 N.pl3     1 ANP303      0.0000 
     23 C8         38.3840   -9.8880   -3.4100 C.2       1 ANP303      0.0000 
     24 N7         39.1850  -10.9230   -2.9370 N.2       1 ANP303      0.0000 
     25 C5         40.4290  -10.7360   -3.4190 C.ar      1 ANP303      0.0000 
     26 C6         41.7640  -11.3880   -3.3410 C.ar      1 ANP303      0.0000 
     27 N6         41.9360  -12.5050   -2.5770 N.pl3     1 ANP303      0.0000 
     28 N1         42.7920  -10.8310   -4.0340 N.ar      1 ANP303      0.0000 
     29 C2         42.6650   -9.7080   -4.7910 C.ar      1 ANP303      0.0000 
     30 N3         41.5040   -9.0310   -4.9350 N.ar      1 ANP303      0.0000 
     31 C4         40.3410   -9.5400   -4.2450 C.ar      1 ANP303      0.0000 
     32 H          35.4490   -7.0794   -3.0009 H         1 ANP303      0.0000 
     33 H          34.5336   -6.7999   -4.4921 H         1 ANP303      0.0000 
     34 H          36.5158   -5.5992   -4.6318 H         1 ANP303      0.0000 
     35 H          36.0574   -7.3138   -6.6959 H         1 ANP303      0.0000 
     36 H          37.2008   -8.9524   -5.8575 H         1 ANP303      0.0000 
     37 H          39.5461   -7.1455   -5.0135 H         1 ANP303      0.0000 
     38 H          37.4467   -9.7837   -3.1796 H         1 ANP303      0.0000 
     39 H          41.1207  -12.8498   -2.1118 H         1 ANP303      0.0000 
     40 H          42.8623  -12.8808   -2.5493 H         1 ANP303      0.0000 
     41 H          43.5290   -9.3454   -5.2961 H         1 ANP303      0.0000 
     42 H          38.4028   -5.8540   -6.3679 H         1 ANP303      0.0000 
     43 H          39.4463   -8.1585   -7.4314 H         1 ANP303      0.0000 
@<TRIPOS>BOND
     1    2    1 ar   
     2    3    1 ar   
     3    4    1 ar   
     4    8    1 1    
     5    6    5 ar   
     6    7    5 ar   
     7    8    5 1    
     8   12    5 1    
     9   10    9 ar   
    10   11    9 ar   
    11   12    9 1    
    12   13    9 1    
    13   14   13 1    
    14   15   14 1    
    15   32   14 1    
    16   33   14 1    
    17   16   15 1    
    18   17   15 1    
    19   34   15 1    
    20   21   16 1    
    21   18   17 1    
    22   19   17 1    
    23   35   17 1    
    24   42   18 1    
    25   20   19 1    
    26   21   19 1    
    27   36   19 1    
    28   43   20 1    
    29   22   21 1    
    30   37   21 1    
    31   23   22 1    
    32   31   22 1    
    33   24   23 2    
    34   38   23 1    
    35   25   24 1    
    36   26   25 ar   
    37   31   25 ar   
    38   27   26 1    
    39   28   26 ar   
    40   39   27 1    
    41   40   27 1    
    42   29   28 ar   
    43   30   29 ar   
    44   41   29 1    
    45   31   30 ar   
@<TRIPOS>SUBSTRUCTURE
     1 ANP303      1 GROUP   
@<TRIPOS>SET

