#    Name: 3h0y_48B_1_INTS_M
#    Modification time : Tue Mar 25 13:27:36 2014

@<TRIPOS>MOLECULE
3h0y_48B_1_INTS_M
   62     0     9     0     0
SMALL
NO_CHARGES


@<TRIPOS>ATOM
      1 CA         55.0755    8.8840   17.7505 C.3       3 GLC5        0.0000 
      2 CA         53.7580    9.7250   18.9840 C.3       9 GLL5        0.0000 
      3 CA         56.3930    8.0430   16.5170 C.3       6 GLP5        0.0000 
      4 CA         54.1600   13.0885   20.3105 C.3       3 GLC5        0.0000 
      5 CA         52.8400   11.7960   19.0780 C.3       9 GLL5        0.0000 
      6 CA         55.4800   14.3810   21.5430 C.3       6 GLP5        0.0000 
      7 CA         52.5560   13.4270   17.7435 C.3       3 GLC5        0.0000 
      8 CA         52.2720   15.0580   16.4090 C.3       6 GLP5        0.0000 
      9 N          51.3025   13.7065   18.7755 N.am      2 SEC2        0.0000 
     10 N          52.2360   12.7780   19.7200 N.am      8 SEL2        0.0000 
     11 N          50.3690   14.6350   17.8310 N.am      5 SEP2        0.0000 
     12 CA         53.8295   13.5685   21.3510 C.3       3 GLC5        0.0000 
     13 CA         52.1790   12.7560   21.1590 C.3       9 GLL5        0.0000 
     14 CA         50.3525   13.0940   20.0165 C.3       3 GLC5        0.0000 
     15 CA         48.5260   13.4320   18.8740 C.3       6 GLP5        0.0000 
     16 CA         51.0000   11.3455   20.5400 C.3       3 GLC5        0.0000 
     17 CA         49.8210    9.9350   19.9210 C.3       6 GLP5        0.0000 
     18 O          50.4920   14.6460   21.2015 O.2       1 ALC1        0.0000 
     19 O          51.4410   13.8690   21.7930 O.2       7 ALL1        0.0000 
     20 O          49.5430   15.4230   20.6100 O.2       4 ALP1        0.0000 
     21 CA         50.1275   11.5885   25.6990 C.3       3 GLC5        0.0000 
     22 CA         51.4390   13.3840   25.4600 C.3       9 GLL5        0.0000 
     23 CA         48.8160    9.7930   25.9380 C.3       6 GLP5        0.0000 
     24 CA         54.5210   11.8140   23.8695 C.3       3 GLC5        0.0000 
     25 CA         53.4560   10.0460   23.8330 C.3       9 GLL5        0.0000 
     26 CA         55.5860   13.5820   23.9060 C.3       6 GLP5        0.0000 
     27 CA         49.7225   10.0985   27.4140 C.3       3 GLC5        0.0000 
     28 CA         50.6290   10.4040   28.8900 C.3       9 GLL5        0.0000 
     29 CA         54.4786   11.8465   18.5071 C.3       3 GLC5        0.0000 
     30 CA         55.7930   12.6940   17.8010 C.3       6 GLP5        0.0000 
     31 CA         52.2716    9.8480   17.7846 C.3       3 GLC5        0.0000 
     32 CA         51.3790    8.6970   16.3560 C.3       6 GLP5        0.0000 
     33 CA         49.6493   13.9510   24.0340 C.3       3 GLC5        0.0000 
     34 CA         51.3410   14.0730   23.1270 C.3       9 GLL5        0.0000 
     35 CA         47.8890   14.3240   24.4540 C.3       6 GLP5        0.0000 
     36 CA         50.2343   11.9500   22.9440 C.3       3 GLC5        0.0000 
     37 CA         49.0590   10.3220   22.2740 C.3       6 GLP5        0.0000 
     38 CA         53.5222   13.4078   24.3432 C.3       3 GLC5        0.0000 
     39 CA         51.4780   13.0830   24.1010 C.3       9 GLL5        0.0000 
     40 CA         49.6210   14.1820   25.0598 C.3       3 GLC5        0.0000 
     41 CA         53.0331   15.5793   23.7749 C.3       3 GLC5        0.0000 
     42 CA         51.1430   15.6970   24.9120 C.3       9 GLL5        0.0000 
     43 CA         54.8620   15.9440   23.4240 C.3       6 GLP5        0.0000 
     44 CA         49.5278   14.9340   24.3430 C.3       3 GLC5        0.0000 
     45 CA         51.1900   15.3910   23.5520 C.3       9 GLL5        0.0000 
     46 CA         55.0956   10.5568   20.6074 C.3       3 GLC5        0.0000 
     47 CA         53.0560   10.5150   21.0290 C.3       9 GLL5        0.0000 
     48 CA         56.9190   10.7550   21.0260 C.3       6 GLP5        0.0000 
     49 CA         51.4656   10.3460   20.0211 C.3       3 GLC5        0.0000 
     50 CA         50.9525    9.4110   22.6678 C.3       3 GLC5        0.0000 
     51 CA         53.2100    9.0640   22.8730 C.3       9 GLL5        0.0000 
     52 CA         54.9375    9.1190   23.0856 C.3       3 GLC5        0.0000 
     53 CA         56.7240    8.9650   22.7240 C.3       6 GLP5        0.0000 
     54 CA         54.5630    9.8294   25.9620 C.3       3 GLC5        0.0000 
     55 CA         52.3420    8.7650   25.5460 C.3       9 GLL5        0.0000 
     56 CA         56.3340   10.2900   26.9080 C.3       6 GLP5        0.0000 
     57 CA         50.5973    9.1730   25.4501 C.3       3 GLC5        0.0000 
     58 CA         53.0280    9.8990   25.1390 C.3       9 GLL5        0.0000 
     59 CA         49.8995    8.9840   27.6122 C.3       3 GLC5        0.0000 
     60 CA         51.2130    7.6040   28.9440 C.3       9 GLL5        0.0000 
     61 CA         49.8627    5.5776   28.9369 C.3       3 GLC5        0.0000 
     62 CA         48.6600    4.5300   27.7660 C.3       6 GLP5        0.0000 
@<TRIPOS>BOND
@<TRIPOS>SUBSTRUCTURE
     1 ALC1       18 GROUP        1 X    ALC  0     ROOT ALC X 1
     2 SEC2        9 GROUP        1 X    SEC  0     **** SEC X 2
     3 GLC5        1 GROUP        1 X    GLC  0     **** GLC X 6
     4 ALP1       20 GROUP        1 Y    ALP  0     ROOT ALP Y 8
     5 SEP2       11 GROUP        1 Y    SEP  0     **** SEP Y 9
     6 GLP5        3 GROUP        1 Y    GLP  0     **** GLP Y 13
     7 ALL1       19 GROUP        1 Z    ALL  0     ROOT ALL Z 15
     8 SEL2       10 GROUP        1 Z    SEL  0     **** SEL Z 16
     9 GLL5        2 GROUP        1 Z    GLL  0     **** GLL Z 20
@<TRIPOS>SET

