#    Name: 3h0y_48B_1_ligand
#    Modification time : Tue Mar 25 13:27:36 2014

@<TRIPOS>MOLECULE
3h0y_48B_1_ligand
   49    52     1     0     0
SMALL
NO_CHARGES


@<TRIPOS>ATOM
      1 F23        53.7580    9.7250   18.9840 F         1 48B1        0.0000 
      2 C17        53.2190   10.6790   19.7130 C.ar      1 48B1        0.0000 
      3 C18        52.8400   11.7960   19.0780 C.ar      1 48B1        0.0000 
      4 N19        52.2360   12.7780   19.7200 N.ar      1 48B1        0.0000 
      5 C20        52.1790   12.7560   21.1590 C.ar      1 48B1        0.0000 
      6 N24        51.4410   13.8690   21.7930 N.pl3     1 48B1        0.0000 
      7 C30        51.3410   14.0730   23.1270 C.ar      1 48B1        0.0000 
      8 C29        51.4780   13.0830   24.1010 C.ar      1 48B1        0.0000 
      9 C28        51.4390   13.3840   25.4600 C.ar      1 48B1        0.0000 
     10 C27        51.2670   14.6960   25.8710 C.ar      1 48B1        0.0000 
     11 O31        51.2320   14.9880   27.1680 O.3       1 48B1        0.0000 
     12 C26        51.1430   15.6970   24.9120 C.ar      1 48B1        0.0000 
     13 C25        51.1900   15.3910   23.5520 C.ar      1 48B1        0.0000 
     14 N21        52.4300   11.4610   21.7190 N.ar      1 48B1        0.0000 
     15 C22        53.0560   10.5150   21.0290 C.ar      1 48B1        0.0000 
     16 N16        53.4660    9.3530   21.5740 N.pl3     1 48B1        0.0000 
     17 C11        53.2100    9.0640   22.8730 C.ar      1 48B1        0.0000 
     18 C10        52.4820    7.9360   23.2500 C.ar      1 48B1        0.0000 
     19 C12        53.4560   10.0460   23.8330 C.ar      1 48B1        0.0000 
     20 C13        53.0280    9.8990   25.1390 C.ar      1 48B1        0.0000 
     21 C14        52.3420    8.7650   25.5460 C.ar      1 48B1        0.0000 
     22 C15        52.0720    7.7740   24.5820 C.ar      1 48B1        0.0000 
     23 N9         52.0550    8.7090   26.8800 N.am      1 48B1        0.0000 
     24 C7         51.6250    7.6060   27.4920 C.2       1 48B1        0.0000 
     25 O8         51.5030    6.5510   26.8880 O.2       1 48B1        0.0000 
     26 C4         51.2130    7.6040   28.9440 C.ar      1 48B1        0.0000 
     27 C5         50.7530    8.7460   29.6290 C.ar      1 48B1        0.0000 
     28 CL1        50.6290   10.4040   28.8900 Cl        1 48B1        0.0000 
     29 C6         50.3790    8.6210   30.9730 C.ar      1 48B1        0.0000 
     30 C3         51.2670    6.3710   29.6070 C.ar      1 48B1        0.0000 
     31 C2         50.8910    6.2630   30.9400 C.ar      1 48B1        0.0000 
     32 C1         50.4480    7.3920   31.6230 C.ar      1 48B1        0.0000 
     33 H          53.0326   11.8840   18.0421 H         1 48B1        0.0000 
     34 H          50.9733   14.5281   21.1115 H         1 48B1        0.0000 
     35 H          51.6124   12.0968   23.8033 H         1 48B1        0.0000 
     36 H          51.5378   12.6326   26.1541 H         1 48B1        0.0000 
     37 H          51.0147   16.6775   25.2093 H         1 48B1        0.0000 
     38 H          51.1122   16.1476   22.8557 H         1 48B1        0.0000 
     39 H          53.9905    8.6606   20.9880 H         1 48B1        0.0000 
     40 H          52.2435    7.2199   22.5539 H         1 48B1        0.0000 
     41 H          53.9720   10.9034   23.5549 H         1 48B1        0.0000 
     42 H          53.2228   10.6503   25.8291 H         1 48B1        0.0000 
     43 H          51.5676    6.9214   24.8607 H         1 48B1        0.0000 
     44 H          52.1860    9.6002   27.4489 H         1 48B1        0.0000 
     45 H          50.0480    9.4543   31.4855 H         1 48B1        0.0000 
     46 H          51.5909    5.5355   29.0942 H         1 48B1        0.0000 
     47 H          50.9391    5.3575   31.4190 H         1 48B1        0.0000 
     48 H          50.1707    7.3180   32.6113 H         1 48B1        0.0000 
     49 H          51.3615   15.9785   27.2137 H         1 48B1        0.0000 
@<TRIPOS>BOND
     1    2    1 1    
     2    3    2 ar   
     3   15    2 ar   
     4    4    3 ar   
     5   33    3 1    
     6    5    4 ar   
     7    6    5 1    
     8   14    5 ar   
     9    7    6 1    
    10   34    6 1    
    11    8    7 ar   
    12   13    7 ar   
    13    9    8 ar   
    14   35    8 1    
    15   10    9 ar   
    16   36    9 1    
    17   11   10 1    
    18   12   10 ar   
    19   49   11 1    
    20   13   12 ar   
    21   37   12 1    
    22   38   13 1    
    23   15   14 ar   
    24   16   15 1    
    25   17   16 1    
    26   39   16 1    
    27   18   17 ar   
    28   19   17 ar   
    29   22   18 ar   
    30   40   18 1    
    31   20   19 ar   
    32   41   19 1    
    33   21   20 ar   
    34   42   20 1    
    35   22   21 ar   
    36   23   21 1    
    37   43   22 1    
    38   24   23 am   
    39   44   23 1    
    40   25   24 2    
    41   26   24 1    
    42   27   26 ar   
    43   30   26 ar   
    44   28   27 1    
    45   29   27 ar   
    46   32   29 ar   
    47   45   29 1    
    48   31   30 ar   
    49   46   30 1    
    50   32   31 ar   
    51   47   31 1    
    52   48   32 1    
@<TRIPOS>SUBSTRUCTURE
     1 48B1        1 GROUP   
@<TRIPOS>SET

