#    Name: 1pro_A88_1_INTS_M
#    Modification time : Mon Mar 24 22:11:54 2014

@<TRIPOS>MOLECULE
1pro_A88_1_INTS_M
  108     0     9     0     0
SMALL
NO_CHARGES


@<TRIPOS>ATOM
      1 N          -8.5625   12.5790   27.6870 N.am      2 SEC2        0.0000 
      2 N          -8.1960   14.0580   27.7490 N.am      8 SEL2        0.0000 
      3 N          -8.9290   11.1000   27.6250 N.am      5 SEP2        0.0000 
      4 N          -6.7280   13.6610   27.8875 N.am      2 SEC2        0.0000 
      5 N          -5.2600   13.2640   28.0260 N.am      5 SEP2        0.0000 
      6 N         -11.5650   19.9250   28.8330 N.am      2 SEC2        0.0000 
      7 N         -11.7120   18.5780   28.6250 N.am      8 SEL2        0.0000 
      8 N         -11.4180   21.2720   29.0410 N.am      5 SEP2        0.0000 
      9 O         -12.2200   19.5180   27.6075 O.2       1 ALC1        0.0000 
     10 O         -11.7120   18.5780   28.6250 O.2       7 ALL1        0.0000 
     11 O         -12.7280   20.4580   26.5900 O.2       4 ALP1        0.0000 
     12 O         -12.4685   18.5105   27.3925 O.2       1 ALC1        0.0000 
     13 O         -13.2250   18.4430   26.1600 O.2       4 ALP1        0.0000 
     14 CA         -9.9045   20.3695   26.5050 C.3       3 GLC5        0.0000 
     15 CA         -9.9550   18.2170   26.9280 C.3       9 GLL5        0.0000 
     16 CA         -9.8540   22.5220   26.0820 C.3       6 GLP5        0.0000 
     17 CA        -10.1635   19.2630   24.9745 C.3       3 GLC5        0.0000 
     18 CA        -10.3720   20.3090   23.0210 C.3       6 GLP5        0.0000 
     19 CA         -6.1830   21.0140   26.7925 C.3       3 GLC5        0.0000 
     20 CA         -5.9990   18.9990   26.2900 C.3       9 GLL5        0.0000 
     21 CA         -6.3670   23.0290   27.2950 C.3       6 GLP5        0.0000 
     22 CA         -5.0460   15.7980   29.1860 C.3       3 GLC5        0.0000 
     23 CA         -5.3300   17.0100   27.5410 C.3       9 GLL5        0.0000 
     24 CA         -4.7620   14.5860   30.8310 C.3       6 GLP5        0.0000 
     25 CA        -15.1800   15.8060   28.8970 C.3       3 GLC5        0.0000 
     26 CA        -13.5150   14.6890   29.4100 C.3       9 GLL5        0.0000 
     27 CA        -16.8450   16.9230   28.3840 C.3       6 GLP5        0.0000 
     28 CA        -10.6320   11.8390   27.2080 C.3       3 GLC5        0.0000 
     29 CA        -12.1290   13.2200   28.0570 C.3       9 GLL5        0.0000 
     30 CA         -9.1350   10.4580   26.3590 C.3       6 GLP5        0.0000 
     31 CA         -7.5545   14.0485   30.1960 C.3       3 GLC5        0.0000 
     32 CA         -9.5080   14.6890   30.0310 C.3       9 GLL5        0.0000 
     33 CA         -5.6010   13.4080   30.3610 C.3       6 GLP5        0.0000 
     34 CA         -7.1970   17.4485   33.8635 C.3       3 GLC5        0.0000 
     35 CA         -9.0600   16.8300   33.1410 C.3       9 GLL5        0.0000 
     36 CA         -5.3340   18.0670   34.5860 C.3       6 GLP5        0.0000 
     37 N         -11.1525   17.8795   35.9620 N.am      2 SEC2        0.0000 
     38 N         -10.3860   17.0270   35.0700 N.am      8 SEL2        0.0000 
     39 N         -11.9190   18.7320   36.8540 N.am      5 SEP2        0.0000 
     40 N         -12.9435   16.7950   34.3170 N.am      2 SEC2        0.0000 
     41 N         -12.3300   15.2890   33.9950 N.am      8 SEL2        0.0000 
     42 N         -13.5570   18.3010   34.6390 N.am      5 SEP2        0.0000 
     43 CA        -13.9260   15.6560   35.1625 C.3       3 GLC5        0.0000 
     44 CA        -13.2190   14.1460   33.8460 C.3       9 GLL5        0.0000 
     45 CA        -14.6330   17.1660   36.4790 C.3       6 GLP5        0.0000 
     46 CA         -7.8215   13.5740   24.9990 C.3       3 GLC5        0.0000 
     47 CA         -7.9030   15.5780   25.5260 C.3       9 GLL5        0.0000 
     48 CA         -7.7400   11.5700   24.4720 C.3       6 GLP5        0.0000 
     49 CA        -11.5830   15.2115   24.0665 C.3       3 GLC5        0.0000 
     50 CA         -9.6010   15.8450   23.6790 C.3       9 GLL5        0.0000 
     51 CA        -13.5650   14.5780   24.4540 C.3       6 GLP5        0.0000 
     52 CA        -11.3150   15.1425   21.5610 C.3       3 GLC5        0.0000 
     53 CA         -9.9640   16.3570   22.4350 C.3       9 GLL5        0.0000 
     54 CA        -12.6660   13.9280   20.6870 C.3       6 GLP5        0.0000 
     55 CA        -12.1345   16.7650   22.6735 C.3       3 GLC5        0.0000 
     56 CA        -14.3050   17.1730   22.9120 C.3       6 GLP5        0.0000 
     57 CA         -9.0810   18.8585   22.6335 C.3       3 GLC5        0.0000 
     58 CA         -7.7900   17.4080   22.2460 C.3       9 GLL5        0.0000 
     59 N          -9.9135   18.5775   19.6605 N.am      2 SEC2        0.0000 
     60 N          -9.6420   17.4790   20.5660 N.am      8 SEL2        0.0000 
     61 N         -10.1850   19.6760   18.7550 N.am      5 SEP2        0.0000 
     62 N          -8.0410   19.5775   21.2620 N.am      2 SEC2        0.0000 
     63 N          -6.9770   18.2840   21.5320 N.am      8 SEL2        0.0000 
     64 N          -9.1050   20.8710   20.9920 N.am      5 SEP2        0.0000 
     65 CA         -8.3235   19.8160   22.6435 C.3       3 GLC5        0.0000 
     66 CA         -6.2750   19.3230   22.2660 C.3       9 GLL5        0.0000 
     67 CA         -6.9275   20.3185   20.7035 C.3       3 GLC5        0.0000 
     68 CA         -7.5800   21.3140   19.1410 C.3       6 GLP5        0.0000 
     69 CA         -4.5865   19.3343   27.6395 C.3       3 GLC5        0.0000 
     70 CA         -6.2610   18.0140   27.2600 C.3       9 GLL5        0.0000 
     71 CA         -3.0430   20.1620   28.5040 C.3       6 GLP5        0.0000 
     72 CA         -3.6875   19.3142   27.1153 C.3       3 GLC5        0.0000 
     73 CA         -4.7980   18.9680   25.5870 C.3       9 GLL5        0.0000 
     74 CA         -3.8890   18.5822   27.8458 C.3       3 GLC5        0.0000 
     75 CA         -4.1400   16.9950   26.8340 C.3       9 GLL5        0.0000 
     76 CA         -4.9355   15.2458   26.4032 C.3       3 GLC5        0.0000 
     77 CA         -5.1360   13.4890   25.6190 C.3       6 GLP5        0.0000 
     78 CA         -2.8243   16.8070   27.3843 C.3       3 GLC5        0.0000 
     79 CA         -0.9820   16.3690   27.8230 C.3       6 GLP5        0.0000 
     80 CA         -6.0202   18.2746   29.3459 C.3       3 GLC5        0.0000 
     81 CA         -5.9110   19.0380   31.1110 C.3       6 GLP5        0.0000 
     82 CA        -15.6710   12.2758   29.2030 C.3       3 GLC5        0.0000 
     83 CA        -14.1260   13.5700   29.9890 C.3       9 GLL5        0.0000 
     84 CA        -17.4080   11.6250   28.6070 C.3       6 GLP5        0.0000 
     85 CA        -13.4435   10.5447   28.4775 C.3       3 GLC5        0.0000 
     86 CA        -13.7420   12.2830   29.6090 C.3       9 GLL5        0.0000 
     87 CA        -13.6420    8.8890   27.8270 C.3       6 GLP5        0.0000 
     88 CA        -10.6928   11.9095   29.1935 C.3       3 GLC5        0.0000 
     89 CA        -12.7480   12.1180   28.6470 C.3       9 GLL5        0.0000 
     90 CA         -8.9470   11.1500   30.0350 C.3       6 GLP5        0.0000 
     91 CA        -12.8582   14.3734   26.2686 C.3       3 GLC5        0.0000 
     92 CA         -9.2907   13.0755   30.3735 C.3       3 GLC5        0.0000 
     93 CA        -11.7300   17.1777   32.6748 C.3       3 GLC5        0.0000 
     94 CA        -10.8880   14.9570   32.1220 C.3       9 GLL5        0.0000 
     95 CA        -12.4630   19.1020   32.6060 C.3       6 GLP5        0.0000 
     96 CA         -7.4340   17.7897   31.8145 C.3       3 GLC5        0.0000 
     97 CA         -7.2674   15.8753   32.1668 C.3       3 GLC5        0.0000 
     98 CA         -5.3510   15.4440   31.9410 C.3       6 GLP5        0.0000 
     99 CA        -10.1547   18.1095   32.6825 C.3       3 GLC5        0.0000 
    100 CA         -8.8540   16.2530   31.8950 C.3       9 GLL5        0.0000 
    101 CA        -11.0710   19.7690   32.6650 C.3       6 GLP5        0.0000 
    102 CA         -6.6250   14.6705   25.2385 C.3       3 GLC5        0.0000 
    103 CA        -10.0032   14.2791   23.2899 C.3       3 GLC5        0.0000 
    104 CA        -10.5430   12.3870   23.3950 C.3       6 GLP5        0.0000 
    105 CA        -10.5216   18.0335   22.6475 C.3       3 GLC5        0.0000 
    106 CA        -11.6270   19.4460   22.9040 C.3       6 GLP5        0.0000 
    107 CA         -9.0071   15.0190   21.3090 C.3       3 GLC5        0.0000 
    108 CA         -8.5980   13.4170   20.2270 C.3       6 GLP5        0.0000 
@<TRIPOS>BOND
@<TRIPOS>SUBSTRUCTURE
     1 ALC1        9 GROUP        1 X    ALC  0     ROOT ALC X 1
     2 SEC2        1 GROUP        1 X    SEC  0     **** SEC X 2
     3 GLC5       14 GROUP        1 X    GLC  0     **** GLC X 6
     4 ALP1       11 GROUP        1 Y    ALP  0     ROOT ALP Y 8
     5 SEP2        3 GROUP        1 Y    SEP  0     **** SEP Y 9
     6 GLP5       16 GROUP        1 Y    GLP  0     **** GLP Y 13
     7 ALL1       10 GROUP        1 Z    ALL  0     ROOT ALL Z 15
     8 SEL2        2 GROUP        1 Z    SEL  0     **** SEL Z 16
     9 GLL5       15 GROUP        1 Z    GLL  0     **** GLL Z 20
@<TRIPOS>SET

