#    Name: 1pro_A88_1_ligand
#    Modification time : Mon Mar 24 22:11:55 2014

@<TRIPOS>MOLECULE
1pro_A88_1_ligand
   81    85     1     0     0
SMALL
NO_CHARGES


@<TRIPOS>ATOM
      1 N1         -8.6090   17.4790   26.9670 N.4       1 A88301      0.0000 
      2 N2         -8.6350   16.0340   26.7950 N.am      1 A88301      0.0000 
      3 C3         -8.8340   15.1390   27.7930 C.2       1 A88301      0.0000 
      4 O3         -8.1960   14.0580   27.7490 O.2       1 A88301      0.0000 
      5 N4         -9.7380   15.5000   28.7370 N.am      1 A88301      0.0000 
      6 C5        -10.7830   16.4110   28.6900 C.3       1 A88301      0.0000 
      7 C6        -10.5070   17.9430   28.3120 C.3       1 A88301      0.0000 
      8 O6        -11.7120   18.5780   28.6250 O.3       1 A88301      0.0000 
      9 C7         -9.9550   18.2170   26.9280 C.3       1 A88301      0.0000 
     10 C8         -7.5970   18.0110   27.9810 C.3       1 A88301      0.0000 
     11 C9         -6.2610   18.0140   27.2600 C.ar      1 A88301      0.0000 
     12 C10        -5.9990   18.9990   26.2900 C.ar      1 A88301      0.0000 
     13 C11        -4.7980   18.9680   25.5870 C.ar      1 A88301      0.0000 
     14 C12        -3.8660   17.9650   25.8660 C.ar      1 A88301      0.0000 
     15 C13        -4.1400   16.9950   26.8340 C.ar      1 A88301      0.0000 
     16 C14        -5.3300   17.0100   27.5410 C.ar      1 A88301      0.0000 
     17 C15       -11.8350   15.7240   27.7790 C.3       1 A88301      0.0000 
     18 C16       -12.5130   14.5110   28.4400 C.ar      1 A88301      0.0000 
     19 C17       -13.5150   14.6890   29.4100 C.ar      1 A88301      0.0000 
     20 C18       -14.1260   13.5700   29.9890 C.ar      1 A88301      0.0000 
     21 C19       -13.7420   12.2830   29.6090 C.ar      1 A88301      0.0000 
     22 C20       -12.7480   12.1180   28.6470 C.ar      1 A88301      0.0000 
     23 C21       -12.1290   13.2200   28.0570 C.ar      1 A88301      0.0000 
     24 C22        -9.5080   14.6890   30.0310 C.3       1 A88301      0.0000 
     25 C23        -9.7610   15.3130   31.3930 C.ar      1 A88301      0.0000 
     26 C24       -10.8880   14.9570   32.1220 C.ar      1 A88301      0.0000 
     27 C25       -11.1060   15.5500   33.3650 C.ar      1 A88301      0.0000 
     28 C26       -10.1860   16.4640   33.8690 C.ar      1 A88301      0.0000 
     29 C27        -9.0600   16.8300   33.1410 C.ar      1 A88301      0.0000 
     30 C28        -8.8540   16.2530   31.8950 C.ar      1 A88301      0.0000 
     31 O29       -10.3860   17.0270   35.0700 O.3       1 A88301      0.0000 
     32 O30       -12.3300   15.2890   33.9950 O.3       1 A88301      0.0000 
     33 C31       -13.2190   14.1460   33.8460 C.3       1 A88301      0.0000 
     34 C32        -7.9030   15.5780   25.5260 C.3       1 A88301      0.0000 
     35 C33        -8.3250   16.1260   24.1900 C.ar      1 A88301      0.0000 
     36 C34        -9.6010   15.8450   23.6790 C.ar      1 A88301      0.0000 
     37 C35        -9.9640   16.3570   22.4350 C.ar      1 A88301      0.0000 
     38 C36        -9.0500   17.1410   21.7250 C.ar      1 A88301      0.0000 
     39 C37        -7.7900   17.4080   22.2460 C.ar      1 A88301      0.0000 
     40 C38        -7.4230   16.8970   23.4700 C.ar      1 A88301      0.0000 
     41 O39        -9.6420   17.4790   20.5660 O.3       1 A88301      0.0000 
     42 O40        -6.9770   18.2840   21.5320 O.3       1 A88301      0.0000 
     43 C41        -6.2750   19.3230   22.2660 C.3       1 A88301      0.0000 
     44 H          -8.1053   17.8655   25.9210 H         1 A88301      0.0000 
     45 H         -11.2997   16.4367   29.7021 H         1 A88301      0.0000 
     46 H          -9.7372   18.2552   29.0710 H         1 A88301      0.0000 
     47 H         -10.5740   17.7819   26.1936 H         1 A88301      0.0000 
     48 H          -9.7867   19.2497   26.7982 H         1 A88301      0.0000 
     49 H          -7.5555   17.3545   28.8226 H         1 A88301      0.0000 
     50 H          -7.8621   19.0071   28.2615 H         1 A88301      0.0000 
     51 H          -6.6903   19.7296   26.1078 H         1 A88301      0.0000 
     52 H          -4.5973   19.6716   24.8726 H         1 A88301      0.0000 
     53 H          -2.9730   17.9404   25.3560 H         1 A88301      0.0000 
     54 H          -3.4390   16.2567   27.0209 H         1 A88301      0.0000 
     55 H          -5.5285   16.3082   28.2510 H         1 A88301      0.0000 
     56 H         -11.3405   15.4003   26.8564 H         1 A88301      0.0000 
     57 H         -12.6001   16.4610   27.5110 H         1 A88301      0.0000 
     58 H         -13.7942   15.6314   29.6894 H         1 A88301      0.0000 
     59 H         -14.8601   13.6989   30.6966 H         1 A88301      0.0000 
     60 H         -14.1888   11.4662   30.0353 H         1 A88301      0.0000 
     61 H         -12.4641   11.1642   28.3654 H         1 A88301      0.0000 
     62 H         -11.4017   13.0890   27.3515 H         1 A88301      0.0000 
     63 H          -8.4432   14.3034   30.0061 H         1 A88301      0.0000 
     64 H         -10.1226   13.7407   29.9519 H         1 A88301      0.0000 
     65 H         -11.5496   14.2706   31.7551 H         1 A88301      0.0000 
     66 H          -8.3980   17.5096   33.5155 H         1 A88301      0.0000 
     67 H          -8.0315   16.5148   31.3340 H         1 A88301      0.0000 
     68 H          -7.9530   14.4501   25.4887 H         1 A88301      0.0000 
     69 H          -6.8023   15.7850   25.6728 H         1 A88301      0.0000 
     70 H         -10.2527   15.2717   24.2156 H         1 A88301      0.0000 
     71 H         -10.8877   16.1627   22.0442 H         1 A88301      0.0000 
     72 H          -6.4869   17.0824   23.8536 H         1 A88301      0.0000 
     73 H         -12.7684   13.2897   34.0983 H         1 A88301      0.0000 
     74 H         -14.0320   14.2302   34.4221 H         1 A88301      0.0000 
     75 H         -13.5370   14.0432   32.9035 H         1 A88301      0.0000 
     76 H          -5.6569   18.9398   22.9524 H         1 A88301      0.0000 
     77 H          -5.7222   19.8962   21.6611 H         1 A88301      0.0000 
     78 H          -6.9076   19.9297   22.7474 H         1 A88301      0.0000 
     79 H         -12.0932   18.8582   27.7440 H         1 A88301      0.0000 
     80 H          -9.8808   16.4514   35.7129 H         1 A88301      0.0000 
     81 H          -9.5884   16.6572   19.9988 H         1 A88301      0.0000 
@<TRIPOS>BOND
     1    2    1 1    
     2    9    1 1    
     3   10    1 1    
     4   44    1 1    
     5    3    2 am   
     6   34    2 1    
     7    4    3 2    
     8    5    3 am   
     9    6    5 1    
    10   24    5 1    
    11    7    6 1    
    12   17    6 1    
    13   45    6 1    
    14    8    7 1    
    15    9    7 1    
    16   46    7 1    
    17   79    8 1    
    18   47    9 1    
    19   48    9 1    
    20   11   10 1    
    21   49   10 1    
    22   50   10 1    
    23   12   11 ar   
    24   16   11 ar   
    25   13   12 ar   
    26   51   12 1    
    27   14   13 ar   
    28   52   13 1    
    29   15   14 ar   
    30   53   14 1    
    31   16   15 ar   
    32   54   15 1    
    33   55   16 1    
    34   18   17 1    
    35   56   17 1    
    36   57   17 1    
    37   19   18 ar   
    38   23   18 ar   
    39   20   19 ar   
    40   58   19 1    
    41   21   20 ar   
    42   59   20 1    
    43   22   21 ar   
    44   60   21 1    
    45   23   22 ar   
    46   61   22 1    
    47   62   23 1    
    48   25   24 1    
    49   63   24 1    
    50   64   24 1    
    51   26   25 ar   
    52   30   25 ar   
    53   27   26 ar   
    54   65   26 1    
    55   28   27 ar   
    56   32   27 1    
    57   29   28 ar   
    58   31   28 1    
    59   30   29 ar   
    60   66   29 1    
    61   67   30 1    
    62   80   31 1    
    63   33   32 1    
    64   73   33 1    
    65   74   33 1    
    66   75   33 1    
    67   35   34 1    
    68   68   34 1    
    69   69   34 1    
    70   36   35 ar   
    71   40   35 ar   
    72   37   36 ar   
    73   70   36 1    
    74   38   37 ar   
    75   71   37 1    
    76   39   38 ar   
    77   41   38 1    
    78   40   39 ar   
    79   42   39 1    
    80   72   40 1    
    81   81   41 1    
    82   43   42 1    
    83   76   43 1    
    84   77   43 1    
    85   78   43 1    
@<TRIPOS>SUBSTRUCTURE
     1 A88301      1 GROUP   
@<TRIPOS>SET

