#    Name: 3k5d_XLI_2_INTS_M
#    Modification time : Mon Mar 24 18:23:03 2014

@<TRIPOS>MOLECULE
3k5d_XLI_2_INTS_M
  106     0     9     0     0
SMALL
NO_CHARGES


@<TRIPOS>ATOM
      1 CA         23.5030  -34.0220    1.5765 C.3       3 GLC5        0.0000 
      2 CA         24.3320  -33.8200   -0.0090 C.3       9 GLL5        0.0000 
      3 CA         22.6740  -34.2240    3.1620 C.3       6 GLP5        0.0000 
      4 O          23.8070  -35.6930    1.4510 O.2       1 ALC1        0.0000 
      5 O          23.9310  -36.2020    0.0630 O.2       7 ALL1        0.0000 
      6 O          23.6830  -35.1840    2.8390 O.2       4 ALP1        0.0000 
      7 N          21.2205  -36.5965    2.0885 N.am      2 SEC2        0.0000 
      8 N          21.4900  -37.2160    0.7870 N.am      8 SEL2        0.0000 
      9 N          20.9510  -35.9770    3.3900 N.am      5 SEP2        0.0000 
     10 CA         26.3600  -39.1010   -0.5560 C.3       3 GLC5        0.0000 
     11 CA         24.3300  -38.7160   -0.1940 C.3       9 GLL5        0.0000 
     12 CA         28.3900  -39.4860   -0.9180 C.3       6 GLP5        0.0000 
     13 CA         26.8135  -37.8965    2.5530 C.3       3 GLC5        0.0000 
     14 CA         25.0230  -38.1300    2.2030 C.3       9 GLL5        0.0000 
     15 CA         28.6040  -37.6630    2.9030 C.3       6 GLP5        0.0000 
     16 CA         25.8870  -38.9315    3.8390 C.3       3 GLC5        0.0000 
     17 CA         26.7510  -39.7330    5.4750 C.3       6 GLP5        0.0000 
     18 CA         26.0075  -40.1070    3.4270 C.3       3 GLC5        0.0000 
     19 CA         25.2640  -40.4810    1.3790 C.3       9 GLL5        0.0000 
     20 CA         25.7725  -41.8085    2.6140 C.3       3 GLC5        0.0000 
     21 CA         26.2810  -43.1360    3.8490 C.3       6 GLP5        0.0000 
     22 CA         26.8270  -39.9835    0.2305 C.3       3 GLC5        0.0000 
     23 CA         26.5670  -41.8740    0.8860 C.3       3 GLC5        0.0000 
     24 CA         27.8700  -43.2670    0.3930 C.3       6 GLP5        0.0000 
     25 CA         19.7290  -38.2540    1.0845 C.3       3 GLC5        0.0000 
     26 CA         19.8150  -38.4890   -1.1130 C.3       9 GLL5        0.0000 
     27 CA         19.6430  -38.0190    3.2820 C.3       6 GLP5        0.0000 
     28 N          18.8325  -40.3860   -3.7890 N.am      2 SEC2        0.0000 
     29 N          19.0360  -40.4190   -2.2800 N.am      8 SEL2        0.0000 
     30 N          18.6290  -40.3530   -5.2980 N.am      5 SEP2        0.0000 
     31 CA         19.7185  -38.2025   -3.8835 C.3       3 GLC5        0.0000 
     32 CA         18.9840  -37.6660   -2.1460 C.3       9 GLL5        0.0000 
     33 CA         20.4530  -38.7390   -5.6210 C.3       6 GLP5        0.0000 
     34 CA         17.1430  -36.6885   -3.6950 C.3       3 GLC5        0.0000 
     35 CA         18.3810  -35.2170   -3.2450 C.3       9 GLL5        0.0000 
     36 CA         15.9050  -38.1600   -4.1450 C.3       6 GLP5        0.0000 
     37 CA         20.1880  -36.8370   -4.8950 C.3       3 GLC5        0.0000 
     38 CA         19.9230  -34.9350   -4.1690 C.3       9 GLL5        0.0000 
     39 O          20.6710  -40.4080    1.1940 O.2       1 ALC1        0.0000 
     40 O          19.9190  -40.7810   -0.2180 O.2       7 ALL1        0.0000 
     41 O          21.4230  -40.0350    2.6060 O.2       4 ALP1        0.0000 
     42 CA         19.1900  -43.1170   -1.9605 C.3       3 GLC5        0.0000 
     43 CA         19.7330  -42.2370   -0.2270 C.3       9 GLL5        0.0000 
     44 CA         18.6470  -43.9970   -3.6940 C.3       6 GLP5        0.0000 
     45 CA         18.5665  -44.2395   -0.6675 C.3       3 GLC5        0.0000 
     46 CA         18.4860  -42.6500    0.6200 C.3       9 GLL5        0.0000 
     47 CA         18.6470  -45.8290   -1.9550 C.3       6 GLP5        0.0000 
     48 N          18.1180  -42.4840    3.4335 N.am      2 SEC2        0.0000 
     49 N          18.7640  -42.5700    2.0240 N.am      8 SEL2        0.0000 
     50 N          17.4720  -42.3980    4.8430 N.am      5 SEP2        0.0000 
     51 O          17.9295  -41.7175    2.6650 O.2       1 ALC1        0.0000 
     52 O          18.7640  -42.5700    2.0240 O.2       7 ALL1        0.0000 
     53 O          17.0950  -40.8650    3.3060 O.2       4 ALP1        0.0000 
     54 CA         19.8475  -44.3920   -0.8795 C.3       3 GLC5        0.0000 
     55 CA         21.0480  -42.9550    0.1960 C.3       9 GLL5        0.0000 
     56 CA         21.6375  -45.0200    0.7615 C.3       3 GLC5        0.0000 
     57 CA         22.2270  -47.0850    1.3270 C.3       6 GLP5        0.0000 
     58 CA         23.8930  -43.9890    1.8190 C.3       3 GLC5        0.0000 
     59 CA         23.5290  -43.3760   -0.0500 C.3       9 GLL5        0.0000 
     60 CA         24.2570  -44.6020    3.6880 C.3       6 GLP5        0.0000 
     61 CA         23.7945  -44.9185   -1.2630 C.3       3 GLC5        0.0000 
     62 CA         24.0600  -46.4610   -2.4760 C.3       6 GLP5        0.0000 
     63 CA         25.5340  -43.8690   -0.2035 C.3       3 GLC5        0.0000 
     64 CA         27.5390  -44.3620   -0.3570 C.3       6 GLP5        0.0000 
     65 CA         22.8780  -45.2305    0.6385 C.3       3 GLC5        0.0000 
     66 CA         21.1910  -44.5380   -2.9440 C.3       3 GLC5        0.0000 
     67 CA         22.1440  -43.1300   -2.1570 C.3       9 GLL5        0.0000 
     68 CA         20.2380  -45.9460   -3.7310 C.3       6 GLP5        0.0000 
     69 CA         23.2360  -44.4715   -2.9155 C.3       3 GLC5        0.0000 
     70 CA         24.3280  -45.8130   -3.6740 C.3       6 GLP5        0.0000 
     71 CA         15.6850  -43.8140    2.5315 C.3       3 GLC5        0.0000 
     72 CA         15.8520  -42.9020    0.5130 C.3       9 GLL5        0.0000 
     73 CA         15.5180  -44.7260    4.5500 C.3       6 GLP5        0.0000 
     74 CA         13.1265  -43.4325    1.2715 C.3       3 GLC5        0.0000 
     75 CA         14.5900  -42.0130    0.7090 C.3       9 GLL5        0.0000 
     76 CA         11.6630  -44.8520    1.8340 C.3       6 GLP5        0.0000 
     77 CA         13.3505  -41.6705    2.1570 C.3       3 GLC5        0.0000 
     78 CA         12.1110  -41.3280    3.6050 C.3       6 GLP5        0.0000 
     79 N          16.2350  -42.7030   -3.0325 N.am      2 SEC2        0.0000 
     80 N          15.8970  -43.5280   -1.7800 N.am      8 SEL2        0.0000 
     81 N          16.5730  -41.8780   -4.2850 N.am      5 SEP2        0.0000 
     82 CA         16.6155  -45.9225   -1.6435 C.3       3 GLC5        0.0000 
     83 CA         14.5840  -46.0160   -1.3320 C.3       9 GLL5        0.0000 
     84 O          14.8765  -45.3045    1.0500 O.2       1 ALC1        0.0000 
     85 O          14.9350  -45.0140   -0.3290 O.2       7 ALL1        0.0000 
     86 O          14.8180  -45.5950    2.4290 O.2       4 ALP1        0.0000 
     87 CA         15.7620  -47.6715    0.5290 C.3       3 GLC5        0.0000 
     88 CA         14.2240  -47.3730   -0.6830 C.3       9 GLL5        0.0000 
     89 CA         17.3000  -47.9700    1.7410 C.3       6 GLP5        0.0000 
     90 CA         13.2120  -47.9875    0.9935 C.3       3 GLC5        0.0000 
     91 CA         12.2000  -48.6020    2.6700 C.3       6 GLP5        0.0000 
     92 CA         12.1205  -49.1960   -0.2335 C.3       3 GLC5        0.0000 
     93 CA         13.5340  -48.3280   -1.6900 C.3       9 GLL5        0.0000 
     94 CA         10.7070  -50.0640    1.2230 C.3       6 GLP5        0.0000 
     95 CA         16.2185  -49.2865   -3.2220 C.3       3 GLC5        0.0000 
     96 CA         14.5280  -48.8960   -2.7410 C.3       9 GLL5        0.0000 
     97 CA         17.9090  -49.6770   -3.7030 C.3       6 GLP5        0.0000 
     98 CA         15.0905  -48.9560   -4.8210 C.3       3 GLC5        0.0000 
     99 CA         15.6530  -49.0160   -6.9010 C.3       6 GLP5        0.0000 
    100 CA         14.4425  -50.8920   -3.4765 C.3       3 GLC5        0.0000 
    101 CA         14.3570  -52.8880   -4.2120 C.3       6 GLP5        0.0000 
    102 CA         17.4555  -37.5330   -3.0648 C.3       3 GLC5        0.0000 
    103 CA         17.1857  -35.2227   -1.2155 C.3       3 GLC5        0.0000 
    104 CA         19.0280  -36.1460   -1.8230 C.3       9 GLL5        0.0000 
    105 CA         15.6670  -34.7640    0.1030 C.3       6 GLP5        0.0000 
    106 CA         13.0335  -45.7732    0.4133 C.3       3 GLC5        0.0000 
@<TRIPOS>BOND
@<TRIPOS>SUBSTRUCTURE
     1 ALC1        4 GROUP        1 X    ALC  0     ROOT ALC X 1
     2 SEC2        7 GROUP        1 X    SEC  0     **** SEC X 2
     3 GLC5        1 GROUP        1 X    GLC  0     **** GLC X 6
     4 ALP1        6 GROUP        1 Y    ALP  0     ROOT ALP Y 8
     5 SEP2        9 GROUP        1 Y    SEP  0     **** SEP Y 9
     6 GLP5        3 GROUP        1 Y    GLP  0     **** GLP Y 13
     7 ALL1        5 GROUP        1 Z    ALL  0     ROOT ALL Z 15
     8 SEL2        8 GROUP        1 Z    SEL  0     **** SEL Z 16
     9 GLL5        2 GROUP        1 Z    GLL  0     **** GLL Z 20
@<TRIPOS>SET

