#    Name: 3k5d_XLI_2_ligand
#    Modification time : Mon Mar 24 18:23:03 2014

@<TRIPOS>MOLECULE
3k5d_XLI_2_ligand
   89    88     1     0     0
SMALL
NO_CHARGES


@<TRIPOS>ATOM
      1 C          23.7890  -35.0550   -0.6340 C.2       1 XLI393      0.0000 
      2 O          23.2370  -34.9720   -1.7550 O.2       1 XLI393      0.0000 
      3 CH3        24.3320  -33.8200   -0.0090 C.3       1 XLI393      0.0000 
      4 N          23.9310  -36.2020    0.0630 N.am      1 XLI393      0.0000 
      5 CA         23.4520  -37.4540   -0.5030 C.3       1 XLI393      0.0000 
      6 C1         21.9630  -37.6390   -0.2590 C.2       1 XLI393      0.0000 
      7 O1         21.4900  -37.2160    0.7870 O.2       1 XLI393      0.0000 
      8 CB         24.3300  -38.7160   -0.1940 C.3       1 XLI393      0.0000 
      9 CG         24.4070  -39.2090    1.2810 C.3       1 XLI393      0.0000 
     10 CD1        25.0230  -38.1300    2.2030 C.3       1 XLI393      0.0000 
     11 CD2        25.2640  -40.4810    1.3790 C.3       1 XLI393      0.0000 
     12 N1         21.2420  -38.2630   -1.2250 N.am      1 XLI393      0.0000 
     13 CA1        19.8150  -38.4890   -1.1130 C.3       1 XLI393      0.0000 
     14 C2         19.5570  -39.9770   -1.2570 C.2       1 XLI393      0.0000 
     15 O2         19.0360  -40.4190   -2.2800 O.2       1 XLI393      0.0000 
     16 CB1        18.9840  -37.6660   -2.1460 C.3       1 XLI393      0.0000 
     17 CG1        19.0280  -36.1460   -1.8230 C.3       1 XLI393      0.0000 
     18 SD         18.3810  -35.2170   -3.2450 S.3       1 XLI393      0.0000 
     19 CE         19.9230  -34.9350   -4.1690 C.3       1 XLI393      0.0000 
     20 N2         19.9190  -40.7810   -0.2180 N.am      1 XLI393      0.0000 
     21 CA2        19.7330  -42.2370   -0.2270 C.3       1 XLI393      0.0000 
     22 C3         18.4860  -42.6500    0.6200 C.3       1 XLI393      0.0000 
     23 O3         18.7640  -42.5700    2.0240 O.3       1 XLI393      0.0000 
     24 CB2        21.0480  -42.9550    0.1960 C.3       1 XLI393      0.0000 
     25 CG2        22.3000  -42.6550   -0.6810 C.3       1 XLI393      0.0000 
     26 CD11       23.5290  -43.3760   -0.0500 C.3       1 XLI393      0.0000 
     27 CD21       22.1440  -43.1300   -2.1570 C.3       1 XLI393      0.0000 
     28 CM         17.1050  -42.0010    0.2830 C.3       1 XLI393      0.0000 
     29 CA3        15.8520  -42.9020    0.5130 C.3       1 XLI393      0.0000 
     30 CB3        14.5900  -42.0130    0.7090 C.3       1 XLI393      0.0000 
     31 C4         15.5640  -43.8460   -0.6400 C.2       1 XLI393      0.0000 
     32 O4         15.8970  -43.5280   -1.7800 O.2       1 XLI393      0.0000 
     33 C11        14.5840  -46.0160   -1.3320 C.3       1 XLI393      0.0000 
     34 N3         14.9350  -45.0140   -0.3290 N.am      1 XLI393      0.0000 
     35 C21        14.2240  -47.3730   -0.6830 C.3       1 XLI393      0.0000 
     36 C31        13.5340  -48.3280   -1.6900 C.3       1 XLI393      0.0000 
     37 C41        14.5280  -48.8960   -2.7410 C.3       1 XLI393      0.0000 
     38 H          24.3667  -36.2407    0.9883 H         1 XLI393      0.0000 
     39 H          23.5354  -37.3348   -1.6551 H         1 XLI393      0.0000 
     40 H          25.3646  -38.5101   -0.5500 H         1 XLI393      0.0000 
     41 H          23.9601  -39.5548   -0.8259 H         1 XLI393      0.0000 
     42 H          23.4171  -39.4319    1.6261 H         1 XLI393      0.0000 
     43 H          21.6983  -38.6081   -2.0981 H         1 XLI393      0.0000 
     44 H          19.4710  -38.1953   -0.1140 H         1 XLI393      0.0000 
     45 H          17.9545  -38.0051   -2.1176 H         1 XLI393      0.0000 
     46 H          19.3939  -37.8303   -3.1362 H         1 XLI393      0.0000 
     47 H          20.0073  -35.7710   -1.7257 H         1 XLI393      0.0000 
     48 H          18.3737  -35.8681   -1.0460 H         1 XLI393      0.0000 
     49 H          20.3525  -40.3843    0.6446 H         1 XLI393      0.0000 
     50 H          19.5232  -42.5547   -1.2704 H         1 XLI393      0.0000 
     51 H          18.3404  -43.7707    0.3893 H         1 XLI393      0.0000 
     52 H          20.8697  -44.0454    0.1898 H         1 XLI393      0.0000 
     53 H          21.2781  -42.6783    1.2406 H         1 XLI393      0.0000 
     54 H          22.4942  -41.6025   -0.6680 H         1 XLI393      0.0000 
     55 H          17.1182  -41.6828   -0.7743 H         1 XLI393      0.0000 
     56 H          16.9934  -41.0846    0.8890 H         1 XLI393      0.0000 
     57 H          15.9895  -43.4684    1.4171 H         1 XLI393      0.0000 
     58 H          15.4179  -46.1896   -2.0255 H         1 XLI393      0.0000 
     59 H          13.7199  -45.6925   -1.9279 H         1 XLI393      0.0000 
     60 H          14.6760  -45.2401    0.6552 H         1 XLI393      0.0000 
     61 H          13.5525  -47.1990    0.1558 H         1 XLI393      0.0000 
     62 H          15.1340  -47.8442   -0.3159 H         1 XLI393      0.0000 
     63 H          12.7443  -47.7856   -2.2096 H         1 XLI393      0.0000 
     64 H          13.0876  -49.1583   -1.1430 H         1 XLI393      0.0000 
     65 H          24.7477  -34.0062    0.8812 H         1 XLI393      0.0000 
     66 H          25.0357  -33.3944   -0.5779 H         1 XLI393      0.0000 
     67 H          23.6194  -33.1340    0.1380 H         1 XLI393      0.0000 
     68 H          25.9523  -37.8888    1.9231 H         1 XLI393      0.0000 
     69 H          24.4867  -37.2860    2.1968 H         1 XLI393      0.0000 
     70 H          25.0736  -38.4381    3.1530 H         1 XLI393      0.0000 
     71 H          26.2000  -40.3233    1.0644 H         1 XLI393      0.0000 
     72 H          25.3234  -40.8173    2.3189 H         1 XLI393      0.0000 
     73 H          24.8898  -41.2245    0.8248 H         1 XLI393      0.0000 
     74 H          20.5161  -34.2742   -3.7090 H         1 XLI393      0.0000 
     75 H          20.4509  -35.7775   -4.2765 H         1 XLI393      0.0000 
     76 H          19.7462  -34.5807   -5.0873 H         1 XLI393      0.0000 
     77 H          24.3636  -43.2177   -0.5776 H         1 XLI393      0.0000 
     78 H          23.7069  -43.0599    0.8819 H         1 XLI393      0.0000 
     79 H          23.3951  -44.3659   -0.0032 H         1 XLI393      0.0000 
     80 H          22.9574  -42.9246   -2.7012 H         1 XLI393      0.0000 
     81 H          21.9937  -44.1169   -2.2156 H         1 XLI393      0.0000 
     82 H          21.3694  -42.6881   -2.6095 H         1 XLI393      0.0000 
     83 H          14.6822  -41.4061    1.4984 H         1 XLI393      0.0000 
     84 H          14.4164  -41.4337   -0.0874 H         1 XLI393      0.0000 
     85 H          13.7677  -42.5627    0.8564 H         1 XLI393      0.0000 
     86 H          14.9559  -48.1692   -3.2783 H         1 XLI393      0.0000 
     87 H          15.2661  -49.4160   -2.3111 H         1 XLI393      0.0000 
     88 H          14.0746  -49.5100   -3.3871 H         1 XLI393      0.0000 
     89 H          18.5028  -41.6412    2.2869 H         1 XLI393      0.0000 
@<TRIPOS>BOND
     1    2    1 2    
     2    3    1 1    
     3    4    1 am   
     4   65    3 1    
     5   66    3 1    
     6   67    3 1    
     7    5    4 1    
     8   38    4 1    
     9    6    5 1    
    10    8    5 1    
    11   39    5 1    
    12    7    6 2    
    13   12    6 am   
    14    9    8 1    
    15   40    8 1    
    16   41    8 1    
    17   10    9 1    
    18   11    9 1    
    19   42    9 1    
    20   68   10 1    
    21   69   10 1    
    22   70   10 1    
    23   71   11 1    
    24   72   11 1    
    25   73   11 1    
    26   13   12 1    
    27   43   12 1    
    28   14   13 1    
    29   16   13 1    
    30   44   13 1    
    31   15   14 2    
    32   20   14 am   
    33   17   16 1    
    34   45   16 1    
    35   46   16 1    
    36   18   17 1    
    37   47   17 1    
    38   48   17 1    
    39   19   18 1    
    40   74   19 1    
    41   75   19 1    
    42   76   19 1    
    43   21   20 1    
    44   49   20 1    
    45   22   21 1    
    46   24   21 1    
    47   50   21 1    
    48   23   22 1    
    49   28   22 1    
    50   51   22 1    
    51   89   23 1    
    52   25   24 1    
    53   52   24 1    
    54   53   24 1    
    55   26   25 1    
    56   27   25 1    
    57   54   25 1    
    58   77   26 1    
    59   78   26 1    
    60   79   26 1    
    61   80   27 1    
    62   81   27 1    
    63   82   27 1    
    64   29   28 1    
    65   55   28 1    
    66   56   28 1    
    67   30   29 1    
    68   31   29 1    
    69   57   29 1    
    70   83   30 1    
    71   84   30 1    
    72   85   30 1    
    73   32   31 2    
    74   34   31 am   
    75   34   33 1    
    76   35   33 1    
    77   58   33 1    
    78   59   33 1    
    79   60   34 1    
    80   36   35 1    
    81   61   35 1    
    82   62   35 1    
    83   37   36 1    
    84   63   36 1    
    85   64   36 1    
    86   86   37 1    
    87   87   37 1    
    88   88   37 1    
@<TRIPOS>SUBSTRUCTURE
     1 XLI393      1 GROUP   
@<TRIPOS>SET

