#    Name: 2e89_ATP_3_INTS_M
#    Modification time : Tue Mar 25 10:40:50 2014

@<TRIPOS>MOLECULE
2e89_ATP_3_INTS_M
   63     0    12     0     0
SMALL
NO_CHARGES


@<TRIPOS>ATOM
      1 N           0.2320   -7.9115   16.0555 N.am      2 SEC2        0.0000 
      2 N          -0.2780   -6.5940   16.5730 N.am     10 SEL2        0.0000 
      3 N           0.7420   -9.2290   15.5380 N.am      6 SEP2        0.0000 
      4 N          -0.4345   -4.9075   16.2150 N.am      2 SEC2        0.0000 
      5 N          -0.5910   -3.2210   15.8570 N.am      6 SEP2        0.0000 
      6 N          -1.0535   -3.8820   16.8365 N.am      2 SEC2        0.0000 
      7 N          -1.5160   -4.5430   17.8160 N.am     10 SEL2        0.0000 
      8 NZ         -1.5645   -9.8965   16.9280 N.4       3 LYC4        0.0000 
      9 NZ         -2.3020   -8.9310   17.9100 N.4      11 LYL4        0.0000 
     10 NZ          0.3700  -10.5030   15.5000 N.4       7 LYP4        0.0000 
     11 N          -1.5645   -9.8965   16.9280 N.am      2 SEC2        0.0000 
     12 N          -2.3020   -8.9310   17.9100 N.am     10 SEL2        0.0000 
     13 N          -0.8270  -10.8620   15.9460 N.am      6 SEP2        0.0000 
     14 N          -0.9195   -8.7555   15.6225 N.am      2 SEC2        0.0000 
     15 N          -2.5810   -8.2820   15.7070 N.am     10 SEL2        0.0000 
     16 N          -1.7040   -9.5720   15.8265 N.am      2 SEC2        0.0000 
     17 CA         -1.1220   -4.1385   14.5395 C.3       4 GLC5        0.0000 
     18 CA         -0.9980   -6.0510   13.8950 C.3      12 GLL5        0.0000 
     19 CA         -1.2460   -2.2260   15.1840 C.3       8 GLP5        0.0000 
     20 CA          1.7435   -4.5540   12.8735 C.3       4 GLC5        0.0000 
     21 CA          0.2130   -5.9820   12.9640 C.3      12 GLL5        0.0000 
     22 CA          3.2740   -3.1260   12.7830 C.3       8 GLP5        0.0000 
     23 N           0.4905   -3.7730   10.6190 N.am      2 SEC2        0.0000 
     24 N          -0.6780   -4.7880   11.0750 N.am     10 SEL2        0.0000 
     25 N           1.6590   -2.7580   10.1630 N.am      6 SEP2        0.0000 
     26 CA          2.1590   -4.7990   11.8140 C.3       4 GLC5        0.0000 
     27 CA          1.0440   -6.4720   10.8450 C.3      12 GLL5        0.0000 
     28 N           1.7840   -4.0490   10.4460 N.am      2 SEC2        0.0000 
     29 N           1.9090   -5.3400   10.7290 N.am     10 SEL2        0.0000 
     30 O           2.6475   -6.2760    9.8960 O.2       1 ALC1        0.0000 
     31 O           1.9090   -5.3400   10.7290 O.2       9 ALL1        0.0000 
     32 O           3.3860   -7.2120    9.0630 O.2       5 ALP1        0.0000 
     33 CA          1.0420  -11.4360    8.9745 C.3       4 GLC5        0.0000 
     34 CA          1.5840  -12.1590   10.5940 C.3      12 GLL5        0.0000 
     35 CA          0.5000  -10.7130    7.3550 C.3       8 GLP5        0.0000 
     36 CA          2.9130  -13.6440   11.3775 C.3       4 GLC5        0.0000 
     37 CA          4.2420  -15.1290   12.1610 C.3       8 GLP5        0.0000 
     38 O           1.3985  -14.5935   10.2835 O.2       1 ALC1        0.0000 
     39 O           0.8120  -13.2120   10.3470 O.2       9 ALL1        0.0000 
     40 O           1.9850  -15.9750   10.2200 O.2       5 ALP1        0.0000 
     41 N           3.6690  -13.4740   10.0830 N.am      2 SEC2        0.0000 
     42 N           2.9060  -12.2310   10.4050 N.am     10 SEL2        0.0000 
     43 N           4.4320  -14.7170    9.7610 N.am      6 SEP2        0.0000 
     44 CA          4.6325   -9.3835   10.2670 C.3       4 GLC5        0.0000 
     45 CA          3.6860  -11.1700   10.5840 C.3      12 GLL5        0.0000 
     46 CA          5.5790   -7.5970    9.9500 C.3       8 GLP5        0.0000 
     47 CA          3.7480  -10.0385    8.7105 C.3       4 GLC5        0.0000 
     48 CA          3.8100   -8.9070    6.8370 C.3       8 GLP5        0.0000 
     49 CA          4.5755  -12.3620    9.2450 C.3       4 GLC5        0.0000 
     50 CA          5.4650  -13.5540    7.9060 C.3       8 GLP5        0.0000 
     51 CA          3.9640  -13.1495   11.3725 C.3       4 GLC5        0.0000 
     52 CA          3.1170  -11.1425   12.5795 C.3       4 GLC5        0.0000 
     53 CA          2.5480  -11.1150   14.5750 C.3       8 GLP5        0.0000 
     54 CA          3.4400   -8.5220   11.2420 C.3       4 GLC5        0.0000 
     55 CA          1.8600   -9.8640   11.1630 C.3      12 GLL5        0.0000 
     56 CA          5.0200   -7.1800   11.3210 C.3       8 GLP5        0.0000 
     57 CA          0.1680   -4.6885    9.8317 C.3       4 GLC5        0.0000 
     58 CA         -0.0510   -3.0990    8.4820 C.3       8 GLP5        0.0000 
     59 CA          3.1735   -7.0770   11.3350 C.3       4 GLC5        0.0000 
     60 CA          0.4138  -10.3042    9.6675 C.3       4 GLC5        0.0000 
     61 CA         -0.6210  -10.2040    8.2570 C.3       8 GLP5        0.0000 
     62 CA          2.0666  -10.9115   12.7766 C.3       4 GLC5        0.0000 
     63 CA          1.0370  -10.9450   10.9930 C.3      12 GLL5        0.0000 
@<TRIPOS>BOND
@<TRIPOS>SUBSTRUCTURE
     1 ALC1       30 GROUP        1 X    ALC  0     ROOT ALC X 1
     2 SEC2        1 GROUP        1 X    SEC  0     **** SEC X 2
     3 LYC4        8 GROUP        1 X    LYC  0     **** LYC X 4
     4 GLC5       17 GROUP        1 X    GLC  0     **** GLC X 6
     5 ALP1       32 GROUP        1 Y    ALP  0     ROOT ALP Y 8
     6 SEP2        3 GROUP        1 Y    SEP  0     **** SEP Y 9
     7 LYP4       10 GROUP        1 Y    LYP  0     **** LYP Y 11
     8 GLP5       19 GROUP        1 Y    GLP  0     **** GLP Y 13
     9 ALL1       31 GROUP        1 Z    ALL  0     ROOT ALL Z 15
    10 SEL2        2 GROUP        1 Z    SEL  0     **** SEL Z 16
    11 LYL4        9 GROUP        1 Z    LYL  0     **** LYL Z 18
    12 GLL5       18 GROUP        1 Z    GLL  0     **** GLL Z 20
@<TRIPOS>SET

