#    Name: 2e89_ATP_3_ligand
#    Modification time : Tue Mar 25 10:40:50 2014

@<TRIPOS>MOLECULE
2e89_ATP_3_ligand
   43    45     1     0     0
SMALL
NO_CHARGES


@<TRIPOS>ATOM
      1 PG         -1.0620   -6.0850   17.7210 P.3       1 ATP902      0.0000 
      2 O1G        -0.2780   -6.5940   16.5730 O.co2     1 ATP902      0.0000 
      3 O2G        -1.5160   -4.5430   17.8160 O.co2     1 ATP902      0.0000 
      4 O3G        -1.3340   -6.9690   19.0380 O.co2     1 ATP902      0.0000 
      5 PB         -3.1200   -7.9410   17.1870 P.3       1 ATP902      0.0000 
      6 O1B        -2.3020   -8.9310   17.9100 O.co2     1 ATP902      0.0000 
      7 O2B        -4.5680   -8.0950   16.8910 O.co2     1 ATP902      0.0000 
      8 O3B        -2.5140   -6.4490   17.1240 O.3       1 ATP902      0.0000 
      9 PA         -3.1370   -7.5550   14.3780 P.3       1 ATP902      0.0000 
     10 O1A        -3.8910   -8.5740   13.6130 O.co2     1 ATP902      0.0000 
     11 O2A        -3.8220   -6.2920   14.7330 O.co2     1 ATP902      0.0000 
     12 O3A        -2.5810   -8.2820   15.7070 O.3       1 ATP902      0.0000 
     13 O5'        -1.7740   -7.2140   13.5870 O.3       1 ATP902      0.0000 
     14 C5'        -0.9980   -6.0510   13.8950 C.3       1 ATP902      0.0000 
     15 C4'         0.2130   -5.9820   12.9640 C.3       1 ATP902      0.0000 
     16 O4'         1.0670   -7.1240   13.1400 O.3       1 ATP902      0.0000 
     17 C3'        -0.2700   -6.0840   11.5180 C.3       1 ATP902      0.0000 
     18 O3'        -0.6780   -4.7880   11.0750 O.3       1 ATP902      0.0000 
     19 C2'         1.0440   -6.4720   10.8450 C.3       1 ATP902      0.0000 
     20 O2'         1.9090   -5.3400   10.7290 O.3       1 ATP902      0.0000 
     21 C1'         1.6100   -7.4760   11.8530 C.3       1 ATP902      0.0000 
     22 N9          1.1260   -8.8380   11.5400 N.pl3     1 ATP902      0.0000 
     23 C8         -0.1450   -9.2580   11.6130 C.2       1 ATP902      0.0000 
     24 N7         -0.2050  -10.5390   11.2840 N.2       1 ATP902      0.0000 
     25 C5          1.0370  -10.9450   10.9930 C.ar      1 ATP902      0.0000 
     26 C6          1.5840  -12.1590   10.5940 C.ar      1 ATP902      0.0000 
     27 N6          0.8120  -13.2120   10.3470 N.pl3     1 ATP902      0.0000 
     28 N1          2.9060  -12.2310   10.4050 N.ar      1 ATP902      0.0000 
     29 C2          3.6860  -11.1700   10.5840 C.ar      1 ATP902      0.0000 
     30 N3          3.2000  -10.0140   10.9460 N.ar      1 ATP902      0.0000 
     31 C4          1.8600   -9.8640   11.1630 C.ar      1 ATP902      0.0000 
     32 H          -0.6275   -6.0720   14.9250 H         1 ATP902      0.0000 
     33 H          -1.5760   -5.1309   13.7611 H         1 ATP902      0.0000 
     34 H           0.7238   -5.0737   13.0880 H         1 ATP902      0.0000 
     35 H          -0.9477   -6.8378   11.4302 H         1 ATP902      0.0000 
     36 H           0.8369   -6.9697    9.9543 H         1 ATP902      0.0000 
     37 H           2.6574   -7.4299   11.8460 H         1 ATP902      0.0000 
     38 H          -0.9044   -8.6969   11.8707 H         1 ATP902      0.0000 
     39 H           1.2854  -14.0528   10.0845 H         1 ATP902      0.0000 
     40 H          -0.1727  -13.0685   10.4459 H         1 ATP902      0.0000 
     41 H           4.7331  -11.2764   10.4254 H         1 ATP902      0.0000 
     42 H           0.0784   -4.4577   10.5104 H         1 ATP902      0.0000 
     43 H           2.6390   -5.6344   10.1122 H         1 ATP902      0.0000 
@<TRIPOS>BOND
     1    2    1 ar   
     2    3    1 ar   
     3    4    1 ar   
     4    8    1 1    
     5    6    5 ar   
     6    7    5 ar   
     7    8    5 1    
     8   12    5 1    
     9   10    9 ar   
    10   11    9 ar   
    11   12    9 1    
    12   13    9 1    
    13   14   13 1    
    14   15   14 1    
    15   32   14 1    
    16   33   14 1    
    17   16   15 1    
    18   17   15 1    
    19   34   15 1    
    20   21   16 1    
    21   18   17 1    
    22   19   17 1    
    23   35   17 1    
    24   42   18 1    
    25   20   19 1    
    26   21   19 1    
    27   36   19 1    
    28   43   20 1    
    29   22   21 1    
    30   37   21 1    
    31   23   22 1    
    32   31   22 1    
    33   24   23 2    
    34   38   23 1    
    35   25   24 1    
    36   26   25 ar   
    37   31   25 ar   
    38   27   26 1    
    39   28   26 ar   
    40   39   27 1    
    41   40   27 1    
    42   29   28 ar   
    43   30   29 ar   
    44   41   29 1    
    45   31   30 ar   
@<TRIPOS>SUBSTRUCTURE
     1 ATP902      1 GROUP   
@<TRIPOS>SET

