#    Name: 2hvd_ADP_3_INTS_M
#    Modification time : Tue Mar 25 17:06:20 2014

@<TRIPOS>MOLECULE
2hvd_ADP_3_INTS_M
   56     0    12     0     0
SMALL
NO_CHARGES


@<TRIPOS>ATOM
      1 NZ         15.1725   90.0110   -3.9430 N.4       3 LYC4        0.0000 
      2 NZ         15.8780   90.9760   -5.1250 N.4      11 LYL4        0.0000 
      3 NZ         15.5920   88.3870   -2.5520 N.4       7 LYP4        0.0000 
      4 N          16.2860   89.8700   -4.1570 N.am      2 SEC2        0.0000 
      5 N          15.8780   90.9760   -5.1250 N.am     10 SEL2        0.0000 
      6 N          16.6940   88.7640   -3.1890 N.am      6 SEP2        0.0000 
      7 N          15.1725   90.0110   -3.9430 N.am      2 SEC2        0.0000 
      8 N          14.4670   89.0460   -2.7610 N.am      6 SEP2        0.0000 
      9 NZ         14.3895   90.5090   -3.0670 N.4       3 LYC4        0.0000 
     10 NZ         14.3120   91.9720   -3.3730 N.4      11 LYL4        0.0000 
     11 N          14.3895   90.5090   -3.0670 N.am      2 SEC2        0.0000 
     12 N          14.3120   91.9720   -3.3730 N.am     10 SEL2        0.0000 
     13 N          13.0910   91.8600   -3.5540 N.am      2 SEC2        0.0000 
     14 N          11.8700   91.7480   -3.7350 N.am      6 SEP2        0.0000 
     15 N          12.9945   92.1955   -4.7080 N.am      2 SEC2        0.0000 
     16 N          14.1190   92.6430   -5.6810 N.am     10 SEL2        0.0000 
     17 CA         16.1975   94.1810   -8.9800 C.3       4 GLC5        0.0000 
     18 CA         15.9530   94.7620   -7.2880 C.3      12 GLL5        0.0000 
     19 CA         16.4420   93.6000  -10.6720 C.3       8 GLP5        0.0000 
     20 CA         16.7015   97.8940   -7.1820 C.3       4 GLC5        0.0000 
     21 CA         15.7850   96.1160   -6.6250 C.3      12 GLL5        0.0000 
     22 CA         17.6180   99.6720   -7.7390 C.3       8 GLP5        0.0000 
     23 N          14.9415   96.2955   -2.9500 N.am      2 SEC2        0.0000 
     24 N          15.8590   96.0090   -4.1740 N.am     10 SEL2        0.0000 
     25 N          14.0240   96.5820   -1.7260 N.am      6 SEP2        0.0000 
     26 N          16.4845   96.7960   -3.4295 N.am      2 SEC2        0.0000 
     27 N          17.1100   97.5830   -2.6850 N.am      6 SEP2        0.0000 
     28 CA         12.1885   97.3890   -4.8630 C.3       4 GLC5        0.0000 
     29 CA         14.1360   97.2980   -5.3290 C.3      12 GLL5        0.0000 
     30 CA         10.2410   97.4800   -4.3970 C.3       8 GLP5        0.0000 
     31 N          15.8895   97.9530   -3.5810 N.am      2 SEC2        0.0000 
     32 N          14.6690   98.3230   -4.4770 N.am     10 SEL2        0.0000 
     33 O          13.5125   98.8415   -3.9445 O.2       1 ALC1        0.0000 
     34 O          14.6690   98.3230   -4.4770 O.2       9 ALL1        0.0000 
     35 O          12.3560   99.3600   -3.4120 O.2       5 ALP1        0.0000 
     36 CA         13.7905   97.5700   -8.6930 C.3       4 GLC5        0.0000 
     37 CA         14.1200   97.7730   -6.7800 C.3      12 GLL5        0.0000 
     38 CA         13.4610   97.3670  -10.6060 C.3       8 GLP5        0.0000 
     39 CA         15.8690   98.7225   -7.2595 C.3       4 GLC5        0.0000 
     40 CA          9.1735   99.2720   -6.7105 C.3       4 GLC5        0.0000 
     41 CA          9.6390   99.1150   -8.5170 C.3      12 GLL5        0.0000 
     42 CA          8.7080   99.4290   -4.9040 C.3       8 GLP5        0.0000 
     43 CA         11.5180  100.8220   -9.6285 C.3       4 GLC5        0.0000 
     44 CA         11.0570  100.8790   -7.8340 C.3      12 GLL5        0.0000 
     45 CA         11.9790  100.7650  -11.4230 C.3       8 GLP5        0.0000 
     46 CA          9.8825  100.1540   -6.3690 C.3       4 GLC5        0.0000 
     47 CA         11.6995  101.4420   -6.0345 C.3       4 GLC5        0.0000 
     48 CA         12.3420  102.0050   -4.2350 C.3       8 GLP5        0.0000 
     49 CA         17.6205   95.3795   -7.1528 C.3       4 GLC5        0.0000 
     50 CA         19.3720   95.3200   -7.3490 C.3       8 GLP5        0.0000 
     51 CA         13.2342   95.4013   -4.7255 C.3       4 GLC5        0.0000 
     52 CA         15.0010   96.0530   -5.3190 C.3      12 GLL5        0.0000 
     53 CA         11.9000   94.1270   -4.1270 C.3       8 GLP5        0.0000 
     54 CA         10.7837   97.9500   -6.1357 C.3       4 GLC5        0.0000 
     55 CA         10.7030   98.1410   -8.1440 C.3      12 GLL5        0.0000 
     56 CA         11.5197   99.7142   -9.6954 C.3       4 GLC5        0.0000 
@<TRIPOS>BOND
@<TRIPOS>SUBSTRUCTURE
     1 ALC1       33 GROUP        1 X    ALC  0     ROOT ALC X 1
     2 SEC2        4 GROUP        1 X    SEC  0     **** SEC X 2
     3 LYC4        1 GROUP        1 X    LYC  0     **** LYC X 4
     4 GLC5       17 GROUP        1 X    GLC  0     **** GLC X 6
     5 ALP1       35 GROUP        1 Y    ALP  0     ROOT ALP Y 8
     6 SEP2        6 GROUP        1 Y    SEP  0     **** SEP Y 9
     7 LYP4        3 GROUP        1 Y    LYP  0     **** LYP Y 11
     8 GLP5       19 GROUP        1 Y    GLP  0     **** GLP Y 13
     9 ALL1       34 GROUP        1 Z    ALL  0     ROOT ALL Z 15
    10 SEL2        5 GROUP        1 Z    SEL  0     **** SEL Z 16
    11 LYL4        2 GROUP        1 Z    LYL  0     **** LYL Z 18
    12 GLL5       18 GROUP        1 Z    GLL  0     **** GLL Z 20
@<TRIPOS>SET

