#    Name: 2hvd_ADP_3_ligand
#    Modification time : Tue Mar 25 17:06:20 2014

@<TRIPOS>MOLECULE
2hvd_ADP_3_ligand
   39    41     1     0     0
SMALL
NO_CHARGES


@<TRIPOS>ATOM
      1 PB         15.2060   92.2100   -4.5650 P.3       1 ADP160      0.0000 
      2 O1B        16.1080   93.4110   -4.3860 O.co2     1 ADP160      0.0000 
      3 O2B        15.8780   90.9760   -5.1250 O.co2     1 ADP160      0.0000 
      4 O3B        14.3120   91.9720   -3.3730 O.co2     1 ADP160      0.0000 
      5 PA         14.3260   92.6820   -7.2840 P.3       1 ADP160      0.0000 
      6 O1A        15.5200   91.8470   -7.7060 O.co2     1 ADP160      0.0000 
      7 O2A        12.9730   92.4050   -7.9050 O.co2     1 ADP160      0.0000 
      8 O3A        14.1190   92.6430   -5.6810 O.3       1 ADP160      0.0000 
      9 O5'        14.6590   94.2340   -7.5460 O.3       1 ADP160      0.0000 
     10 C5'        15.9530   94.7620   -7.2880 C.3       1 ADP160      0.0000 
     11 C4'        15.7850   96.1160   -6.6250 C.3       1 ADP160      0.0000 
     12 O4'        15.0530   96.9700   -7.5060 O.3       1 ADP160      0.0000 
     13 C3'        15.0010   96.0530   -5.3190 C.3       1 ADP160      0.0000 
     14 O3'        15.8590   96.0090   -4.1740 O.3       1 ADP160      0.0000 
     15 C2'        14.1360   97.2980   -5.3290 C.3       1 ADP160      0.0000 
     16 O2'        14.6690   98.3230   -4.4770 O.3       1 ADP160      0.0000 
     17 C1'        14.1200   97.7730   -6.7800 C.3       1 ADP160      0.0000 
     18 N9         12.7500   97.6600   -7.3480 N.pl3     1 ADP160      0.0000 
     19 C8         12.1080   96.5210   -7.6750 C.2       1 ADP160      0.0000 
     20 N7         10.8670   96.8000   -8.1570 N.2       1 ADP160      0.0000 
     21 C5         10.7030   98.1410   -8.1440 C.ar      1 ADP160      0.0000 
     22 C6          9.6390   99.1150   -8.5170 C.ar      1 ADP160      0.0000 
     23 N6          8.4530   98.7090   -9.0210 N.pl3     1 ADP160      0.0000 
     24 N1          9.8850  100.4350   -8.3330 N.ar      1 ADP160      0.0000 
     25 C2         11.0570  100.8790   -7.8340 C.ar      1 ADP160      0.0000 
     26 N3         12.0610  100.0480   -7.4820 N.ar      1 ADP160      0.0000 
     27 C4         11.9500   98.6990   -7.6050 C.ar      1 ADP160      0.0000 
     28 H          16.5265   94.9032   -8.2056 H         1 ADP160      0.0000 
     29 H          16.5272   94.1240   -6.6141 H         1 ADP160      0.0000 
     30 H          16.7558   96.5339   -6.4207 H         1 ADP160      0.0000 
     31 H          14.3447   95.1992   -5.3769 H         1 ADP160      0.0000 
     32 H          13.1376   97.0208   -5.0643 H         1 ADP160      0.0000 
     33 H          14.4280   98.8108   -6.7820 H         1 ADP160      0.0000 
     34 H          12.4750   95.6213   -7.5819 H         1 ADP160      0.0000 
     35 H           8.3242   97.7206   -9.1012 H         1 ADP160      0.0000 
     36 H           7.8093   99.4330   -9.2691 H         1 ADP160      0.0000 
     37 H          11.1958  101.9232   -7.7131 H         1 ADP160      0.0000 
     38 H          16.0912   95.0428   -4.0618 H         1 ADP160      0.0000 
     39 H          13.8716   98.7284   -4.0301 H         1 ADP160      0.0000 
@<TRIPOS>BOND
     1    2    1 ar   
     2    3    1 ar   
     3    4    1 ar   
     4    8    1 1    
     5    6    5 ar   
     6    7    5 ar   
     7    8    5 1    
     8    9    5 1    
     9   10    9 1    
    10   11   10 1    
    11   28   10 1    
    12   29   10 1    
    13   12   11 1    
    14   13   11 1    
    15   30   11 1    
    16   17   12 1    
    17   14   13 1    
    18   15   13 1    
    19   31   13 1    
    20   38   14 1    
    21   16   15 1    
    22   17   15 1    
    23   32   15 1    
    24   39   16 1    
    25   18   17 1    
    26   33   17 1    
    27   19   18 1    
    28   27   18 1    
    29   20   19 2    
    30   34   19 1    
    31   21   20 1    
    32   22   21 ar   
    33   27   21 ar   
    34   23   22 1    
    35   24   22 ar   
    36   35   23 1    
    37   36   23 1    
    38   25   24 ar   
    39   26   25 ar   
    40   37   25 1    
    41   27   26 ar   
@<TRIPOS>SUBSTRUCTURE
     1 ADP160      1 GROUP   
@<TRIPOS>SET

