#    Name: 3hrd_MCN_1_INTS_M
#    Modification time : Tue Mar 25 14:54:22 2014

@<TRIPOS>MOLECULE
3hrd_MCN_1_INTS_M
  122     0     9     0     0
SMALL
NO_CHARGES


@<TRIPOS>ATOM
      1 N          -2.2280   15.1055  -33.3850 N.am      2 SEC2        0.0000 
      2 N          -3.1680   14.0470  -32.7780 N.am      8 SEL2        0.0000 
      3 N          -1.2880   16.1640  -33.9920 N.am      5 SEP2        0.0000 
      4 CA         -3.6790   11.3285  -33.9420 C.3       3 GLC5        0.0000 
      5 CA         -3.9870   11.9280  -31.9480 C.3       9 GLL5        0.0000 
      6 CA         -3.3710   10.7290  -35.9360 C.3       6 GLP5        0.0000 
      7 CA         -4.0930    9.8675  -31.3215 C.3       3 GLC5        0.0000 
      8 CA         -4.1990    7.8070  -30.6950 C.3       6 GLP5        0.0000 
      9 CA         -4.6500   14.3100  -30.9750 C.3       3 GLC5        0.0000 
     10 CA         -5.2520   12.4330  -31.9660 C.3       9 GLL5        0.0000 
     11 CA         -4.0480   16.1870  -29.9840 C.3       6 GLP5        0.0000 
     12 N          -2.9295   15.9555  -33.5915 N.am      2 SEC2        0.0000 
     13 N          -4.5710   15.7470  -33.1910 N.am      8 SEL2        0.0000 
     14 N          -3.7525   17.0155  -33.6735 N.am      2 SEC2        0.0000 
     15 N          -2.9340   18.2840  -34.1560 N.am      5 SEP2        0.0000 
     16 O          -0.3280   12.9705  -32.4995 O.2       1 ALC1        0.0000 
     17 O          -1.6930   12.2790  -32.3360 O.2       7 ALL1        0.0000 
     18 O           1.0370   13.6620  -32.6630 O.2       4 ALP1        0.0000 
     19 O          -1.8775   10.8880  -31.7190 O.2       1 ALC1        0.0000 
     20 O          -2.0620    9.4970  -31.1020 O.2       4 ALP1        0.0000 
     21 CA         -7.5295   16.4265  -32.4225 C.3       3 GLC5        0.0000 
     22 CA         -6.9230   14.2960  -32.3760 C.3       9 GLL5        0.0000 
     23 CA         -8.1360   18.5570  -32.4690 C.3       6 GLP5        0.0000 
     24 CA         -5.4855   15.2415  -31.1800 C.3       3 GLC5        0.0000 
     25 CA         -6.4750   13.2035  -30.5285 C.3       3 GLC5        0.0000 
     26 CA         -6.0270   12.1110  -28.6810 C.3       6 GLP5        0.0000 
     27 CA         -6.8710   14.4425  -35.9375 C.3       3 GLC5        0.0000 
     28 CA         -7.4440   14.4300  -33.7910 C.3       9 GLL5        0.0000 
     29 CA         -6.2980   14.4550  -38.0840 C.3       6 GLP5        0.0000 
     30 CA         -7.5350   16.2740  -34.7610 C.3       3 GLC5        0.0000 
     31 CA         -7.6260   18.1180  -35.7310 C.3       6 GLP5        0.0000 
     32 O          -9.6395   15.4260  -33.6645 O.2       1 ALC1        0.0000 
     33 O          -8.2310   15.5600  -34.0270 O.2       7 ALL1        0.0000 
     34 O         -11.0480   15.2920  -33.3020 O.2       4 ALP1        0.0000 
     35 CA         -7.3800   11.7585  -30.3810 C.3       3 GLC5        0.0000 
     36 CA         -8.7330   11.4060  -32.0810 C.3       9 GLL5        0.0000 
     37 CA         -9.1410   10.4390  -30.2600 C.3       3 GLC5        0.0000 
     38 CA         -9.5490    9.4720  -28.4390 C.3       6 GLP5        0.0000 
     39 N          -6.7200   10.5820  -33.9625 N.am      2 SEC2        0.0000 
     40 N          -7.8030   10.6160  -32.8290 N.am      8 SEL2        0.0000 
     41 N          -5.6370   10.5480  -35.0960 N.am      5 SEP2        0.0000 
     42 N          -6.4215    8.4035  -35.1805 N.am      2 SEC2        0.0000 
     43 N          -6.7360    8.6260  -33.6990 N.am      8 SEL2        0.0000 
     44 N          -6.1070    8.1810  -36.6620 N.am      5 SEP2        0.0000 
     45 N          -6.1865    9.5870  -34.3975 N.am      2 SEC2        0.0000 
     46 N          -6.3230    8.9925  -30.1520 N.am      2 SEC2        0.0000 
     47 N          -7.1860    8.8370  -31.1710 N.am      8 SEL2        0.0000 
     48 N          -5.4600    9.1480  -29.1330 N.am      5 SEP2        0.0000 
     49 N          -7.6445    9.1440  -29.8745 N.am      2 SEC2        0.0000 
     50 N          -8.1030    9.4510  -28.5780 N.am      5 SEP2        0.0000 
     51 N          -8.9640    6.3230  -35.2110 N.am      2 SEC2        0.0000 
     52 N         -10.0780    6.8460  -34.3060 N.am      8 SEL2        0.0000 
     53 N          -7.8500    5.8000  -36.1160 N.am      5 SEP2        0.0000 
     54 N         -11.1680    9.9280  -35.3145 N.am      2 SEC2        0.0000 
     55 N          -9.8700    9.3400  -34.8370 N.am      8 SEL2        0.0000 
     56 N         -12.4660   10.5160  -35.7920 N.am      5 SEP2        0.0000 
     57 CA        -13.1275    7.4690  -34.0115 C.3       3 GLC5        0.0000 
     58 CA        -12.2790    7.7060  -32.4690 C.3       9 GLL5        0.0000 
     59 CA        -13.9760    7.2320  -35.5540 C.3       6 GLP5        0.0000 
     60 CA        -10.8790    8.6780  -29.7065 C.3       3 GLC5        0.0000 
     61 CA        -12.2090    7.8840  -30.9740 C.3       9 GLL5        0.0000 
     62 CA        -12.8170    4.1095  -31.8035 C.3       3 GLC5        0.0000 
     63 CA        -12.6450    5.1280  -30.5200 C.3       9 GLL5        0.0000 
     64 CA        -12.9890    3.0910  -33.0870 C.3       6 GLP5        0.0000 
     65 CA        -11.3315    3.4925  -30.7945 C.3       3 GLC5        0.0000 
     66 CA        -10.0180    1.8570  -31.0690 C.3       6 GLP5        0.0000 
     67 CA        -10.5665    5.2375  -30.9135 C.3       3 GLC5        0.0000 
     68 CA         -8.4880    5.3470  -31.3070 C.3       6 GLP5        0.0000 
     69 CA        -14.8990    5.3220  -26.8325 C.3       3 GLC5        0.0000 
     70 CA        -14.9200    5.9710  -28.5170 C.3       9 GLL5        0.0000 
     71 CA        -14.8780    4.6730  -25.1480 C.3       6 GLP5        0.0000 
     72 CA        -16.2800    7.9440  -28.7785 C.3       3 GLC5        0.0000 
     73 CA        -14.3350    8.6000  -29.0750 C.3       9 GLL5        0.0000 
     74 CA        -18.2250    7.2880  -28.4820 C.3       6 GLP5        0.0000 
     75 CA        -11.3295    9.4865  -28.8935 C.3       3 GLC5        0.0000 
     76 CA        -13.1100    9.5010  -29.3480 C.3       9 GLL5        0.0000 
     77 CA        -16.2355    9.4720  -31.7350 C.3       3 GLC5        0.0000 
     78 CA        -15.7100   10.4140  -29.9550 C.3       9 GLL5        0.0000 
     79 CA        -16.7610    8.5300  -33.5150 C.3       6 GLP5        0.0000 
     80 CA        -13.5905   11.9665  -31.1710 C.3       3 GLC5        0.0000 
     81 CA        -14.6610   11.3660  -29.6330 C.3       9 GLL5        0.0000 
     82 CA        -12.5200   12.5670  -32.7090 C.3       6 GLP5        0.0000 
     83 N         -13.4610   13.5230  -29.6315 N.am      2 SEC2        0.0000 
     84 N         -14.7550   12.6980  -29.7980 N.am      8 SEL2        0.0000 
     85 N         -12.1670   14.3480  -29.4650 N.am      5 SEP2        0.0000 
     86 N         -14.4685   13.3325  -28.4045 N.am      2 SEC2        0.0000 
     87 N         -14.1820   13.9670  -27.0110 N.am      5 SEP2        0.0000 
     88 CA        -16.2280   14.1005  -32.1100 C.3       3 GLC5        0.0000 
     89 CA        -15.9010   13.2000  -30.3070 C.3       9 GLL5        0.0000 
     90 CA        -16.5550   15.0010  -33.9130 C.3       6 GLP5        0.0000 
     91 CA        -14.4630   13.6045  -31.5910 C.3       3 GLC5        0.0000 
     92 CA        -13.0250   14.0090  -32.8750 C.3       6 GLP5        0.0000 
     93 CA        -17.4025   14.4555  -29.6925 C.3       3 GLC5        0.0000 
     94 CA        -18.9040   15.7110  -29.0780 C.3       6 GLP5        0.0000 
     95 O         -15.2185   15.4125  -29.7665 O.2       1 ALC1        0.0000 
     96 O         -16.0200   14.5410  -30.4720 O.2       7 ALL1        0.0000 
     97 O         -14.4170   16.2840  -29.0610 O.2       4 ALP1        0.0000 
     98 CA        -18.9670   11.5145  -31.0375 C.3       3 GLC5        0.0000 
     99 CA        -16.9060   10.9630  -30.5090 C.3       9 GLL5        0.0000 
    100 CA        -21.0280   12.0660  -31.5660 C.3       6 GLP5        0.0000 
    101 CA        -16.8055   10.4690  -32.2615 C.3       3 GLC5        0.0000 
    102 CA        -16.7050    9.9750  -34.0140 C.3       6 GLP5        0.0000 
    103 N         -19.2220    9.9895  -30.9795 N.am      2 SEC2        0.0000 
    104 N         -17.8800   10.2370  -30.8360 N.am      8 SEL2        0.0000 
    105 N         -20.5640    9.7420  -31.1230 N.am      5 SEP2        0.0000 
    106 N         -18.4005    9.0410  -30.2390 N.am      2 SEC2        0.0000 
    107 N         -18.9210    7.8450  -29.6420 N.am      5 SEP2        0.0000 
    108 CA         -5.3232   12.1457  -30.3190 C.3       3 GLC5        0.0000 
    109 CA         -9.2710   13.1733  -30.5648 C.3       3 GLC5        0.0000 
    110 CA         -8.7010   12.8510  -32.5180 C.3       9 GLL5        0.0000 
    111 CA         -9.8250   14.2180  -28.8300 C.3       6 GLP5        0.0000 
    112 CA        -10.2461   12.0855  -33.3061 C.3       3 GLC5        0.0000 
    113 CA        -11.9050   11.9700  -33.9580 C.3       6 GLP5        0.0000 
    114 CA        -12.1047    5.6055  -28.8035 C.3       3 GLC5        0.0000 
    115 CA        -12.9940    6.8500  -30.2540 C.3       9 GLL5        0.0000 
    116 CA        -11.3900    5.2220  -27.2200 C.3       6 GLP5        0.0000 
    117 CA        -16.3435    6.9345  -28.7095 C.3       3 GLC5        0.0000 
    118 CA        -14.0040    7.1910  -29.3570 C.3       9 GLL5        0.0000 
    119 CA        -14.0358    7.4667  -27.1100 C.3       3 GLC5        0.0000 
    120 CA        -13.9020    7.0380  -25.0040 C.3       6 GLP5        0.0000 
    121 CA        -12.9260    5.9015  -28.0785 C.3       3 GLC5        0.0000 
    122 CA        -17.2665    8.9882  -29.3570 C.3       3 GLC5        0.0000 
@<TRIPOS>BOND
@<TRIPOS>SUBSTRUCTURE
     1 ALC1       16 GROUP        1 X    ALC  0     ROOT ALC X 1
     2 SEC2        1 GROUP        1 X    SEC  0     **** SEC X 2
     3 GLC5        4 GROUP        1 X    GLC  0     **** GLC X 6
     4 ALP1       18 GROUP        1 Y    ALP  0     ROOT ALP Y 8
     5 SEP2        3 GROUP        1 Y    SEP  0     **** SEP Y 9
     6 GLP5        6 GROUP        1 Y    GLP  0     **** GLP Y 13
     7 ALL1       17 GROUP        1 Z    ALL  0     ROOT ALL Z 15
     8 SEL2        2 GROUP        1 Z    SEL  0     **** SEL Z 16
     9 GLL5        5 GROUP        1 Z    GLL  0     **** GLL Z 20
@<TRIPOS>SET

