#    Name: 3hrd_MCN_1_ligand
#    Modification time : Tue Mar 25 14:54:22 2014

@<TRIPOS>MOLECULE
3hrd_MCN_1_ligand
   62    66     1     0     0
SMALL
NO_CHARGES


@<TRIPOS>ATOM
      1 N1         -5.4930   13.7460  -32.3870 N.am      1 MCN921      0.0000 
      2 C2         -4.4320   14.5510  -32.7970 C.2       1 MCN921      0.0000 
      3 N3         -3.1680   14.0470  -32.7780 N.2       1 MCN921      0.0000 
      4 C4         -2.9540   12.7450  -32.3530 C.2       1 MCN921      0.0000 
      5 C5         -3.9870   11.9280  -31.9480 C.2       1 MCN921      0.0000 
      6 C6         -5.2520   12.4330  -31.9660 C.2       1 MCN921      0.0000 
      7 O2         -4.5710   15.7470  -33.1910 O.2       1 MCN921      0.0000 
      8 N4         -1.6930   12.2790  -32.3360 N.pl3     1 MCN921      0.0000 
      9 C1'        -6.9230   14.2960  -32.3760 C.3       1 MCN921      0.0000 
     10 C2D        -7.4440   14.4300  -33.7910 C.3       1 MCN921      0.0000 
     11 O2'        -8.2310   15.5600  -34.0270 O.3       1 MCN921      0.0000 
     12 C3'        -8.1820   13.1410  -33.9370 C.3       1 MCN921      0.0000 
     13 C4D        -8.7010   12.8510  -32.5180 C.3       1 MCN921      0.0000 
     14 O4D        -7.8040   13.5870  -31.6310 O.3       1 MCN921      0.0000 
     15 O3'        -9.2290   13.2340  -34.9160 O.3       1 MCN921      0.0000 
     16 C5'        -8.7330   11.4060  -32.0810 C.3       1 MCN921      0.0000 
     17 O5'        -7.8030   10.6160  -32.8290 O.3       1 MCN921      0.0000 
     18 PA         -7.6060    9.0790  -32.5710 P.3       1 MCN921      0.0000 
     19 O1A        -6.7360    8.6260  -33.6990 O.co2     1 MCN921      0.0000 
     20 O2A        -7.1860    8.8370  -31.1710 O.co2     1 MCN921      0.0000 
     21 O3A        -9.0300    8.3950  -32.6270 O.3       1 MCN921      0.0000 
     22 PB        -10.0730    8.2410  -33.8180 P.3       1 MCN921      0.0000 
     23 O1B       -10.0780    6.8460  -34.3060 O.co2     1 MCN921      0.0000 
     24 O2B        -9.8700    9.3400  -34.8370 O.co2     1 MCN921      0.0000 
     25 O3B       -11.4350    8.6260  -33.1270 O.3       1 MCN921      0.0000 
     26 C10       -12.2790    7.7060  -32.4690 C.3       1 MCN921      0.0000 
     27 C9'       -12.2090    7.8840  -30.9740 C.3       1 MCN921      0.0000 
     28 C8'       -12.9940    6.8500  -30.2540 C.2       1 MCN921      0.0000 
     29 S8'       -12.6450    5.1280  -30.5200 S.3       1 MCN921      0.0000 
     30 C7'       -14.0040    7.1910  -29.3570 C.2       1 MCN921      0.0000 
     31 S7'       -14.9200    5.9710  -28.5170 S.3       1 MCN921      0.0000 
     32 C6'       -14.3350    8.6000  -29.0750 C.ar      1 MCN921      0.0000 
     33 C7        -13.1100    9.5010  -29.3480 C.ar      1 MCN921      0.0000 
     34 O9'       -12.6330    9.2790  -30.7010 O.3       1 MCN921      0.0000 
     35 N5'       -15.5520    9.0520  -29.7520 N.ar      1 MCN921      0.0000 
     36 C4A       -15.7100   10.4140  -29.9550 C.ar      1 MCN921      0.0000 
     37 N8'       -13.4710   10.8720  -29.1200 N.ar      1 MCN921      0.0000 
     38 C4B       -14.6610   11.3660  -29.6330 C.ar      1 MCN921      0.0000 
     39 N1'       -14.7550   12.6980  -29.7980 N.ar      1 MCN921      0.0000 
     40 C2'       -15.9010   13.2000  -30.3070 C.ar      1 MCN921      0.0000 
     41 N2'       -16.0200   14.5410  -30.4720 N.pl3     1 MCN921      0.0000 
     42 N3'       -16.9300   12.3350  -30.6480 N.ar      1 MCN921      0.0000 
     43 C4'       -16.9060   10.9630  -30.5090 C.ar      1 MCN921      0.0000 
     44 O4'       -17.8800   10.2370  -30.8360 O.3       1 MCN921      0.0000 
     45 H          -3.8014   10.9695  -31.6434 H         1 MCN921      0.0000 
     46 H          -6.0568   11.8512  -31.6675 H         1 MCN921      0.0000 
     47 H          -0.9847   12.9149  -32.6425 H         1 MCN921      0.0000 
     48 H          -1.5759   11.3381  -32.0183 H         1 MCN921      0.0000 
     49 H          -6.8380   15.3511  -31.9984 H         1 MCN921      0.0000 
     50 H          -6.5709   14.3615  -34.4429 H         1 MCN921      0.0000 
     51 H          -7.4630   12.3706  -34.1726 H         1 MCN921      0.0000 
     52 H          -9.6926   13.2851  -32.4297 H         1 MCN921      0.0000 
     53 H          -9.7647   11.0334  -32.2054 H         1 MCN921      0.0000 
     54 H          -8.5097   11.3700  -31.0005 H         1 MCN921      0.0000 
     55 H         -12.0025    6.6608  -32.6990 H         1 MCN921      0.0000 
     56 H         -13.3340    7.8276  -32.7756 H         1 MCN921      0.0000 
     57 H         -11.1460    7.7940  -30.6975 H         1 MCN921      0.0000 
     58 H         -15.2097   15.0848  -30.2536 H         1 MCN921      0.0000 
     59 H         -16.9075   14.8673  -30.7974 H         1 MCN921      0.0000 
     60 H          -8.9264   15.5457  -33.3084 H         1 MCN921      0.0000 
     61 H          -9.1566   14.1606  -35.2850 H         1 MCN921      0.0000 
     62 H         -17.6573    9.9024  -31.7517 H         1 MCN921      0.0000 
@<TRIPOS>BOND
     1    2    1 am   
     2    6    1 1    
     3    9    1 1    
     4    3    2 1    
     5    7    2 2    
     6    4    3 2    
     7    5    4 1    
     8    8    4 1    
     9    6    5 2    
    10   45    5 1    
    11   46    6 1    
    12   47    8 1    
    13   48    8 1    
    14   10    9 1    
    15   14    9 1    
    16   49    9 1    
    17   11   10 1    
    18   12   10 1    
    19   50   10 1    
    20   60   11 1    
    21   13   12 1    
    22   15   12 1    
    23   51   12 1    
    24   14   13 1    
    25   16   13 1    
    26   52   13 1    
    27   61   15 1    
    28   17   16 1    
    29   53   16 1    
    30   54   16 1    
    31   18   17 1    
    32   19   18 ar   
    33   20   18 ar   
    34   21   18 1    
    35   22   21 1    
    36   23   22 ar   
    37   24   22 ar   
    38   25   22 1    
    39   26   25 1    
    40   27   26 1    
    41   55   26 1    
    42   56   26 1    
    43   28   27 1    
    44   34   27 1    
    45   57   27 1    
    46   29   28 1    
    47   30   28 2    
    48   31   30 1    
    49   32   30 1    
    50   33   32 ar   
    51   35   32 ar   
    52   34   33 1    
    53   37   33 ar   
    54   36   35 ar   
    55   38   36 ar   
    56   43   36 ar   
    57   38   37 ar   
    58   39   38 ar   
    59   40   39 ar   
    60   41   40 1    
    61   42   40 ar   
    62   58   41 1    
    63   59   41 1    
    64   43   42 ar   
    65   44   43 1    
    66   62   44 1    
@<TRIPOS>SUBSTRUCTURE
     1 MCN921      1 GROUP   
@<TRIPOS>SET

