#    Name: 3qtz_X42_1_INTS_M
#    Modification time : Tue Mar 25 10:08:57 2014

@<TRIPOS>MOLECULE
3qtz_X42_1_INTS_M
   62     0     9     0     0
SMALL
NO_CHARGES


@<TRIPOS>ATOM
      1 N         -64.0740   24.7105  -87.4195 N.am      2 SEC2        0.0000 
      2 N         -65.0970   25.4400  -86.3070 N.am      8 SEL2        0.0000 
      3 N         -63.0510   23.9810  -88.5320 N.am      5 SEP2        0.0000 
      4 O         -66.5745   25.4740  -89.0215 O.2       1 ALC1        0.0000 
      5 O         -66.6120   26.2710  -87.8390 O.2       7 ALL1        0.0000 
      6 O         -66.5370   24.6770  -90.2040 O.2       4 ALP1        0.0000 
      7 O         -61.3895   28.0550  -79.3080 O.2       1 ALC1        0.0000 
      8 O         -61.1610   26.6900  -78.6330 O.2       7 ALL1        0.0000 
      9 O         -61.6180   29.4200  -79.9830 O.2       4 ALP1        0.0000 
     10 CA        -65.2050   29.5440  -84.5060 C.3       3 GLC5        0.0000 
     11 CA        -67.3390   29.4390  -83.8940 C.3       9 GLL5        0.0000 
     12 CA        -63.0710   29.6490  -85.1180 C.3       6 GLP5        0.0000 
     13 CA        -72.2680   29.2620  -83.4070 C.3       3 GLC5        0.0000 
     14 CA        -70.0920   29.4530  -83.1710 C.3       9 GLL5        0.0000 
     15 CA        -74.4440   29.0710  -83.6430 C.3       6 GLP5        0.0000 
     16 CA        -63.1785   27.9790  -83.8885 C.3       3 GLC5        0.0000 
     17 CA        -63.2860   26.3090  -82.6590 C.3       9 GLL5        0.0000 
     18 N         -59.2830   27.5130  -81.6110 N.am      2 SEC2        0.0000 
     19 N         -59.2810   26.6190  -80.3400 N.am      8 SEL2        0.0000 
     20 N         -59.2850   28.4070  -82.8820 N.am      5 SEP2        0.0000 
     21 CA        -72.9245   29.7875  -82.6735 C.3       3 GLC5        0.0000 
     22 CA        -71.3740   29.4670  -82.8240 C.3       9 GLL5        0.0000 
     23 CA        -74.4750   30.1080  -82.5230 C.3       6 GLP5        0.0000 
     24 CA        -65.6685   25.7585  -82.2905 C.3       3 GLC5        0.0000 
     25 CA        -65.8720   26.6380  -84.1570 C.3       9 GLL5        0.0000 
     26 CA        -65.4650   24.8790  -80.4240 C.3       6 GLP5        0.0000 
     27 CA        -67.7595   25.9785  -83.2600 C.3       3 GLC5        0.0000 
     28 CA        -69.6470   25.3190  -82.3630 C.3       6 GLP5        0.0000 
     29 CA        -67.1115   25.1850  -85.2815 C.3       3 GLC5        0.0000 
     30 CA        -68.3510   23.7320  -86.4060 C.3       6 GLP5        0.0000 
     31 CA        -65.0880   27.6755  -85.6125 C.3       3 GLC5        0.0000 
     32 CA        -64.3040   28.7130  -87.0680 C.3       6 GLP5        0.0000 
     33 CA        -67.4083   25.1665  -86.2650 C.3       3 GLC5        0.0000 
     34 CA        -66.7520   26.9710  -85.6020 C.3       9 GLL5        0.0000 
     35 CA        -65.3847   27.6570  -86.5960 C.3       3 GLC5        0.0000 
     36 CA        -66.1790   26.2310  -86.6460 C.3       9 GLL5        0.0000 
     37 CA        -64.0580   24.7623  -81.8610 C.3       3 GLC5        0.0000 
     38 CA        -63.1480   25.1300  -83.4680 C.3       9 GLL5        0.0000 
     39 CA        -69.3053   26.9778  -83.4085 C.3       3 GLC5        0.0000 
     40 CA        -68.2710   28.6270  -84.6410 C.3       9 GLL5        0.0000 
     41 CA        -67.1950   30.2365  -85.8468 C.3       3 GLC5        0.0000 
     42 CA        -66.5850   31.4400  -87.4260 C.3       6 GLP5        0.0000 
     43 CA        -68.8007   31.3517  -83.9995 C.3       3 GLC5        0.0000 
     44 CA        -70.0370   32.8670  -84.6490 C.3       6 GLP5        0.0000 
     45 CA        -60.5012   23.7452  -84.2103 C.3       3 GLC5        0.0000 
     46 CA        -62.1540   24.1610  -83.1280 C.3       9 GLL5        0.0000 
     47 CA        -59.2700   23.2260  -85.8500 C.3       6 GLP5        0.0000 
     48 CA        -63.4250   24.9187  -81.0222 C.3       3 GLC5        0.0000 
     49 CA        -61.3110   24.3680  -82.0130 C.3       9 GLL5        0.0000 
     50 CA        -60.0494   25.5879  -82.8216 C.3       3 GLC5        0.0000 
     51 CA        -61.4590   25.5490  -81.2280 C.3       9 GLL5        0.0000 
     52 CA        -58.5030   26.2690  -83.7440 C.3       6 GLP5        0.0000 
     53 CA        -64.1650   25.6448  -81.2635 C.3       3 GLC5        0.0000 
     54 CA        -62.4440   26.5120  -81.5470 C.3       9 GLL5        0.0000 
     55 CA        -61.9290   28.2448  -82.1350 C.3       3 GLC5        0.0000 
     56 CA        -60.9930   30.0790  -82.1670 C.3       6 GLP5        0.0000 
     57 CA        -71.1502   30.1717  -81.2000 C.3       3 GLC5        0.0000 
     58 CA        -69.1620   30.2390  -82.4450 C.3       9 GLL5        0.0000 
     59 CA        -71.8000   30.6870  -79.5840 C.3       6 GLP5        0.0000 
     60 CA        -70.6732   28.3483  -81.8960 C.3       3 GLC5        0.0000 
     61 CA        -70.8460   27.0400  -80.9760 C.3       6 GLP5        0.0000 
     62 CA        -70.2724   31.1118  -83.9149 C.3       3 GLC5        0.0000 
@<TRIPOS>BOND
@<TRIPOS>SUBSTRUCTURE
     1 ALC1        4 GROUP        1 X    ALC  0     ROOT ALC X 1
     2 SEC2        1 GROUP        1 X    SEC  0     **** SEC X 2
     3 GLC5       10 GROUP        1 X    GLC  0     **** GLC X 6
     4 ALP1        6 GROUP        1 Y    ALP  0     ROOT ALP Y 8
     5 SEP2        3 GROUP        1 Y    SEP  0     **** SEP Y 9
     6 GLP5       12 GROUP        1 Y    GLP  0     **** GLP Y 13
     7 ALL1        5 GROUP        1 Z    ALL  0     ROOT ALL Z 15
     8 SEL2        2 GROUP        1 Z    SEL  0     **** SEL Z 16
     9 GLL5       11 GROUP        1 Z    GLL  0     **** GLL Z 20
@<TRIPOS>SET

