#    Name: 3qtz_X42_1_ligand
#    Modification time : Tue Mar 25 10:08:57 2014

@<TRIPOS>MOLECULE
3qtz_X42_1_ligand
   39    41     1     0     0
SMALL
NO_CHARGES


@<TRIPOS>ATOM
      1 N01       -65.0970   25.4400  -86.3070 N.2       1 X42453      0.0000 
      2 N02       -63.8670   24.8820  -84.5120 N.pl3     1 X42453      0.0000 
      3 N03       -66.6120   26.2710  -87.8390 N.pl3     1 X42453      0.0000 
      4 N04       -61.1610   26.6900  -78.6330 N.pl3     1 X42453      0.0000 
      5 C05       -66.7520   26.9710  -85.6020 C.2       1 X42453      0.0000 
      6 C06       -66.1790   26.2310  -86.6460 C.2       1 X42453      0.0000 
      7 C07       -64.8350   25.5600  -85.0270 C.2       1 X42453      0.0000 
      8 C08       -63.1480   25.1300  -83.4680 C.ar      1 X42453      0.0000 
      9 C09       -67.8490   27.8350  -85.7120 C.2       1 X42453      0.0000 
     10 C10       -68.2710   28.6270  -84.6410 C.ar      1 X42453      0.0000 
     11 C11       -67.3390   29.4390  -83.8940 C.ar      1 X42453      0.0000 
     12 C12       -67.7900   30.2340  -82.8060 C.ar      1 X42453      0.0000 
     13 C13       -69.1620   30.2390  -82.4450 C.ar      1 X42453      0.0000 
     14 C14       -70.0920   29.4530  -83.1710 C.ar      1 X42453      0.0000 
     15 C15       -69.6560   28.6460  -84.2670 C.ar      1 X42453      0.0000 
     16 C16       -62.1540   24.1610  -83.1280 C.ar      1 X42453      0.0000 
     17 C17       -61.3110   24.3680  -82.0130 C.ar      1 X42453      0.0000 
     18 C18       -61.4590   25.5490  -81.2280 C.ar      1 X42453      0.0000 
     19 C19       -62.4440   26.5120  -81.5470 C.ar      1 X42453      0.0000 
     20 C20       -63.2860   26.3090  -82.6590 C.ar      1 X42453      0.0000 
     21 O21       -68.4610   27.8970  -86.7780 O.2       1 X42453      0.0000 
     22 O22       -59.2810   26.6190  -80.3400 O.2       1 X42453      0.0000 
     23 O23       -59.8810   24.5570  -79.3690 O.2       1 X42453      0.0000 
     24 F24       -71.3740   29.4670  -82.8240 F         1 X42453      0.0000 
     25 S25       -65.8720   26.6380  -84.1570 S.3       1 X42453      0.0000 
     26 S26       -60.3810   25.8280  -79.8640 S.o2      1 X42453      0.0000 
     27 H         -63.6083   23.9286  -85.0540 H         1 X42453      0.0000 
     28 H         -67.4189   26.8406  -87.9953 H         1 X42453      0.0000 
     29 H         -66.1052   25.7290  -88.5095 H         1 X42453      0.0000 
     30 H         -61.2031   26.2413  -77.7403 H         1 X42453      0.0000 
     31 H         -61.5242   27.5868  -78.8859 H         1 X42453      0.0000 
     32 H         -66.3563   29.4348  -84.1562 H         1 X42453      0.0000 
     33 H         -67.1239   30.8030  -82.2831 H         1 X42453      0.0000 
     34 H         -69.4796   30.8095  -81.6613 H         1 X42453      0.0000 
     35 H         -70.3258   28.0842  -84.7835 H         1 X42453      0.0000 
     36 H         -62.0584   23.3198  -83.6964 H         1 X42453      0.0000 
     37 H         -60.6022   23.6831  -81.7675 H         1 X42453      0.0000 
     38 H         -62.5432   27.3491  -80.9738 H         1 X42453      0.0000 
     39 H         -64.0005   26.9957  -82.9003 H         1 X42453      0.0000 
@<TRIPOS>BOND
     1    6    1 1    
     2    7    1 2    
     3    7    2 1    
     4    8    2 1    
     5   27    2 1    
     6    6    3 1    
     7   28    3 1    
     8   29    3 1    
     9   26    4 1    
    10   30    4 1    
    11   31    4 1    
    12    6    5 2    
    13    9    5 1    
    14   25    5 1    
    15   25    7 1    
    16   16    8 ar   
    17   20    8 ar   
    18   10    9 1    
    19   21    9 2    
    20   11   10 ar   
    21   15   10 ar   
    22   12   11 ar   
    23   32   11 1    
    24   13   12 ar   
    25   33   12 1    
    26   14   13 ar   
    27   34   13 1    
    28   15   14 ar   
    29   24   14 1    
    30   35   15 1    
    31   17   16 ar   
    32   36   16 1    
    33   18   17 ar   
    34   37   17 1    
    35   19   18 ar   
    36   26   18 1    
    37   20   19 ar   
    38   38   19 1    
    39   39   20 1    
    40   26   22 2    
    41   26   23 2    
@<TRIPOS>SUBSTRUCTURE
     1 X42453      1 GROUP   
@<TRIPOS>SET

