#    Name: 1sqi_869_2_INTS_M
#    Modification time : Tue Mar 25 02:38:57 2014

@<TRIPOS>MOLECULE
1sqi_869_2_INTS_M
   56     0     6     0     0
SMALL
NO_CHARGES


@<TRIPOS>ATOM
      1 CA          8.1900   15.4705   22.2840 C.3       2 GLC5        0.0000 
      2 CA          8.3980   13.8800   23.7840 C.3       6 GLL5        0.0000 
      3 CA          7.9820   17.0610   20.7840 C.3       4 GLP5        0.0000 
      4 CA         10.0140   13.9365   24.8105 C.3       2 GLC5        0.0000 
      5 CA         11.6300   13.9930   25.8370 C.3       4 GLP5        0.0000 
      6 CA          9.1960   18.2680   23.4130 C.3       2 GLC5        0.0000 
      7 CA          7.8270   17.3270   24.8830 C.3       6 GLL5        0.0000 
      8 CA         10.5650   19.2090   21.9430 C.3       4 GLP5        0.0000 
      9 CA          6.4070   23.2215   28.3310 C.3       2 GLC5        0.0000 
     10 CA          6.8000   21.4270   27.6350 C.3       6 GLL5        0.0000 
     11 CA          6.0140   25.0160   29.0270 C.3       4 GLP5        0.0000 
     12 CA          4.5430   22.7670   25.9195 C.3       2 GLC5        0.0000 
     13 CA          5.8870   21.1710   26.5560 C.3       6 GLL5        0.0000 
     14 CA          3.1990   24.3630   25.2830 C.3       4 GLP5        0.0000 
     15 CA          9.5470   19.3565   26.6995 C.3       2 GLC5        0.0000 
     16 CA          8.6370   18.2460   27.8950 C.3       6 GLL5        0.0000 
     17 CA         10.4570   20.4670   25.5040 C.3       4 GLP5        0.0000 
     18 CA          9.9080   16.7575   27.0015 C.3       2 GLC5        0.0000 
     19 CA         11.1790   15.2690   26.1080 C.3       4 GLP5        0.0000 
     20 CA          6.6155   17.8625   28.6525 C.3       2 GLC5        0.0000 
     21 CA          4.5940   17.4790   29.4100 C.3       4 GLP5        0.0000 
     22 Zn         11.2450   21.2255   30.3180 Zn        1 ZIC7        0.0000 
     23 Zn         10.5220   20.9940   31.0380 Zn        5 ZIL7        0.0000 
     24 Zn         11.9680   21.4570   29.5980 Zn        3 ZIP7        0.0000 
     25 Zn         11.0695   21.3055   29.2770 Zn        1 ZIC7        0.0000 
     26 Zn         10.1710   21.1540   28.9560 Zn        5 ZIL7        0.0000 
     27 CA          6.9920   18.2955   22.1520 C.3       2 GLC5        0.0000 
     28 CA          6.0020   19.5300   23.5200 C.3       6 GLL5        0.0000 
     29 CA          5.8470   21.3470   22.8790 C.3       2 GLC5        0.0000 
     30 CA          5.6920   23.1640   22.2380 C.3       4 GLP5        0.0000 
     31 CA          7.5135   20.1505   23.3435 C.3       2 GLC5        0.0000 
     32 CA          9.0250   20.7710   23.1670 C.3       4 GLP5        0.0000 
     33 CA         11.4920   18.5410   33.1100 C.3       2 GLC5        0.0000 
     34 CA          9.5080   18.7850   33.6920 C.3       6 GLL5        0.0000 
     35 CA         13.4760   18.2970   32.5280 C.3       4 GLP5        0.0000 
     36 CA          8.3035   18.3010   35.5025 C.3       2 GLC5        0.0000 
     37 CA          7.0990   17.8170   37.3130 C.3       4 GLP5        0.0000 
     38 CA         12.0100   19.6370   33.1165 C.3       2 GLC5        0.0000 
     39 CA         10.5440   20.9770   33.7050 C.3       6 GLL5        0.0000 
     40 CA         11.8915   20.7120   34.5005 C.3       2 GLC5        0.0000 
     41 CA         13.2390   20.4470   35.2960 C.3       4 GLP5        0.0000 
     42 CA         10.3565   22.8050   33.6705 C.3       2 GLC5        0.0000 
     43 CA         10.1690   24.6330   33.6360 C.3       4 GLP5        0.0000 
     44 CA          7.7330   19.2695   36.0500 C.3       2 GLC5        0.0000 
     45 CA          8.3670   20.7220   34.7870 C.3       6 GLL5        0.0000 
     46 CA          9.5555   21.4265   36.5400 C.3       2 GLC5        0.0000 
     47 CA         10.7440   22.1310   38.2930 C.3       4 GLP5        0.0000 
     48 CA          7.6046   16.5370   22.6262 C.3       2 GLC5        0.0000 
     49 CA          3.9590   20.6257   26.8700 C.3       2 GLC5        0.0000 
     50 CA          5.8610   19.9260   25.8860 C.3       6 GLL5        0.0000 
     51 CA          2.0440   20.7030   27.5190 C.3       4 GLP5        0.0000 
     52 CA         10.9310   19.4075   34.7345 C.3       2 GLC5        0.0000 
     53 CA          9.2060   20.2950   33.5640 C.3       6 GLL5        0.0000 
     54 CA         12.5050   19.2750   35.8410 C.3       4 GLP5        0.0000 
     55 CA          8.9438   22.3972   33.4047 C.3       2 GLC5        0.0000 
     56 CA          9.1010   24.2860   32.6340 C.3       4 GLP5        0.0000 
@<TRIPOS>BOND
@<TRIPOS>SUBSTRUCTURE
     1 ZIC7       22 GROUP        1 X    ZIC  0     ROOT ZIC X 5
     2 GLC5        1 GROUP        1 X    GLC  0     **** GLC X 6
     3 ZIP7       24 GROUP        1 Y    ZIP  0     ROOT ZIP Y 12
     4 GLP5        3 GROUP        1 Y    GLP  0     **** GLP Y 13
     5 ZIL7       23 GROUP        1 Z    ZIL  0     ROOT ZIL Z 19
     6 GLL5        2 GROUP        1 Z    GLL  0     **** GLL Z 20
@<TRIPOS>SET

