#    Name: 1sqi_869_2_ligand
#    Modification time : Tue Mar 25 02:38:57 2014

@<TRIPOS>MOLECULE
1sqi_869_2_ligand
   56    58     1     0     0
SMALL
NO_CHARGES


@<TRIPOS>ATOM
      1 O30         6.6200   14.0720   23.6940 O.3       1 8691502     0.0000 
      2 C31         8.3980   13.8800   23.7840 C.3       1 8691502     0.0000 
      3 C24         7.7960   16.1030   24.2310 C.ar      1 8691502     0.0000 
      4 C25         7.8270   17.3270   24.8830 C.ar      1 8691502     0.0000 
      5 C26         6.7450   17.7680   25.7110 C.ar      1 8691502     0.0000 
      6 C27         5.6130   16.9910   25.8630 C.ar      1 8691502     0.0000 
      7 C28         5.5620   15.7490   25.1910 C.ar      1 8691502     0.0000 
      8 C29         6.6430   15.3110   24.3800 C.ar      1 8691502     0.0000 
      9 C1          7.6830   19.2120   27.4320 C.ar      1 8691502     0.0000 
     10 C2          7.7300   20.4810   28.1030 C.ar      1 8691502     0.0000 
     11 C3          6.8000   21.4270   27.6350 C.ar      1 8691502     0.0000 
     12 C4          5.8870   21.1710   26.5560 C.ar      1 8691502     0.0000 
     13 C5          5.8610   19.9260   25.8860 C.ar      1 8691502     0.0000 
     14 C6          6.7850   18.9190   26.3660 C.ar      1 8691502     0.0000 
     15 C7          8.6370   18.2460   27.8950 C.3       1 8691502     0.0000 
     16 C9          8.1740   20.5230   30.2700 C.2       1 8691502     0.0000 
     17 C15         9.1810   20.6200   31.1260 C.2       1 8691502     0.0000 
     18 C18         6.9430   20.1830   30.7610 C.2       1 8691502     0.0000 
     19 N16         8.5910   20.3690   32.3430 N.pl3     1 8691502     0.0000 
     20 N17         7.1970   20.0760   32.0840 N.2       1 8691502     0.0000 
     21 O19        10.5220   20.9940   31.0380 O.co2     1 8691502     0.0000 
     22 C8          8.9370   20.8900   28.9640 C.2       1 8691502     0.0000 
     23 O10        10.1710   21.1540   28.9560 O.2       1 8691502     0.0000 
     24 S11         4.8930   19.7450   24.8010 S.o2      1 8691502     0.0000 
     25 O13         4.0070   20.7650   24.5160 O.2       1 8691502     0.0000 
     26 O12         4.1210   18.6110   24.8590 O.2       1 8691502     0.0000 
     27 C14         6.0020   19.5300   23.5200 C.3       1 8691502     0.0000 
     28 C20         9.2060   20.2950   33.5640 C.3       1 8691502     0.0000 
     29 C21         9.5080   18.7850   33.6920 C.3       1 8691502     0.0000 
     30 C22        10.5440   20.9770   33.7050 C.3       1 8691502     0.0000 
     31 C23         8.3670   20.7220   34.7870 C.3       1 8691502     0.0000 
     32 H           8.5703   15.7830   23.6663 H         1 8691502     0.0000 
     33 H           8.6453   17.9520   24.7805 H         1 8691502     0.0000 
     34 H           4.8334   17.2901   26.4368 H         1 8691502     0.0000 
     35 H           4.7326   15.1517   25.2882 H         1 8691502     0.0000 
     36 H           6.7619   22.3658   28.0865 H         1 8691502     0.0000 
     37 H           5.2399   21.9179   26.2707 H         1 8691502     0.0000 
     38 H           6.1560   20.0618   30.3018 H         1 8691502     0.0000 
     39 H           8.8762   14.6311   23.3288 H         1 8691502     0.0000 
     40 H           8.7217   13.8570   24.7299 H         1 8691502     0.0000 
     41 H           8.7025   13.0324   23.3494 H         1 8691502     0.0000 
     42 H           9.5768   18.5680   27.7810 H         1 8691502     0.0000 
     43 H           8.5140   18.0382   28.8654 H         1 8691502     0.0000 
     44 H           8.5611   17.3815   27.3982 H         1 8691502     0.0000 
     45 H           6.5940   20.3275   23.4035 H         1 8691502     0.0000 
     46 H           6.5984   18.7421   23.6734 H         1 8691502     0.0000 
     47 H           5.5370   19.3802   22.6474 H         1 8691502     0.0000 
     48 H          10.1022   18.4614   32.9557 H         1 8691502     0.0000 
     49 H           9.9661   18.5697   34.5544 H         1 8691502     0.0000 
     50 H           8.6734   18.2352   33.6582 H         1 8691502     0.0000 
     51 H          10.9205   20.8695   34.6252 H         1 8691502     0.0000 
     52 H          11.2189   20.6062   33.0670 H         1 8691502     0.0000 
     53 H          10.4809   21.9590   33.5270 H         1 8691502     0.0000 
     54 H           8.8826   20.6359   35.6395 H         1 8691502     0.0000 
     55 H           8.0696   21.6744   34.7192 H         1 8691502     0.0000 
     56 H           7.5430   20.1640   34.8852 H         1 8691502     0.0000 
@<TRIPOS>BOND
     1    2    1 1    
     2    8    1 1    
     3   39    2 1    
     4   40    2 1    
     5   41    2 1    
     6    4    3 ar   
     7    8    3 ar   
     8   32    3 1    
     9    5    4 ar   
    10   33    4 1    
    11    6    5 ar   
    12   14    5 1    
    13    7    6 ar   
    14   34    6 1    
    15    8    7 ar   
    16   35    7 1    
    17   10    9 ar   
    18   14    9 ar   
    19   15    9 1    
    20   11   10 ar   
    21   22   10 1    
    22   12   11 ar   
    23   36   11 1    
    24   13   12 ar   
    25   37   12 1    
    26   14   13 ar   
    27   24   13 1    
    28   42   15 1    
    29   43   15 1    
    30   44   15 1    
    31   17   16 2    
    32   18   16 1    
    33   22   16 1    
    34   19   17 1    
    35   21   17 ar   
    36   20   18 2    
    37   38   18 1    
    38   20   19 1    
    39   28   19 1    
    40   23   22 2    
    41   25   24 2    
    42   26   24 2    
    43   27   24 1    
    44   45   27 1    
    45   46   27 1    
    46   47   27 1    
    47   29   28 1    
    48   30   28 1    
    49   31   28 1    
    50   48   29 1    
    51   49   29 1    
    52   50   29 1    
    53   51   30 1    
    54   52   30 1    
    55   53   30 1    
    56   54   31 1    
    57   55   31 1    
    58   56   31 1    
@<TRIPOS>SUBSTRUCTURE
     1 8691502     1 GROUP   
@<TRIPOS>SET

