#    Name: 1efp_AMP_2_INTS_M
#    Modification time : Mon Mar 24 23:42:53 2014

@<TRIPOS>MOLECULE
1efp_AMP_2_INTS_M
   71     0     9     0     0
SMALL
NO_CHARGES


@<TRIPOS>ATOM
      1 N          12.7990    2.9420   35.1875 N.am      2 SEC2        0.0000 
      2 N          12.8760    3.9420   34.0130 N.am      8 SEL2        0.0000 
      3 N          12.7220    1.9420   36.3620 N.am      5 SEP2        0.0000 
      4 N          11.8425    2.9550   34.0890 N.am      2 SEC2        0.0000 
      5 N          10.8090    1.9680   34.1650 N.am      5 SEP2        0.0000 
      6 N          11.7565    4.0415   33.1380 N.am      2 SEC2        0.0000 
      7 N          10.6370    4.1410   32.2630 N.am      5 SEP2        0.0000 
      8 N          14.5085    7.2150   34.4560 N.am      2 SEC2        0.0000 
      9 N          13.7230    6.2890   33.8210 N.am      8 SEL2        0.0000 
     10 N          15.2940    8.1410   35.0910 N.am      5 SEP2        0.0000 
     11 N          16.4060    4.8805   33.8490 N.am      2 SEC2        0.0000 
     12 N          15.2400    4.4790   34.5540 N.am      8 SEL2        0.0000 
     13 N          17.5720    5.2820   33.1440 N.am      5 SEP2        0.0000 
     14 N          15.1055    4.0045   35.8060 N.am      2 SEC2        0.0000 
     15 N          14.9710    3.5300   37.0580 N.am      5 SEP2        0.0000 
     16 CA         16.2220    3.0080   32.8345 C.3       3 GLC5        0.0000 
     17 CA         14.6300    3.0500   31.8440 C.3       9 GLL5        0.0000 
     18 CA         17.8140    2.9660   33.8250 C.3       6 GLP5        0.0000 
     19 CA         14.1135    1.0680   29.2105 C.3       3 GLC5        0.0000 
     20 CA         14.4840    2.7920   30.3400 C.3       9 GLL5        0.0000 
     21 CA         13.7430   -0.6560   28.0810 C.3       6 GLP5        0.0000 
     22 O          17.2315    3.2360   28.3490 O.2       1 ALC1        0.0000 
     23 O          16.7160    3.4330   29.5980 O.2       7 ALL1        0.0000 
     24 O          17.7470    3.0390   27.1000 O.2       4 ALP1        0.0000 
     25 N          15.8445    1.2120   27.9840 N.am      2 SEC2        0.0000 
     26 N          14.9850    2.3620   27.6030 N.am      8 SEL2        0.0000 
     27 N          16.7040    0.0620   28.3650 N.am      5 SEP2        0.0000 
     28 O          15.1310    2.4885   26.1240 O.2       1 ALC1        0.0000 
     29 O          14.9850    2.3620   27.6030 O.2       7 ALL1        0.0000 
     30 O          15.2770    2.6150   24.6450 O.2       4 ALP1        0.0000 
     31 O          16.3660    2.7005   27.3515 O.2       1 ALC1        0.0000 
     32 CA         11.5360    3.1990   29.5355 C.3       3 GLC5        0.0000 
     33 CA         13.2340    3.7220   28.5370 C.3       9 GLL5        0.0000 
     34 CA          9.8380    2.6760   30.5340 C.3       6 GLP5        0.0000 
     35 CA         13.6865    8.2420   28.6055 C.3       3 GLC5        0.0000 
     36 CA         12.1040    7.1380   28.0630 C.3       9 GLL5        0.0000 
     37 CA         15.2690    9.3460   29.1480 C.3       6 GLP5        0.0000 
     38 CA         13.6540    8.8250   27.4240 C.3       3 GLC5        0.0000 
     39 CA         11.7770    8.1390   27.1680 C.3       9 GLL5        0.0000 
     40 CA         15.5310    9.5110   27.6800 C.3       6 GLP5        0.0000 
     41 CA         10.1815    8.8235   25.9295 C.3       3 GLC5        0.0000 
     42 CA          8.5860    9.5080   24.6910 C.3       6 GLP5        0.0000 
     43 CA         10.1195    8.0345   28.2145 C.3       3 GLC5        0.0000 
     44 CA          8.4620    7.9300   29.2610 C.3       6 GLP5        0.0000 
     45 O          11.2360   10.3175   26.4410 O.2       1 ALC1        0.0000 
     46 O          11.4550    9.3580   27.6180 O.2       7 ALL1        0.0000 
     47 O          11.0170   11.2770   25.2640 O.2       4 ALP1        0.0000 
     48 N          11.2235    8.5675   24.5850 N.am      2 SEC2        0.0000 
     49 N          11.8340    7.8320   25.8530 N.am      8 SEL2        0.0000 
     50 N          10.6130    9.3030   23.3170 N.am      5 SEP2        0.0000 
     51 CA         12.2880    4.4565   25.2375 C.3       3 GLC5        0.0000 
     52 CA         12.1950    6.6160   25.4580 C.3       9 GLL5        0.0000 
     53 CA         12.3810    2.2970   25.0170 C.3       6 GLP5        0.0000 
     54 CA         14.0630    5.8555   24.5490 C.3       3 GLC5        0.0000 
     55 CA         15.9310    5.0950   23.6400 C.3       6 GLP5        0.0000 
     56 CA         14.2085    7.4840   25.4910 C.3       3 GLC5        0.0000 
     57 CA         16.2220    8.3520   25.5240 C.3       6 GLP5        0.0000 
     58 CA         12.0410    7.2675   23.6385 C.3       3 GLC5        0.0000 
     59 CA         11.8870    7.9190   21.8190 C.3       6 GLP5        0.0000 
     60 CA         10.1935    7.3765   24.7965 C.3       3 GLC5        0.0000 
     61 CA          8.1920    8.1370   24.1350 C.3       6 GLP5        0.0000 
     62 CA         12.4235    4.1100   26.2715 C.3       3 GLC5        0.0000 
     63 CA         12.4660    5.9230   27.5260 C.3       9 GLL5        0.0000 
     64 CA         14.2405    7.0775   27.2805 C.3       3 GLC5        0.0000 
     65 CA         16.0150    8.2320   27.0350 C.3       6 GLP5        0.0000 
     66 CA         12.6015    2.8495   31.4540 C.3       3 GLC5        0.0000 
     67 CA         10.6460    2.7780   31.8160 C.3       6 GLP5        0.0000 
     68 CA         13.1780    2.9937   26.6800 C.3       3 GLC5        0.0000 
     69 CA         13.8590    1.5172   28.2120 C.3       3 GLC5        0.0000 
     70 CA         10.4875    6.0818   28.0902 C.3       3 GLC5        0.0000 
     71 CA          8.6900    5.6330   28.3860 C.3       6 GLP5        0.0000 
@<TRIPOS>BOND
@<TRIPOS>SUBSTRUCTURE
     1 ALC1       22 GROUP        1 X    ALC  0     ROOT ALC X 1
     2 SEC2        1 GROUP        1 X    SEC  0     **** SEC X 2
     3 GLC5       16 GROUP        1 X    GLC  0     **** GLC X 6
     4 ALP1       24 GROUP        1 Y    ALP  0     ROOT ALP Y 8
     5 SEP2        3 GROUP        1 Y    SEP  0     **** SEP Y 9
     6 GLP5       18 GROUP        1 Y    GLP  0     **** GLP Y 13
     7 ALL1       23 GROUP        1 Z    ALL  0     ROOT ALL Z 15
     8 SEL2        2 GROUP        1 Z    SEL  0     **** SEL Z 16
     9 GLL5       17 GROUP        1 Z    GLL  0     **** GLL Z 20
@<TRIPOS>SET

