#    Name: 1efp_AMP_2_ligand
#    Modification time : Mon Mar 24 23:42:53 2014

@<TRIPOS>MOLECULE
1efp_AMP_2_ligand
   35    37     1     0     0
SMALL
NO_CHARGES


@<TRIPOS>ATOM
      1 P          14.0360    4.8370   33.7880 P.3       1 AMP400      0.0000 
      2 O1P        12.8760    3.9420   34.0130 O.co2     1 AMP400      0.0000 
      3 O2P        13.7230    6.2890   33.8210 O.co2     1 AMP400      0.0000 
      4 O3P        15.2400    4.4790   34.5540 O.co2     1 AMP400      0.0000 
      5 O5'        14.4190    4.4300   32.2840 O.3       1 AMP400      0.0000 
      6 C5'        14.6300    3.0500   31.8440 C.3       1 AMP400      0.0000 
      7 C4'        14.4840    2.7920   30.3400 C.3       1 AMP400      0.0000 
      8 O4'        13.1780    3.0640   29.8300 O.3       1 AMP400      0.0000 
      9 C3'        15.3170    3.8070   29.5500 C.3       1 AMP400      0.0000 
     10 O3'        16.7160    3.4330   29.5980 O.3       1 AMP400      0.0000 
     11 C2'        14.7160    3.6590   28.1490 C.3       1 AMP400      0.0000 
     12 O2'        14.9850    2.3620   27.6030 O.3       1 AMP400      0.0000 
     13 C1'        13.2340    3.7220   28.5370 C.3       1 AMP400      0.0000 
     14 N9         12.7660    5.1250   28.5840 N.pl3     1 AMP400      0.0000 
     15 C8         12.5490    5.9370   29.6800 C.2       1 AMP400      0.0000 
     16 N7         12.1500    7.1550   29.4420 N.2       1 AMP400      0.0000 
     17 C5         12.1040    7.1380   28.0630 C.ar      1 AMP400      0.0000 
     18 C6         11.7770    8.1390   27.1680 C.ar      1 AMP400      0.0000 
     19 N6         11.4550    9.3580   27.6180 N.pl3     1 AMP400      0.0000 
     20 N1         11.8340    7.8320   25.8530 N.ar      1 AMP400      0.0000 
     21 C2         12.1950    6.6160   25.4580 C.ar      1 AMP400      0.0000 
     22 N3         12.5310    5.5920   26.2090 N.ar      1 AMP400      0.0000 
     23 C4         12.4660    5.9230   27.5260 C.ar      1 AMP400      0.0000 
     24 H          13.9225    2.3637   32.3729 H         1 AMP400      0.0000 
     25 H          15.6478    2.6992   32.1479 H         1 AMP400      0.0000 
     26 H          14.8206    1.8287   30.0815 H         1 AMP400      0.0000 
     27 H          15.1063    4.7626   29.9153 H         1 AMP400      0.0000 
     28 H          14.9513    4.4654   27.5769 H         1 AMP400      0.0000 
     29 H          12.6914    3.1551   27.8072 H         1 AMP400      0.0000 
     30 H          12.7051    5.5640   30.6210 H         1 AMP400      0.0000 
     31 H          11.2549   10.0459   26.9203 H         1 AMP400      0.0000 
     32 H          11.4435    9.4714   28.6115 H         1 AMP400      0.0000 
     33 H          12.2130    6.4520   24.3660 H         1 AMP400      0.0000 
     34 H          16.9909    3.3362   28.6414 H         1 AMP400      0.0000 
     35 H          15.6984    2.5123   26.9186 H         1 AMP400      0.0000 
@<TRIPOS>BOND
     1    2    1 ar   
     2    3    1 ar   
     3    4    1 ar   
     4    5    1 1    
     5    6    5 1    
     6    7    6 1    
     7   24    6 1    
     8   25    6 1    
     9    8    7 1    
    10    9    7 1    
    11   26    7 1    
    12   13    8 1    
    13   10    9 1    
    14   11    9 1    
    15   27    9 1    
    16   34   10 1    
    17   12   11 1    
    18   13   11 1    
    19   28   11 1    
    20   35   12 1    
    21   14   13 1    
    22   29   13 1    
    23   15   14 1    
    24   23   14 1    
    25   16   15 2    
    26   30   15 1    
    27   17   16 1    
    28   18   17 ar   
    29   23   17 ar   
    30   19   18 1    
    31   20   18 ar   
    32   31   19 1    
    33   32   19 1    
    34   21   20 ar   
    35   22   21 ar   
    36   33   21 1    
    37   23   22 ar   
@<TRIPOS>SUBSTRUCTURE
     1 AMP400      1 GROUP   
@<TRIPOS>SET

