#    Name: 3sor_O58_1_INTS_M
#    Modification time : Mon Mar 24 18:00:34 2014

@<TRIPOS>MOLECULE
3sor_O58_1_INTS_M
   72     0     6     0     0
SMALL
NO_CHARGES


@<TRIPOS>ATOM
      1 CA         -7.0670  -14.4240   14.5895 C.3       2 GLC5        0.0000 
      2 CA         -6.4720  -13.9430   12.4940 C.3       6 GLL5        0.0000 
      3 CA         -7.6620  -14.9050   16.6850 C.3       4 GLP5        0.0000 
      4 CA         -5.4385  -12.8955   10.9015 C.3       2 GLC5        0.0000 
      5 CA         -4.4050  -11.8480    9.3090 C.3       4 GLP5        0.0000 
      6 CA         -5.4655  -14.9715   14.2065 C.3       2 GLC5        0.0000 
      7 CA         -4.4590  -16.0000   15.9190 C.3       4 GLP5        0.0000 
      8 CA         -8.8740  -10.3590   13.9050 C.3       2 GLC5        0.0000 
      9 CA         -8.4220   -9.8400   12.0670 C.3       6 GLL5        0.0000 
     10 CA         -9.3260  -10.8780   15.7430 C.3       4 GLP5        0.0000 
     11 CA        -10.1245  -10.5005   12.5440 C.3       2 GLC5        0.0000 
     12 CA        -11.8270  -11.1610   13.0210 C.3       4 GLP5        0.0000 
     13 CA         -6.9265   -8.7590   11.8790 C.3       2 GLC5        0.0000 
     14 CA         -5.4310   -7.6780   11.6910 C.3       4 GLP5        0.0000 
     15 CA         -9.0290   -8.2040   12.8100 C.3       2 GLC5        0.0000 
     16 CA         -9.6360   -6.5680   13.5530 C.3       4 GLP5        0.0000 
     17 CA         -8.5530  -15.1895   14.8175 C.3       2 GLC5        0.0000 
     18 CA         -9.4440  -15.4740   12.9500 C.3       6 GLL5        0.0000 
     19 CA         -9.3775  -16.8375   14.2850 C.3       2 GLC5        0.0000 
     20 CA         -9.3110  -18.2010   15.6200 C.3       4 GLP5        0.0000 
     21 CA        -11.3905  -15.0505   12.1800 C.3       2 GLC5        0.0000 
     22 CA        -13.3370  -14.6270   11.4100 C.3       4 GLP5        0.0000 
     23 N         -11.6510  -17.2085   14.4605 N.am      1 SEC2        0.0000 
     24 N         -11.5800  -16.4600   13.1920 N.am      5 SEL2        0.0000 
     25 N         -11.7220  -17.9570   15.7290 N.am      3 SEP2        0.0000 
     26 N         -12.5745  -15.4085   13.5365 N.am      1 SEC2        0.0000 
     27 N         -13.5690  -14.3570   13.8810 N.am      3 SEP2        0.0000 
     28 N         -12.6985  -16.2000   12.2965 N.am      1 SEC2        0.0000 
     29 N         -13.8170  -15.9400   11.4010 N.am      3 SEP2        0.0000 
     30 CA        -12.3380  -16.4460   11.2765 C.3       2 GLC5        0.0000 
     31 CA        -11.3390  -18.2650   11.1430 C.3       6 GLL5        0.0000 
     32 CA        -10.9210  -19.4715   14.6955 C.3       2 GLC5        0.0000 
     33 CA        -12.5310  -20.7420   13.7710 C.3       6 GLL5        0.0000 
     34 CA        -12.2815  -19.7975   15.2900 C.3       2 GLC5        0.0000 
     35 CA        -11.5220  -21.5960   14.2360 C.3       6 GLL5        0.0000 
     36 CA        -13.0410  -17.9990   16.3440 C.3       4 GLP5        0.0000 
     37 CA        -16.5870  -21.1960   10.2760 C.3       2 GLC5        0.0000 
     38 CA        -14.7960  -20.4670    9.4550 C.3       6 GLL5        0.0000 
     39 CA        -18.3780  -21.9250   11.0970 C.3       4 GLP5        0.0000 
     40 CA        -16.2175  -19.3255    8.6150 C.3       2 GLC5        0.0000 
     41 CA        -17.6390  -18.1840    7.7750 C.3       4 GLP5        0.0000 
     42 CA        -12.8545  -18.8320    8.0710 C.3       2 GLC5        0.0000 
     43 CA        -12.1930  -20.8150    8.5330 C.3       6 GLL5        0.0000 
     44 CA        -13.5160  -16.8490    7.6090 C.3       4 GLP5        0.0000 
     45 CA        -13.8170  -22.8255   18.2590 C.3       2 GLC5        0.0000 
     46 CA        -13.4560  -23.8270   16.6900 C.3       6 GLL5        0.0000 
     47 CA        -14.1780  -21.8240   19.8280 C.3       4 GLP5        0.0000 
     48 N         -10.6705  -24.8850   17.4315 N.am      1 SEC2        0.0000 
     49 N         -12.0580  -25.6370   17.2500 N.am      5 SEL2        0.0000 
     50 N          -9.2830  -24.1330   17.6130 N.am      3 SEP2        0.0000 
     51 CA         -6.2125   -9.5548   12.0680 C.3       2 GLC5        0.0000 
     52 CA         -7.6600  -11.3770   12.2450 C.3       6 GLL5        0.0000 
     53 CA         -9.9270  -11.5565   12.5585 C.3       2 GLC5        0.0000 
     54 CA         -8.0200  -12.1735   10.1940 C.3       2 GLC5        0.0000 
     55 CA         -8.3940  -12.5270   11.9470 C.3       6 GLL5        0.0000 
     56 CA         -8.0130  -12.3950    8.2920 C.3       4 GLP5        0.0000 
     57 CA         -5.6261  -11.7981   10.8932 C.3       2 GLC5        0.0000 
     58 CA         -8.5100  -11.4286   13.9695 C.3       2 GLC5        0.0000 
     59 CA         -6.3280  -11.4860   12.6450 C.3       6 GLL5        0.0000 
     60 CA         -8.1493  -13.3837   10.0905 C.3       2 GLC5        0.0000 
     61 CA         -7.8220  -13.8080   12.0670 C.3       6 GLL5        0.0000 
     62 CA        -12.4390  -17.6633    9.0045 C.3       2 GLC5        0.0000 
     63 CA        -13.6208  -21.4877   17.2617 C.3       2 GLC5        0.0000 
     64 CA        -14.1210  -21.8980   15.2120 C.3       6 GLL5        0.0000 
     65 CA        -13.6180  -20.6470   19.0810 C.3       4 GLP5        0.0000 
     66 CA        -13.3448  -19.6804   15.4793 C.3       2 GLC5        0.0000 
     67 CA        -10.1295  -20.8265   15.1738 C.3       2 GLC5        0.0000 
     68 CA         -8.5860  -19.5570   15.6400 C.3       4 GLP5        0.0000 
     69 CA        -15.8018  -18.7355   10.5045 C.3       2 GLC5        0.0000 
     70 CA        -13.8050  -19.5270    9.7750 C.3       6 GLL5        0.0000 
     71 CA        -17.3030  -17.4740   11.3940 C.3       4 GLP5        0.0000 
     72 CA        -13.7426  -18.4435    8.5554 C.3       2 GLC5        0.0000 
@<TRIPOS>BOND
@<TRIPOS>SUBSTRUCTURE
     1 SEC2       23 GROUP        1 X    SEC  0     ROOT SEC X 2
     2 GLC5        1 GROUP        1 X    GLC  0     **** GLC X 6
     3 SEP2       25 GROUP        1 Y    SEP  0     ROOT SEP Y 9
     4 GLP5        3 GROUP        1 Y    GLP  0     **** GLP Y 13
     5 SEL2       24 GROUP        1 Z    SEL  0     ROOT SEL Z 16
     6 GLL5        2 GROUP        1 Z    GLL  0     **** GLL Z 20
@<TRIPOS>SET

