#    Name: 3sor_O58_1_ligand
#    Modification time : Mon Mar 24 18:00:34 2014

@<TRIPOS>MOLECULE
3sor_O58_1_ligand
   62    65     1     0     0
SMALL
NO_CHARGES


@<TRIPOS>ATOM
      1 C1         -5.7410  -12.7530   12.7750 C.ar      1 O58626      0.0000 
      2 C2         -6.3280  -11.4860   12.6450 C.ar      1 O58626      0.0000 
      3 C3         -7.6600  -11.3770   12.2450 C.ar      1 O58626      0.0000 
      4 C4         -8.3940  -12.5270   11.9470 C.ar      1 O58626      0.0000 
      5 C5         -7.8220  -13.8080   12.0670 C.ar      1 O58626      0.0000 
      6 C6         -6.4720  -13.9430   12.4940 C.ar      1 O58626      0.0000 
      7 N7         -5.8330  -15.2430   12.5930 N.pl3     1 O58626      0.0000 
      8 C8         -4.6200  -15.6540   12.0810 C.2       1 O58626      0.0000 
      9 N9         -4.4050  -16.9180   12.3680 N.2       1 O58626      0.0000 
     10 N10        -5.5050  -17.3310   13.0520 N.2       1 O58626      0.0000 
     11 N11        -6.3690  -16.3430   13.1790 N.2       1 O58626      0.0000 
     12 CL12       -8.4220   -9.8400   12.0670 Cl        1 O58626      0.0000 
     13 C13        -8.7490  -14.9370   11.7110 C.3       1 O58626      0.0000 
     14 C14        -9.4440  -15.4740   12.9500 C.3       1 O58626      0.0000 
     15 C15       -10.5290  -16.4490   12.5820 C.2       1 O58626      0.0000 
     16 N16       -10.2790  -17.3120   11.5280 N.am      1 O58626      0.0000 
     17 O17       -11.5800  -16.4600   13.1920 O.2       1 O58626      0.0000 
     18 C18       -11.3390  -18.2650   11.1430 C.3       1 O58626      0.0000 
     19 C19       -11.1420  -19.5320   11.9900 C.2       1 O58626      0.0000 
     20 O20       -10.1200  -20.2130   11.8490 O.2       1 O58626      0.0000 
     21 N21       -12.2260  -19.7350   12.8270 N.am      1 O58626      0.0000 
     22 C22       -12.5310  -20.7420   13.7710 C.ar      1 O58626      0.0000 
     23 C23       -13.8210  -20.9090   14.2630 C.ar      1 O58626      0.0000 
     24 C24       -14.1210  -21.8980   15.2120 C.ar      1 O58626      0.0000 
     25 C25       -13.1260  -22.7590   15.6730 C.ar      1 O58626      0.0000 
     26 C26       -11.8240  -22.5960   15.1790 C.ar      1 O58626      0.0000 
     27 C27       -11.5220  -21.5960   14.2360 C.ar      1 O58626      0.0000 
     28 C28       -11.3850  -18.6900    9.6570 C.3       1 O58626      0.0000 
     29 C29       -12.4800  -19.6910    9.3220 C.ar      1 O58626      0.0000 
     30 C30       -13.8050  -19.5270    9.7750 C.ar      1 O58626      0.0000 
     31 C31       -14.7960  -20.4670    9.4550 C.ar      1 O58626      0.0000 
     32 C32       -14.4870  -21.5740    8.6600 C.ar      1 O58626      0.0000 
     33 C33       -13.1840  -21.7550    8.1980 C.ar      1 O58626      0.0000 
     34 C34       -12.1930  -20.8150    8.5330 C.ar      1 O58626      0.0000 
     35 C35       -13.4560  -23.8270   16.6900 C.3       1 O58626      0.0000 
     36 C36       -12.9890  -25.2220   16.3580 C.2       1 O58626      0.0000 
     37 O37       -12.0580  -25.6370   17.2500 O.co2     1 O58626      0.0000 
     38 O38       -13.3440  -25.9520   15.4500 O.co2     1 O58626      0.0000 
     39 H          -4.7596  -12.8351   13.0800 H         1 O58626      0.0000 
     40 H          -5.7778  -10.6455   12.8438 H         1 O58626      0.0000 
     41 H          -9.3740  -12.4417   11.6327 H         1 O58626      0.0000 
     42 H          -4.0267  -15.0576   11.5777 H         1 O58626      0.0000 
     43 H          -8.1829  -15.7440   11.2408 H         1 O58626      0.0000 
     44 H          -9.5024  -14.5855   11.0027 H         1 O58626      0.0000 
     45 H          -9.8745  -14.6385   13.5087 H         1 O58626      0.0000 
     46 H          -8.7062  -15.9685   13.5877 H         1 O58626      0.0000 
     47 H          -9.4182  -17.3225   11.0151 H         1 O58626      0.0000 
     48 H         -12.3184  -17.8703   11.4149 H         1 O58626      0.0000 
     49 H         -13.0212  -18.9544   12.7477 H         1 O58626      0.0000 
     50 H         -14.5818  -20.2916   13.9243 H         1 O58626      0.0000 
     51 H         -15.0822  -21.9852   15.5674 H         1 O58626      0.0000 
     52 H         -11.0718  -23.2196   15.5116 H         1 O58626      0.0000 
     53 H         -10.5631  -21.4945   13.8909 H         1 O58626      0.0000 
     54 H         -10.4043  -19.1183    9.3882 H         1 O58626      0.0000 
     55 H         -11.5177  -17.7842    9.0411 H         1 O58626      0.0000 
     56 H         -14.0452  -18.7064   10.3474 H         1 O58626      0.0000 
     57 H         -15.7521  -20.3389    9.8077 H         1 O58626      0.0000 
     58 H         -15.2182  -22.2511    8.4177 H         1 O58626      0.0000 
     59 H         -12.9453  -22.5629    7.6199 H         1 O58626      0.0000 
     60 H         -11.2271  -20.9575    8.1877 H         1 O58626      0.0000 
     61 H         -14.5602  -23.8443   16.8455 H         1 O58626      0.0000 
     62 H         -13.0266  -23.5283   17.6750 H         1 O58626      0.0000 
@<TRIPOS>BOND
     1    2    1 ar   
     2    6    1 ar   
     3   39    1 1    
     4    3    2 ar   
     5   40    2 1    
     6    4    3 ar   
     7   12    3 1    
     8    5    4 ar   
     9   41    4 1    
    10    6    5 ar   
    11   13    5 1    
    12    7    6 1    
    13    8    7 1    
    14   11    7 1    
    15    9    8 2    
    16   42    8 1    
    17   10    9 1    
    18   11   10 2    
    19   14   13 1    
    20   43   13 1    
    21   44   13 1    
    22   15   14 1    
    23   45   14 1    
    24   46   14 1    
    25   16   15 am   
    26   17   15 2    
    27   18   16 1    
    28   47   16 1    
    29   19   18 1    
    30   28   18 1    
    31   48   18 1    
    32   20   19 2    
    33   21   19 am   
    34   22   21 1    
    35   49   21 1    
    36   23   22 ar   
    37   27   22 ar   
    38   24   23 ar   
    39   50   23 1    
    40   25   24 ar   
    41   51   24 1    
    42   26   25 ar   
    43   35   25 1    
    44   27   26 ar   
    45   52   26 1    
    46   53   27 1    
    47   29   28 1    
    48   54   28 1    
    49   55   28 1    
    50   30   29 ar   
    51   34   29 ar   
    52   31   30 ar   
    53   56   30 1    
    54   32   31 ar   
    55   57   31 1    
    56   33   32 ar   
    57   58   32 1    
    58   34   33 ar   
    59   59   33 1    
    60   60   34 1    
    61   36   35 1    
    62   61   35 1    
    63   62   35 1    
    64   37   36 ar   
    65   38   36 ar   
@<TRIPOS>SUBSTRUCTURE
     1 O58626      1 GROUP   
@<TRIPOS>SET

