#    Name: 1wuu_ANP_2_INTS_M
#    Modification time : Tue Mar 25 09:19:52 2014

@<TRIPOS>MOLECULE
1wuu_ANP_2_INTS_M
   67     0    12     0     0
SMALL
NO_CHARGES


@<TRIPOS>ATOM
      1 Zn         62.0725   61.1540   43.7190 Zn        3 ZIC7        0.0000 
      2 Zn         62.0510   62.0560   44.2340 Zn       11 ZIL7        0.0000 
      3 Zn         62.0940   60.2520   43.2040 Zn        7 ZIP7        0.0000 
      4 N          61.2310   64.2995   46.9280 N.am      1 SEC2        0.0000 
      5 N          61.3270   64.1090   45.4520 N.am      9 SEL2        0.0000 
      6 N          61.1350   64.4900   48.4040 N.am      5 SEP2        0.0000 
      7 NZ         58.0960   62.3520   44.7205 N.4       2 LYC4        0.0000 
      8 NZ         59.6500   62.7030   44.0430 N.4      10 LYL4        0.0000 
      9 NZ         56.5420   62.0010   45.3980 N.4       6 LYP4        0.0000 
     10 Zn         61.9395   61.1980   42.2895 Zn        3 ZIC7        0.0000 
     11 Zn         61.7850   62.1440   41.3750 Zn       11 ZIL7        0.0000 
     12 N          61.8310   62.8535   39.8550 N.am      1 SEC2        0.0000 
     13 N          61.7850   62.1440   41.3750 N.am      9 SEL2        0.0000 
     14 N          61.8770   63.5630   38.3350 N.am      5 SEP2        0.0000 
     15 N          61.4090   61.2205   40.1300 N.am      1 SEC2        0.0000 
     16 N          61.0330   60.2970   38.8850 N.am      5 SEP2        0.0000 
     17 N          60.8380   63.4370   39.8875 N.am      1 SEC2        0.0000 
     18 N          61.9680   64.4580   40.4510 N.am      9 SEL2        0.0000 
     19 N          59.7080   62.4160   39.3240 N.am      5 SEP2        0.0000 
     20 N          61.9225   64.0105   39.3930 N.am      1 SEC2        0.0000 
     21 N          62.7730   65.2110   39.9105 N.am      1 SEC2        0.0000 
     22 N          63.5780   65.9640   39.3700 N.am      5 SEP2        0.0000 
     23 N          61.8950   66.0005   40.6960 N.am      1 SEC2        0.0000 
     24 N          61.8220   67.5430   40.9410 N.am      5 SEP2        0.0000 
     25 Zn         63.0895   60.6075   42.3300 Zn        3 ZIC7        0.0000 
     26 Zn         64.0850   60.9630   41.4560 Zn       11 ZIL7        0.0000 
     27 CA         62.7525   62.6910   38.1520 C.3       4 GLC5        0.0000 
     28 CA         64.6460   62.0720   38.9030 C.3      12 GLL5        0.0000 
     29 CA         60.8590   63.3100   37.4010 C.3       8 GLP5        0.0000 
     30 CA         63.6460   60.4930   39.5240 C.3       4 GLC5        0.0000 
     31 CA         62.6460   58.9140   40.1450 C.3       8 GLP5        0.0000 
     32 CA         66.4470   59.9085   37.7680 C.3       4 GLC5        0.0000 
     33 CA         65.7400   61.6800   37.9470 C.3      12 GLL5        0.0000 
     34 CA         67.1540   58.1370   37.5890 C.3       8 GLP5        0.0000 
     35 CA         65.3295   64.3505   36.4795 C.3       4 GLC5        0.0000 
     36 CA         66.1900   62.7450   36.9540 C.3      12 GLL5        0.0000 
     37 CA         64.4690   65.9560   36.0050 C.3       8 GLP5        0.0000 
     38 N          67.6800   64.7255   38.4660 N.am      1 SEC2        0.0000 
     39 N          67.2010   63.5960   37.5130 N.am      9 SEL2        0.0000 
     40 N          68.1590   65.8550   39.4190 N.am      5 SEP2        0.0000 
     41 CA         65.9425   63.5805   34.7920 C.3       4 GLC5        0.0000 
     42 CA         66.7240   61.8320   35.8780 C.3      12 GLL5        0.0000 
     43 CA         65.1610   65.3290   33.7060 C.3       8 GLP5        0.0000 
     44 CA         64.6210   59.0430   34.9635 C.3       4 GLC5        0.0000 
     45 CA         65.7070   60.7000   35.8840 C.3      12 GLL5        0.0000 
     46 CA         63.5350   57.3860   34.0430 C.3       8 GLP5        0.0000 
     47 CA         63.6765   61.9050   30.2285 C.3       4 GLC5        0.0000 
     48 CA         62.9530   61.5340   32.0190 C.3      12 GLL5        0.0000 
     49 CA         64.4000   62.2760   28.4380 C.3       8 GLP5        0.0000 
     50 CA         62.2370   60.6460   30.4430 C.3       4 GLC5        0.0000 
     51 CA         61.5210   59.7580   28.8670 C.3       8 GLP5        0.0000 
     52 CA         62.3945   59.4500   32.1000 C.3       4 GLC5        0.0000 
     53 CA         61.8360   57.3660   32.1810 C.3       8 GLP5        0.0000 
     54 CA         64.8795   61.7900   30.0860 C.3       4 GLC5        0.0000 
     55 CA         65.3590   61.3040   31.7340 C.3      12 GLL5        0.0000 
     56 CA         66.6310   62.8280   31.3485 C.3       4 GLC5        0.0000 
     57 CA         67.9030   64.3520   30.9630 C.3       8 GLP5        0.0000 
     58 CA         67.0970   60.6850   32.3090 C.3       4 GLC5        0.0000 
     59 CA         68.8350   60.0660   32.8840 C.3       8 GLP5        0.0000 
     60 CA         65.2600   63.3165   32.7200 C.3       4 GLC5        0.0000 
     61 CA         67.5252   60.6660   34.3825 C.3       4 GLC5        0.0000 
     62 CA         66.6847   59.7015   36.7350 C.3       4 GLC5        0.0000 
     63 CA         63.7105   59.3385   33.8092 C.3       4 GLC5        0.0000 
     64 CA         63.2300   61.3720   33.3850 C.3      12 GLL5        0.0000 
     65 CA         63.3974   62.9567   33.9000 C.3       4 GLC5        0.0000 
     66 CA         64.5420   61.2100   33.7660 C.3      12 GLL5        0.0000 
     67 CA         62.9780   64.5820   34.5660 C.3       8 GLP5        0.0000 
@<TRIPOS>BOND
@<TRIPOS>SUBSTRUCTURE
     1 SEC2        4 GROUP        1 X    SEC  0     ROOT SEC X 2
     2 LYC4        7 GROUP        1 X    LYC  0     **** LYC X 4
     3 ZIC7        1 GROUP        1 X    ZIC  0     **** ZIC X 5
     4 GLC5       27 GROUP        1 X    GLC  0     **** GLC X 6
     5 SEP2        6 GROUP        1 Y    SEP  0     ROOT SEP Y 9
     6 LYP4        9 GROUP        1 Y    LYP  0     **** LYP Y 11
     7 ZIP7        3 GROUP        1 Y    ZIP  0     **** ZIP Y 12
     8 GLP5       29 GROUP        1 Y    GLP  0     **** GLP Y 13
     9 SEL2        5 GROUP        1 Z    SEL  0     ROOT SEL Z 16
    10 LYL4        8 GROUP        1 Z    LYL  0     **** LYL Z 18
    11 ZIL7        2 GROUP        1 Z    ZIL  0     **** ZIL Z 19
    12 GLL5       28 GROUP        1 Z    GLL  0     **** GLL Z 20
@<TRIPOS>SET

