#    Name: 1wuu_ANP_2_ligand
#    Modification time : Tue Mar 25 09:19:52 2014

@<TRIPOS>MOLECULE
1wuu_ANP_2_ligand
   42    44     1     0     0
SMALL
NO_CHARGES


@<TRIPOS>ATOM
      1 PG         61.1430   63.2490   44.2130 P.3       1 ANP395      0.0000 
      2 O1G        62.0510   62.0560   44.2340 O.co2     1 ANP395      0.0000 
      3 O2G        61.3270   64.1090   45.4520 O.co2     1 ANP395      0.0000 
      4 O3G        59.6500   62.7030   44.0430 O.co2     1 ANP395      0.0000 
      5 PB         62.2440   63.5530   41.6380 P.3       1 ANP395      0.0000 
      6 O1B        61.7850   62.1440   41.3750 O.co2     1 ANP395      0.0000 
      7 O2B        61.9680   64.4580   40.4510 O.co2     1 ANP395      0.0000 
      8 N3B        61.5150   64.1010   42.9320 N.4       1 ANP395      0.0000 
      9 PA         64.7930   62.2920   41.4620 P.3       1 ANP395      0.0000 
     10 O1A        66.0040   62.2190   42.3330 O.co2     1 ANP395      0.0000 
     11 O2A        64.0850   60.9630   41.4560 O.co2     1 ANP395      0.0000 
     12 O3A        63.7940   63.4400   41.9490 O.3       1 ANP395      0.0000 
     13 O5'        65.2790   62.7160   40.0070 O.3       1 ANP395      0.0000 
     14 C5'        64.6460   62.0720   38.9030 C.3       1 ANP395      0.0000 
     15 C4'        65.7400   61.6800   37.9470 C.3       1 ANP395      0.0000 
     16 O4'        65.2890   60.5480   37.1650 O.3       1 ANP395      0.0000 
     17 C3'        66.1900   62.7450   36.9540 C.3       1 ANP395      0.0000 
     18 O3'        67.2010   63.5960   37.5130 O.3       1 ANP395      0.0000 
     19 C2'        66.7240   61.8320   35.8780 C.3       1 ANP395      0.0000 
     20 O2'        68.0340   61.3520   36.2440 O.3       1 ANP395      0.0000 
     21 C1'        65.7070   60.7000   35.8840 C.3       1 ANP395      0.0000 
     22 N9         64.5310   61.0370   35.1220 N.pl3     1 ANP395      0.0000 
     23 C8         63.2340   61.1770   35.5230 C.2       1 ANP395      0.0000 
     24 N7         62.3840   61.3490   34.4920 N.2       1 ANP395      0.0000 
     25 C5         63.2300   61.3720   33.3850 C.ar      1 ANP395      0.0000 
     26 C6         62.9530   61.5340   32.0190 C.ar      1 ANP395      0.0000 
     27 N6         61.8400   61.6880   31.4760 N.pl3     1 ANP395      0.0000 
     28 N1         64.0810   61.4720   31.2660 N.ar      1 ANP395      0.0000 
     29 C2         65.3590   61.3040   31.7340 C.ar      1 ANP395      0.0000 
     30 N3         65.6430   61.1670   32.9870 N.ar      1 ANP395      0.0000 
     31 C4         64.5420   61.2100   33.7660 C.ar      1 ANP395      0.0000 
     32 H          63.9585   62.7371   38.3883 H         1 ANP395      0.0000 
     33 H          64.1161   61.1747   39.2094 H         1 ANP395      0.0000 
     34 H          66.6187   61.3661   38.5219 H         1 ANP395      0.0000 
     35 H          65.3376   63.2330   36.5919 H         1 ANP395      0.0000 
     36 H          66.6865   62.3234   34.9563 H         1 ANP395      0.0000 
     37 H          66.1734   59.8231   35.4981 H         1 ANP395      0.0000 
     38 H          62.9562   61.1533   36.4747 H         1 ANP395      0.0000 
     39 H          66.1368   61.2903   30.9984 H         1 ANP395      0.0000 
     40 H          67.5666   64.1082   36.7359 H         1 ANP395      0.0000 
     41 H          68.3771   62.0169   36.9076 H         1 ANP395      0.0000 
     42 H          62.0303   62.1950   30.6353 H         1 ANP395      0.0000 
@<TRIPOS>BOND
     1    2    1 ar   
     2    3    1 ar   
     3    4    1 ar   
     4    8    1 1    
     5    6    5 ar   
     6    7    5 ar   
     7    8    5 1    
     8   12    5 1    
     9   10    9 ar   
    10   11    9 ar   
    11   12    9 1    
    12   13    9 1    
    13   14   13 1    
    14   15   14 1    
    15   32   14 1    
    16   33   14 1    
    17   16   15 1    
    18   17   15 1    
    19   34   15 1    
    20   21   16 1    
    21   18   17 1    
    22   19   17 1    
    23   35   17 1    
    24   40   18 1    
    25   20   19 1    
    26   21   19 1    
    27   36   19 1    
    28   41   20 1    
    29   22   21 1    
    30   37   21 1    
    31   23   22 1    
    32   31   22 1    
    33   24   23 2    
    34   38   23 1    
    35   25   24 1    
    36   26   25 ar   
    37   31   25 ar   
    38   27   26 1    
    39   28   26 ar   
    40   42   27 1    
    41   29   28 ar   
    42   30   29 ar   
    43   39   29 1    
    44   31   30 ar   
@<TRIPOS>SUBSTRUCTURE
     1 ANP395      1 GROUP   
@<TRIPOS>SET

