#    Name: 3lm0_EBD_1_INTS_M
#    Modification time : Mon Mar 24 21:48:16 2014

@<TRIPOS>MOLECULE
3lm0_EBD_1_INTS_M
   65     0     9     0     0
SMALL
NO_CHARGES


@<TRIPOS>ATOM
      1 CA         24.7080   37.4875    3.1720 C.3       3 GLC5        0.0000 
      2 CA         23.9330   39.3500    2.9980 C.3       9 GLL5        0.0000 
      3 CA         25.4830   35.6250    3.3460 C.3       6 GLP5        0.0000 
      4 CA         23.1985   37.8500    4.1675 C.3       3 GLC5        0.0000 
      5 CA         22.4640   36.3500    5.3370 C.3       6 GLP5        0.0000 
      6 CA         22.0900   39.5710    5.2345 C.3       3 GLC5        0.0000 
      7 CA         23.4340   41.0320    4.6090 C.3       9 GLL5        0.0000 
      8 CA         20.7460   38.1100    5.8600 C.3       6 GLP5        0.0000 
      9 O          24.3670   37.0935    1.5555 O.2       1 ALC1        0.0000 
     10 O          23.5890   38.3560    2.1240 O.2       7 ALL1        0.0000 
     11 O          25.1450   35.8310    0.9870 O.2       4 ALP1        0.0000 
     12 CA         19.2670   39.9800   -0.3550 C.3       3 GLC5        0.0000 
     13 CA         20.2190   38.4660    0.6570 C.3       9 GLL5        0.0000 
     14 CA         18.3150   41.4940   -1.3670 C.3       6 GLP5        0.0000 
     15 N          20.3730   42.0910    7.5800 N.am      2 SEC2        0.0000 
     16 N          20.3240   41.9680    6.1440 N.am      8 SEL2        0.0000 
     17 N          20.4220   42.2140    9.0160 N.am      5 SEP2        0.0000 
     18 O          18.0595   42.0800    6.8725 O.2       1 ALC1        0.0000 
     19 O          19.1260   41.7030    5.9140 O.2       7 ALL1        0.0000 
     20 O          16.9930   42.4570    7.8310 O.2       4 ALP1        0.0000 
     21 CA         20.9620   42.7525    3.5045 C.3       3 GLC5        0.0000 
     22 CA         20.3580   40.9100    4.2520 C.3       9 GLL5        0.0000 
     23 CA         21.5660   44.5950    2.7570 C.3       6 GLP5        0.0000 
     24 CA         18.2945   41.7655    1.5085 C.3       3 GLC5        0.0000 
     25 CA         17.8030   40.2970    2.6350 C.3       9 GLL5        0.0000 
     26 CA         18.7860   43.2340    0.3820 C.3       6 GLP5        0.0000 
     27 CA         24.7800   43.4190    4.1760 C.3       3 GLC5        0.0000 
     28 CA         25.4310   42.3770    5.6420 C.3       9 GLL5        0.0000 
     29 CA         24.1290   44.4610    2.7100 C.3       6 GLP5        0.0000 
     30 CA         24.5060   44.1280    6.4090 C.3       3 GLC5        0.0000 
     31 CA         23.5810   45.8790    7.1760 C.3       6 GLP5        0.0000 
     32 CA         25.0925   42.7480    7.8265 C.3       3 GLC5        0.0000 
     33 CA         24.7540   43.1190   10.0110 C.3       6 GLP5        0.0000 
     34 CA         25.8140   40.5770    6.2685 C.3       3 GLC5        0.0000 
     35 CA         26.1970   38.7770    6.8950 C.3       6 GLP5        0.0000 
     36 CA         16.0735   37.9755   -0.7460 C.3       3 GLC5        0.0000 
     37 CA         17.3520   37.3850    0.4900 C.3       9 GLL5        0.0000 
     38 CA         14.7950   38.5660   -1.9820 C.3       6 GLP5        0.0000 
     39 CA         24.5263   42.6701    3.5061 C.3       3 GLC5        0.0000 
     40 CA         25.7190   40.5870    3.9350 C.3       9 GLL5        0.0000 
     41 CA         25.5602   39.8281    5.5986 C.3       3 GLC5        0.0000 
     42 CA         24.8220   41.3110    4.7300 C.3       9 GLL5        0.0000 
     43 CA         23.8475   36.4770    2.4840 C.3       3 GLC5        0.0000 
     44 CA         22.3770   38.0110    1.6460 C.3       9 GLL5        0.0000 
     45 CA         22.3380   36.8395    3.4795 C.3       3 GLC5        0.0000 
     46 CA         22.0470   36.6470    1.5980 C.3       9 GLL5        0.0000 
     47 CA         19.3700   35.7740    2.3513 C.3       3 GLC5        0.0000 
     48 CA         20.8200   36.1700    1.0950 C.3       9 GLL5        0.0000 
     49 CA         18.3930   34.9120    3.8360 C.3       6 GLP5        0.0000 
     50 CA         18.8190   42.5955    4.2918 C.3       3 GLC5        0.0000 
     51 CA         17.9180   44.2150    4.0800 C.3       6 GLP5        0.0000 
     52 CA         20.2330   39.5430    5.1818 C.3       3 GLC5        0.0000 
     53 CA         19.0820   41.0420    4.7550 C.3       9 GLL5        0.0000 
     54 CA         17.8445   42.3227    3.7370 C.3       3 GLC5        0.0000 
     55 CA         17.7390   40.5640    4.1530 C.3       9 GLL5        0.0000 
     56 CA         19.2127   38.9805    4.8647 C.3       3 GLC5        0.0000 
     57 CA         17.5853   38.1440    4.7892 C.3       3 GLC5        0.0000 
     58 CA         17.6200   39.1380    3.5860 C.3       9 GLL5        0.0000 
     59 CA         17.4910   36.4370    5.7090 C.3       6 GLP5        0.0000 
     60 CA         18.1635   35.9555    2.0540 C.3       3 GLC5        0.0000 
     61 CA         16.9555   35.2810    0.3520 C.3       3 GLC5        0.0000 
     62 CA         18.5160   36.6130    0.0540 C.3       9 GLL5        0.0000 
     63 CA         15.9770   33.5630    0.4320 C.3       6 GLP5        0.0000 
     64 CA         15.8096   40.6000    3.1211 C.3       3 GLC5        0.0000 
     65 CA         13.8780   41.1260    2.9900 C.3       6 GLP5        0.0000 
@<TRIPOS>BOND
@<TRIPOS>SUBSTRUCTURE
     1 ALC1        9 GROUP        1 X    ALC  0     ROOT ALC X 1
     2 SEC2       15 GROUP        1 X    SEC  0     **** SEC X 2
     3 GLC5        1 GROUP        1 X    GLC  0     **** GLC X 6
     4 ALP1       11 GROUP        1 Y    ALP  0     ROOT ALP Y 8
     5 SEP2       17 GROUP        1 Y    SEP  0     **** SEP Y 9
     6 GLP5        3 GROUP        1 Y    GLP  0     **** GLP Y 13
     7 ALL1       10 GROUP        1 Z    ALL  0     ROOT ALL Z 15
     8 SEL2       16 GROUP        1 Z    SEL  0     **** SEL Z 16
     9 GLL5        2 GROUP        1 Z    GLL  0     **** GLL Z 20
@<TRIPOS>SET

