#    Name: 3lm0_EBD_1_ligand
#    Modification time : Mon Mar 24 21:48:16 2014

@<TRIPOS>MOLECULE
3lm0_EBD_1_ligand
   45    48     1     0     0
SMALL
NO_CHARGES


@<TRIPOS>ATOM
      1 N1         25.2500   39.6420    3.1250 N.ar      1 EBD1        0.0000 
      2 C2         23.9330   39.3500    2.9980 C.ar      1 EBD1        0.0000 
      3 N3         23.0450   40.0570    3.7290 N.ar      1 EBD1        0.0000 
      4 C4         23.4340   41.0320    4.6090 C.ar      1 EBD1        0.0000 
      5 C5         24.8220   41.3110    4.7300 C.ar      1 EBD1        0.0000 
      6 C6         25.7190   40.5870    3.9350 C.ar      1 EBD1        0.0000 
      7 NAG        22.5030   41.7030    5.3040 N.pl3     1 EBD1        0.0000 
      8 CAH        21.1430   41.5070    5.1960 C.2       1 EBD1        0.0000 
      9 NAI        23.5890   38.3560    2.1240 N.pl3     1 EBD1        0.0000 
     10 CAJ        22.3770   38.0110    1.6460 C.ar      1 EBD1        0.0000 
     11 CAK        22.0470   36.6470    1.5980 C.ar      1 EBD1        0.0000 
     12 CAL        20.8200   36.1700    1.0950 C.ar      1 EBD1        0.0000 
     13 CAM        19.8740   37.1020    0.6380 C.ar      1 EBD1        0.0000 
     14 CAN        20.2190   38.4660    0.6570 C.ar      1 EBD1        0.0000 
     15 CAO        21.4490   38.9260    1.1460 C.ar      1 EBD1        0.0000 
     16 NAP        20.3240   41.9680    6.1440 N.2       1 EBD1        0.0000 
     17 NAQ        19.1260   41.7030    5.9140 N.pl3     1 EBD1        0.0000 
     18 CAR        19.0820   41.0420    4.7550 C.2       1 EBD1        0.0000 
     19 CAS        20.3580   40.9100    4.2520 C.2       1 EBD1        0.0000 
     20 CAT        17.7390   40.5640    4.1530 C.3       1 EBD1        0.0000 
     21 CAU        17.6200   39.1380    3.5860 C.3       1 EBD1        0.0000 
     22 CAV        18.5160   36.6130    0.0540 C.3       1 EBD1        0.0000 
     23 CAW        17.8030   40.2970    2.6350 C.3       1 EBD1        0.0000 
     24 CAX        25.4310   42.3770    5.6420 C.3       1 EBD1        0.0000 
     25 CAY        17.3520   37.3850    0.4900 C.1       1 EBD1        0.0000 
     26 NAZ        16.4400   37.9660    0.8770 N.1       1 EBD1        0.0000 
     27 H          26.7244   40.8080    4.0001 H         1 EBD1        0.0000 
     28 H          22.8270   42.4521    6.0005 H         1 EBD1        0.0000 
     29 H          24.4385   37.7472    1.7582 H         1 EBD1        0.0000 
     30 H          22.7421   35.9516    1.9512 H         1 EBD1        0.0000 
     31 H          20.6268   35.1764    1.0647 H         1 EBD1        0.0000 
     32 H          19.5315   39.1591    0.2928 H         1 EBD1        0.0000 
     33 H          21.6630   39.9258    1.1355 H         1 EBD1        0.0000 
     34 H          18.3304   41.9162    6.4489 H         1 EBD1        0.0000 
     35 H          20.6152   40.5079    3.4567 H         1 EBD1        0.0000 
     36 H          16.8748   40.8792    4.3317 H         1 EBD1        0.0000 
     37 H          16.7016   38.9076    3.5998 H         1 EBD1        0.0000 
     38 H          18.4601   38.7181    3.7073 H         1 EBD1        0.0000 
     39 H          18.4068   35.5443    0.3322 H         1 EBD1        0.0000 
     40 H          18.6101   36.6323   -1.0516 H         1 EBD1        0.0000 
     41 H          18.7151   40.3344    2.3854 H         1 EBD1        0.0000 
     42 H          16.9565   40.5239    2.2779 H         1 EBD1        0.0000 
     43 H          26.4279   42.4036    5.5681 H         1 EBD1        0.0000 
     44 H          25.0960   43.2924    5.4186 H         1 EBD1        0.0000 
     45 H          25.2127   42.2117    6.6038 H         1 EBD1        0.0000 
@<TRIPOS>BOND
     1    2    1 ar   
     2    6    1 ar   
     3    3    2 ar   
     4    9    2 1    
     5    4    3 ar   
     6    5    4 ar   
     7    7    4 1    
     8    6    5 ar   
     9   24    5 1    
    10   27    6 1    
    11    8    7 1    
    12   28    7 1    
    13   16    8 2    
    14   19    8 1    
    15   10    9 1    
    16   29    9 1    
    17   11   10 ar   
    18   15   10 ar   
    19   12   11 ar   
    20   30   11 1    
    21   13   12 ar   
    22   31   12 1    
    23   14   13 ar   
    24   22   13 1    
    25   15   14 ar   
    26   32   14 1    
    27   33   15 1    
    28   17   16 1    
    29   18   17 1    
    30   34   17 1    
    31   19   18 2    
    32   20   18 1    
    33   35   19 1    
    34   21   20 1    
    35   23   20 1    
    36   36   20 1    
    37   23   21 1    
    38   37   21 1    
    39   38   21 1    
    40   25   22 1    
    41   39   22 1    
    42   40   22 1    
    43   41   23 1    
    44   42   23 1    
    45   43   24 1    
    46   44   24 1    
    47   45   24 1    
    48   26   25 3    
@<TRIPOS>SUBSTRUCTURE
     1 EBD1        1 GROUP   
@<TRIPOS>SET

