#    Name: 3CHS_2_CAVITY_N1_6.mol2
#    Modification time : Tue Mar 11 14:10:22 2014

@<TRIPOS>MOLECULE
3CHS_2_CAVITY_N1_6.mol2
   34     0     6     0     0
SMALL
NO_CHARGES


@<TRIPOS>ATOM
      1 OG         15.9549   44.7557   68.6456 O.2       1 SER1        0.0000 
      2 OG         17.0124   43.6942   68.5756 O.2       1 SER1        0.0000 
      3 CZ         18.0700   42.6327   68.5056 C.ar      4 PHE5        0.0000 
      4 CZ         19.1275   41.5713   68.4356 C.ar      4 PHE5        0.0000 
      5 CZ         20.1851   40.5098   68.3656 C.ar      4 PHE5        0.0000 
      6 OG         16.3821   43.1484   67.3287 O.2       1 SER1        0.0000 
      7 CZ         17.4397   42.0870   67.2587 C.ar      4 PHE5        0.0000 
      8 CZ         14.6942   43.6641   66.1517 C.ar      4 PHE5        0.0000 
      9 OG         15.7518   42.6026   66.0817 O.2       1 SER1        0.0000 
     10 OG         16.8093   41.5412   66.0117 O.2       1 SER1        0.0000 
     11 OG         15.1214   42.0569   64.8348 O.2       1 SER1        0.0000 
     12 O          19.5572   44.0871   68.9216 O.2       2 ALA2        0.0000 
     13 O          16.8118   45.6642   67.8147 O.2       2 ALA2        0.0000 
     14 O          17.8693   44.6027   67.7447 O.2       2 ALA2        0.0000 
     15 DU         18.9269   43.5413   67.6747 H         6 CUB7        0.0000 
     16 CZ         19.9844   42.4798   67.6047 C.ar      4 PHE5        0.0000 
     17 O          21.0420   41.4184   67.5347 O.2       2 ALA2        0.0000 
     18 CA         16.1815   45.1184   66.5678 C.3       5 GLY6        0.0000 
     19 O          17.2390   44.0570   66.4978 O.2       2 ALA2        0.0000 
     20 CZ         18.2966   42.9955   66.4278 C.ar      4 PHE5        0.0000 
     21 N          19.3541   41.9340   66.3578 N.2       2 ALA2        0.0000 
     22 N          16.6087   43.5112   65.2509 N.2       2 ALA2        0.0000 
     23 NZ         17.6662   42.4497   65.1809 N.2       3 LYS4        0.0000 
     24 CA         18.7262   45.5113   66.9139 C.3       5 GLY6        0.0000 
     25 CA         19.7838   44.4498   66.8439 C.3       5 GLY6        0.0000 
     26 CA         20.8413   43.3883   66.7739 C.3       5 GLY6        0.0000 
     27 O          21.8989   42.3269   66.7039 O.2       2 ALA2        0.0000 
     28 O          18.0959   44.9655   65.6670 O.2       2 ALA2        0.0000 
     29 O          19.1535   43.9040   65.5970 O.2       2 ALA2        0.0000 
     30 CA         20.2110   42.8426   65.5270 C.3       5 GLY6        0.0000 
     31 CA         20.6407   45.3583   66.0130 C.3       5 GLY6        0.0000 
     32 CA         21.6982   44.2969   65.9430 C.3       5 GLY6        0.0000 
     33 CA         20.0104   44.8126   64.7661 C.3       5 GLY6        0.0000 
     34 CA         21.0679   43.7511   64.6961 C.3       5 GLY6        0.0000 
@<TRIPOS>BOND
@<TRIPOS>SUBSTRUCTURE
     1 SER1        1 GROUP   
     2 ALA2       12 GROUP   
     3 LYS4       23 GROUP   
     4 PHE5        3 GROUP   
     5 GLY6       18 GROUP   
     6 CUB7       15 GROUP   
@<TRIPOS>SET

