#    Name: 3chs_4BU_2_INTS_M
#    Modification time : Mon Mar 24 21:29:02 2014

@<TRIPOS>MOLECULE
3chs_4BU_2_INTS_M
   73     0    15     0     0
SMALL
NO_CHARGES


@<TRIPOS>ATOM
      1 CA         12.0180   43.1275   63.0380 C.3       5 GLC5        0.0000 
      2 CA         12.2270   43.2830   65.1480 C.3      15 GLL5        0.0000 
      3 CA         11.8090   42.9720   60.9280 C.3      10 GLP5        0.0000 
      4 CA         13.1165   42.5270   62.4560 C.3       5 GLC5        0.0000 
      5 CA         14.4240   42.0820   63.9840 C.3      15 GLL5        0.0000 
      6 OD1        14.0455   40.6740   62.3165 O.co2     3 ASC3        0.0000 
      7 OD1        13.7190   40.8210   63.6870 O.co2    13 ASL3        0.0000 
      8 OD1        14.3720   40.5270   60.9460 O.co2     8 ASP3        0.0000 
      9 OD1        13.7155   39.6325   62.2815 O.co2     3 ASC3        0.0000 
     10 OD1        13.7120   38.4440   60.8760 O.co2     8 ASP3        0.0000 
     11 OD1        14.1355   39.2940   64.4885 O.co2     3 ASC3        0.0000 
     12 OD1        14.5520   37.7670   65.2900 O.co2     8 ASP3        0.0000 
     13 O          12.4040   40.7795   63.3950 O.2       1 ALC1        0.0000 
     14 O          13.7190   40.8210   63.6870 O.2      11 ALL1        0.0000 
     15 O          11.0890   40.7380   63.1030 O.2       6 ALP1        0.0000 
     16 O          14.0455   40.6740   62.3165 O.2       1 ALC1        0.0000 
     17 O          14.3720   40.5270   60.9460 O.2       6 ALP1        0.0000 
     18 Zn         16.5525   39.7675   64.6080 Zn        4 ZIC7        0.0000 
     19 Zn         16.0810   40.6180   64.7990 Zn       14 ZIL7        0.0000 
     20 Zn         17.0240   38.9170   64.4170 Zn        9 ZIP7        0.0000 
     21 N          15.6645   40.6110   66.2700 N.am      2 SEC2        0.0000 
     22 N          16.0810   40.6180   64.7990 N.am     12 SEL2        0.0000 
     23 N          15.2480   40.6040   67.7410 N.am      7 SEP2        0.0000 
     24 CA          6.3395   36.1840   68.8640 C.3       5 GLC5        0.0000 
     25 CA          7.4130   37.5580   70.0110 C.3      15 GLL5        0.0000 
     26 CA          5.2660   34.8100   67.7170 C.3      10 GLP5        0.0000 
     27 CA          5.8770   36.2850   70.5565 C.3       5 GLC5        0.0000 
     28 CA          4.3410   35.0120   71.1020 C.3      10 GLP5        0.0000 
     29 CA          5.7105   38.6205   69.8445 C.3       5 GLC5        0.0000 
     30 CA          4.0080   39.6830   69.6780 C.3      10 GLP5        0.0000 
     31 CA          9.1045   39.3135   72.2935 C.3       5 GLC5        0.0000 
     32 CA          8.2740   37.7090   71.3070 C.3      15 GLL5        0.0000 
     33 CA          9.9350   40.9180   73.2800 C.3      10 GLP5        0.0000 
     34 O           6.8450   39.6790   71.9620 O.2       1 ALC1        0.0000 
     35 O           7.4760   38.4900   72.2070 O.2      11 ALL1        0.0000 
     36 O           6.2140   40.8680   71.7170 O.2       6 ALP1        0.0000 
     37 CA          6.4995   35.0855   71.2525 C.3       5 GLC5        0.0000 
     38 CA          8.6580   35.1590   71.4030 C.3      15 GLL5        0.0000 
     39 CA          9.3585   34.1565   74.9445 C.3       5 GLC5        0.0000 
     40 CA         10.1390   35.4760   73.7820 C.3      15 GLL5        0.0000 
     41 CA          8.5780   32.8370   76.1070 C.3      10 GLP5        0.0000 
     42 CA          7.9950   37.6305   74.2700 C.3       5 GLC5        0.0000 
     43 CA          9.5780   36.5990   73.1450 C.3      15 GLL5        0.0000 
     44 CA          6.4120   38.6620   75.3950 C.3      10 GLP5        0.0000 
     45 CA          9.7565   38.7585   73.2125 C.3       5 GLC5        0.0000 
     46 CA         13.0080   44.4930   66.2985 C.3       5 GLC5        0.0000 
     47 CA         13.7450   42.8790   65.1520 C.3      15 GLL5        0.0000 
     48 CA         13.0300   45.9050   67.4470 C.3      10 GLP5        0.0000 
     49 CA          9.1713   40.5210   65.1438 C.3       5 GLC5        0.0000 
     50 CA          9.5490   41.3280   66.8970 C.3      15 GLL5        0.0000 
     51 CA          8.7150   40.4210   63.3900 C.3      10 GLP5        0.0000 
     52 CA          6.8202   40.5713   67.0192 C.3       5 GLC5        0.0000 
     53 CA          8.6280   41.9020   67.8130 C.3      15 GLL5        0.0000 
     54 CA          5.3790   39.6550   65.7830 C.3      10 GLP5        0.0000 
     55 CA          5.9955   40.0270   69.1867 C.3       5 GLC5        0.0000 
     56 CA          7.8950   41.0730   68.6980 C.3      15 GLL5        0.0000 
     57 CA          8.9736   41.2391   70.2961 C.3       5 GLC5        0.0000 
     58 CA          8.0710   39.6690   68.6930 C.3      15 GLL5        0.0000 
     59 CA          9.7810   41.9000   72.1180 C.3      10 GLP5        0.0000 
     60 CA          7.2474   39.6515   66.6755 C.3       5 GLC5        0.0000 
     61 CA          9.7127   36.9617   69.9845 C.3       5 GLC5        0.0000 
     62 CA         11.5820   36.2900   69.3100 C.3      10 GLP5        0.0000 
     63 CA          9.5427   34.9892   70.2373 C.3       5 GLC5        0.0000 
     64 CA          8.8250   36.4640   71.9420 C.3      15 GLL5        0.0000 
     65 CA         10.3440   34.1670   68.8020 C.3      10 GLP5        0.0000 
     66 CA          9.9703   34.1405   70.7133 C.3       5 GLC5        0.0000 
     67 CA          9.2260   34.0320   72.0320 C.3      15 GLL5        0.0000 
     68 CA          8.2647   33.6780   73.4573 C.3       5 GLC5        0.0000 
     69 CA          6.9330   33.2420   74.2900 C.3      10 GLP5        0.0000 
     70 CA          8.0464   34.7236   73.3494 C.3       5 GLC5        0.0000 
     71 CA         11.6392   35.9562   72.8141 C.3       5 GLC5        0.0000 
     72 CA          9.9670   34.1960   73.2170 C.3      15 GLL5        0.0000 
     73 CA         13.4630   36.1950   72.3060 C.3      10 GLP5        0.0000 
@<TRIPOS>BOND
@<TRIPOS>SUBSTRUCTURE
     1 ALC1       13 GROUP        1 X    ALC  0     ROOT ALC X 1
     2 SEC2       21 GROUP        1 X    SEC  0     **** SEC X 2
     3 ASC3        6 GROUP        1 X    ASC  0     **** ASC X 3
     4 ZIC7       18 GROUP        1 X    ZIC  0     **** ZIC X 5
     5 GLC5        1 GROUP        1 X    GLC  0     **** GLC X 6
     6 ALP1       15 GROUP        1 Y    ALP  0     ROOT ALP Y 8
     7 SEP2       23 GROUP        1 Y    SEP  0     **** SEP Y 9
     8 ASP3        8 GROUP        1 Y    ASP  0     **** ASP Y 10
     9 ZIP7       20 GROUP        1 Y    ZIP  0     **** ZIP Y 12
    10 GLP5        3 GROUP        1 Y    GLP  0     **** GLP Y 13
    11 ALL1       14 GROUP        1 Z    ALL  0     ROOT ALL Z 15
    12 SEL2       22 GROUP        1 Z    SEL  0     **** SEL Z 16
    13 ASL3        7 GROUP        1 Z    ASL  0     **** ASL Z 17
    14 ZIL7       19 GROUP        1 Z    ZIL  0     **** ZIL Z 19
    15 GLL5        2 GROUP        1 Z    GLL  0     **** GLL Z 20
@<TRIPOS>SET

