#    Name: 3chs_4BU_2_ligand
#    Modification time : Mon Mar 24 21:29:02 2014

@<TRIPOS>MOLECULE
3chs_4BU_2_ligand
   48    49     1     0     0
SMALL
NO_CHARGES


@<TRIPOS>ATOM
      1 O9         12.1870   40.9890   65.8760 O.2       1 4BU901      0.0000 
      2 C8         11.5650   42.0710   65.7190 C.2       1 4BU901      0.0000 
      3 C7         12.2270   43.2830   65.1480 C.3       1 4BU901      0.0000 
      4 C6         13.7450   42.8790   65.1520 C.3       1 4BU901      0.0000 
      5 C4         14.4240   42.0820   63.9840 C.3       1 4BU901      0.0000 
      6 N5         13.7190   40.8210   63.6870 N.4       1 4BU901      0.0000 
      7 C2         15.8270   41.6970   64.2240 C.2       1 4BU901      0.0000 
      8 O3         16.7990   42.3890   63.8720 O.co2     1 4BU901      0.0000 
      9 O1         16.0810   40.6180   64.7990 O.co2     1 4BU901      0.0000 
     10 N10        10.2430   42.1600   66.0620 N.am      1 4BU901      0.0000 
     11 C12         9.5490   41.3280   66.8970 C.ar      1 4BU901      0.0000 
     12 C13         8.6280   41.9020   67.8130 C.ar      1 4BU901      0.0000 
     13 C14         7.8950   41.0730   68.6980 C.ar      1 4BU901      0.0000 
     14 C15         8.0710   39.6690   68.6930 C.ar      1 4BU901      0.0000 
     15 C16         8.9800   39.0950   67.7830 C.ar      1 4BU901      0.0000 
     16 C17         9.7060   39.9140   66.8980 C.ar      1 4BU901      0.0000 
     17 O18         7.3420   38.9360   69.5820 O.3       1 4BU901      0.0000 
     18 C19         7.4130   37.5580   70.0110 C.3       1 4BU901      0.0000 
     19 C20         8.2740   37.7090   71.3070 C.3       1 4BU901      0.0000 
     20 O21         7.4760   38.4900   72.2070 O.3       1 4BU901      0.0000 
     21 C23         8.8250   36.4640   71.9420 C.ar      1 4BU901      0.0000 
     22 C24         8.6580   35.1590   71.4030 C.ar      1 4BU901      0.0000 
     23 C25         9.2260   34.0320   72.0320 C.ar      1 4BU901      0.0000 
     24 C26         9.9670   34.1960   73.2170 C.ar      1 4BU901      0.0000 
     25 C27        10.1390   35.4760   73.7820 C.ar      1 4BU901      0.0000 
     26 C28         9.5780   36.5990   73.1450 C.ar      1 4BU901      0.0000 
     27 H          12.1062   44.1205   65.7786 H         1 4BU901      0.0000 
     28 H          11.9315   43.4479   64.1485 H         1 4BU901      0.0000 
     29 H          13.9398   42.3045   66.1139 H         1 4BU901      0.0000 
     30 H          14.3480   43.8301   65.3102 H         1 4BU901      0.0000 
     31 H          14.3817   42.7105   63.0857 H         1 4BU901      0.0000 
     32 H           9.6843   42.9809   65.6232 H         1 4BU901      0.0000 
     33 H           8.4949   42.9129   67.8328 H         1 4BU901      0.0000 
     34 H           7.2272   41.4977   69.3516 H         1 4BU901      0.0000 
     35 H           9.1126   38.0804   67.7656 H         1 4BU901      0.0000 
     36 H          10.3675   39.4862   66.2336 H         1 4BU901      0.0000 
     37 H           7.9495   36.9498   69.3371 H         1 4BU901      0.0000 
     38 H           6.4733   37.1710   70.2921 H         1 4BU901      0.0000 
     39 H           9.1413   38.3582   70.9956 H         1 4BU901      0.0000 
     40 H           8.1129   35.0402   70.5396 H         1 4BU901      0.0000 
     41 H           9.0997   33.1037   71.6293 H         1 4BU901      0.0000 
     42 H          10.3857   33.3785   73.6741 H         1 4BU901      0.0000 
     43 H          10.6669   35.5869   74.6472 H         1 4BU901      0.0000 
     44 H           9.7091   37.5352   73.5478 H         1 4BU901      0.0000 
     45 H          12.7690   40.9809   63.4188 H         1 4BU901      0.0000 
     46 H          14.1542   40.3194   62.9393 H         1 4BU901      0.0000 
     47 H          13.7012   40.2101   64.4785 H         1 4BU901      0.0000 
     48 H           7.2055   39.2957   71.6801 H         1 4BU901      0.0000 
@<TRIPOS>BOND
     1    2    1 2    
     2    3    2 1    
     3   10    2 am   
     4    4    3 1    
     5   27    3 1    
     6   28    3 1    
     7    5    4 1    
     8   29    4 1    
     9   30    4 1    
    10    6    5 1    
    11    7    5 1    
    12   31    5 1    
    13   45    6 1    
    14   46    6 1    
    15   47    6 1    
    16    8    7 ar   
    17    9    7 ar   
    18   11   10 1    
    19   32   10 1    
    20   12   11 ar   
    21   16   11 ar   
    22   13   12 ar   
    23   33   12 1    
    24   14   13 ar   
    25   34   13 1    
    26   15   14 ar   
    27   17   14 1    
    28   16   15 ar   
    29   35   15 1    
    30   36   16 1    
    31   18   17 1    
    32   19   18 1    
    33   37   18 1    
    34   38   18 1    
    35   20   19 1    
    36   21   19 1    
    37   39   19 1    
    38   48   20 1    
    39   22   21 ar   
    40   26   21 ar   
    41   23   22 ar   
    42   40   22 1    
    43   24   23 ar   
    44   41   23 1    
    45   25   24 ar   
    46   42   24 1    
    47   26   25 ar   
    48   43   25 1    
    49   44   26 1    
@<TRIPOS>SUBSTRUCTURE
     1 4BU901      1 GROUP   
@<TRIPOS>SET

