#    Name: 1uu7_BI2_1_INTS_M
#    Modification time : Tue Mar 25 07:05:57 2014

@<TRIPOS>MOLECULE
1uu7_BI2_1_INTS_M
   64     0     9     0     0
SMALL
NO_CHARGES


@<TRIPOS>ATOM
      1 CA         23.5175   85.2575    5.7345 C.3       3 GLC5        0.0000 
      2 CA         21.4020   85.0010    5.1750 C.3       9 GLL5        0.0000 
      3 CA         25.6330   85.5140    6.2940 C.3       6 GLP5        0.0000 
      4 CA         21.9765   83.3330    6.2760 C.3       3 GLC5        0.0000 
      5 CA         22.5510   81.6650    7.3770 C.3       6 GLP5        0.0000 
      6 CA         19.8065   87.1340    7.1360 C.3       3 GLC5        0.0000 
      7 CA         20.1980   85.4350    5.9630 C.3       9 GLL5        0.0000 
      8 CA         19.4150   88.8330    8.3090 C.3       6 GLP5        0.0000 
      9 CA         22.0120   88.0845    6.4005 C.3       3 GLC5        0.0000 
     10 CA         20.5920   87.7290    5.1220 C.3       9 GLL5        0.0000 
     11 CA         23.4320   88.4400    7.6790 C.3       6 GLP5        0.0000 
     12 CA         16.8170   86.1100    7.4515 C.3       3 GLC5        0.0000 
     13 CA         17.3290   86.4700    5.6670 C.3       9 GLL5        0.0000 
     14 CA         16.3050   85.7500    9.2360 C.3       6 GLP5        0.0000 
     15 CA         15.7730   87.0665    7.3410 C.3       3 GLC5        0.0000 
     16 CA         16.1320   87.1340    5.4650 C.3       9 GLL5        0.0000 
     17 CA         15.4140   86.9990    9.2170 C.3       6 GLP5        0.0000 
     18 CA         14.6520   88.5855    3.7065 C.3       3 GLC5        0.0000 
     19 CA         16.1300   88.4520    5.0050 C.3       9 GLL5        0.0000 
     20 CA         13.1740   88.7190    2.4080 C.3       6 GLP5        0.0000 
     21 CA         17.3865   88.6635    2.5840 C.3       3 GLC5        0.0000 
     22 CA         17.3200   89.0890    4.7140 C.3       9 GLL5        0.0000 
     23 CA         17.4530   88.2380    0.4540 C.3       6 GLP5        0.0000 
     24 N          18.1705   90.7900    6.6240 N.am      2 SEC2        0.0000 
     25 N          18.8500   91.4110    5.3880 N.am      8 SEL2        0.0000 
     26 N          17.4910   90.1690    7.8600 N.am      5 SEP2        0.0000 
     27 O          20.6150   93.6450    4.1675 O.2       1 ALC1        0.0000 
     28 O          20.7090   92.2810    4.2890 O.2       7 ALL1        0.0000 
     29 O          20.5210   95.0090    4.0460 O.2       4 ALP1        0.0000 
     30 N          23.5020   93.4620    3.8015 N.am      2 SEC2        0.0000 
     31 N          22.6650   92.3310    3.1180 N.am      8 SEL2        0.0000 
     32 N          24.3390   94.5930    4.4850 N.am      5 SEP2        0.0000 
     33 CA         20.7615   89.1130    1.1155 C.3       3 GLC5        0.0000 
     34 CA         22.3480   88.2270    2.4390 C.3       9 GLL5        0.0000 
     35 CA         19.1750   89.9990   -0.2080 C.3       6 GLP5        0.0000 
     36 CA         21.8923   81.9503    5.6777 C.3       3 GLC5        0.0000 
     37 CA         21.9460   82.2090    3.6800 C.3       9 GLL5        0.0000 
     38 CA         18.6680   87.8157    6.9160 C.3       3 GLC5        0.0000 
     39 CA         18.5130   87.1270    5.3790 C.3       9 GLL5        0.0000 
     40 CA         16.3170   90.5773    4.3658 C.3       3 GLC5        0.0000 
     41 CA         15.9090   92.3840    3.8720 C.3       6 GLP5        0.0000 
     42 CA         18.6683   88.7997    6.5620 C.3       3 GLC5        0.0000 
     43 CA         21.2462   90.0153    5.7908 C.3       3 GLC5        0.0000 
     44 CA         19.8680   88.7840    4.7430 C.3       9 GLL5        0.0000 
     45 CA         22.3540   90.6220    7.0340 C.3       6 GLP5        0.0000 
     46 CA         19.8672   88.9889    6.4756 C.3       3 GLC5        0.0000 
     47 CA         20.4090   90.0330    4.3520 C.3       9 GLL5        0.0000 
     48 CA         23.0655   90.2758    1.1623 C.3       3 GLC5        0.0000 
     49 CA         22.5690   89.4440    3.0950 C.3       9 GLL5        0.0000 
     50 CA         22.9020   90.9910   -0.7610 C.3       6 GLP5        0.0000 
     51 CA         22.2800   88.2430    0.3400 C.3       3 GLC5        0.0000 
     52 CA         22.7710   88.6510   -1.6010 C.3       6 GLP5        0.0000 
     53 CA         19.9127   87.7362    0.6020 C.3       3 GLC5        0.0000 
     54 CA         21.2300   87.4430    2.1230 C.3       9 GLL5        0.0000 
     55 CA         18.5170   88.6410   -0.5730 C.3       6 GLP5        0.0000 
     56 CA         22.3978   87.3270   -0.1725 C.3       3 GLC5        0.0000 
     57 CA         21.3870   86.2200    1.4310 C.3       9 GLL5        0.0000 
     58 CA         21.6878   85.2055   -0.2880 C.3       3 GLC5        0.0000 
     59 CA         22.6620   85.7860    1.0810 C.3       9 GLL5        0.0000 
     60 CA         21.3510   84.4080   -1.8320 C.3       6 GLP5        0.0000 
     61 CA         23.2290   87.9140    0.0660 C.3       3 GLC5        0.0000 
     62 CA         23.7700   86.5690    1.3950 C.3       9 GLL5        0.0000 
     63 CA         22.6729   90.2005    5.1326 C.3       3 GLC5        0.0000 
     64 CA         23.8890   89.6770    3.0760 C.3       9 GLL5        0.0000 
@<TRIPOS>BOND
@<TRIPOS>SUBSTRUCTURE
     1 ALC1       27 GROUP        1 X    ALC  0     ROOT ALC X 1
     2 SEC2       24 GROUP        1 X    SEC  0     **** SEC X 2
     3 GLC5        1 GROUP        1 X    GLC  0     **** GLC X 6
     4 ALP1       29 GROUP        1 Y    ALP  0     ROOT ALP Y 8
     5 SEP2       26 GROUP        1 Y    SEP  0     **** SEP Y 9
     6 GLP5        3 GROUP        1 Y    GLP  0     **** GLP Y 13
     7 ALL1       28 GROUP        1 Z    ALL  0     ROOT ALL Z 15
     8 SEL2       25 GROUP        1 Z    SEL  0     **** SEL Z 16
     9 GLL5        2 GROUP        1 Z    GLL  0     **** GLL Z 20
@<TRIPOS>SET

