#    Name: 1uu7_BI2_1_ligand
#    Modification time : Tue Mar 25 07:05:57 2014

@<TRIPOS>MOLECULE
1uu7_BI2_1_ligand
   60    65     1     0     0
SMALL
NO_CHARGES


@<TRIPOS>ATOM
      1 CBD        18.6890   83.9280    4.3630 C.3       1 BI21364     0.0000 
      2 NBC        19.9450   83.5080    3.7070 N.4       1 BI21364     0.0000 
      3 CBG        20.5210   82.2620    4.2770 C.3       1 BI21364     0.0000 
      4 CBF        21.9460   82.2090    3.6800 C.3       1 BI21364     0.0000 
      5 CBE        22.2500   83.6460    3.2430 C.3       1 BI21364     0.0000 
      6 CBB        21.0630   84.4870    3.7610 C.3       1 BI21364     0.0000 
      7 CBA        21.4020   85.0010    5.1750 C.3       1 BI21364     0.0000 
      8 CAY        20.1980   85.4350    5.9630 C.3       1 BI21364     0.0000 
      9 NAH        19.7680   86.7530    5.4820 N.pl3     1 BI21364     0.0000 
     10 CAW        20.5920   87.7290    5.1220 C.2       1 BI21364     0.0000 
     11 CAE        18.5130   87.1270    5.3790 C.ar      1 BI21364     0.0000 
     12 CAF        17.3290   86.4700    5.6670 C.ar      1 BI21364     0.0000 
     13 CAA        16.1320   87.1340    5.4650 C.ar      1 BI21364     0.0000 
     14 CAB        16.1300   88.4520    5.0050 C.ar      1 BI21364     0.0000 
     15 CAC        17.3200   89.0890    4.7140 C.ar      1 BI21364     0.0000 
     16 CAD        18.5230   88.4440    4.9160 C.ar      1 BI21364     0.0000 
     17 CAG        19.8680   88.7840    4.7430 C.2       1 BI21364     0.0000 
     18 CAI        20.4090   90.0330    4.3520 C.2       1 BI21364     0.0000 
     19 CAT        19.9070   91.2750    4.7540 C.2       1 BI21364     0.0000 
     20 OAZ        18.8500   91.4110    5.3880 O.2       1 BI21364     0.0000 
     21 NAU        20.7090   92.2810    4.2890 N.am      1 BI21364     0.0000 
     22 CAV        21.7390   91.7180    3.6540 C.2       1 BI21364     0.0000 
     23 OAX        22.6650   92.3310    3.1180 O.2       1 BI21364     0.0000 
     24 CAJ        21.6200   90.3180    3.6780 C.2       1 BI21364     0.0000 
     25 CAK        22.5690   89.4440    3.0950 C.2       1 BI21364     0.0000 
     26 CAM        22.3480   88.2270    2.4390 C.ar      1 BI21364     0.0000 
     27 CAP        21.2300   87.4430    2.1230 C.ar      1 BI21364     0.0000 
     28 CAQ        21.3870   86.2200    1.4310 C.ar      1 BI21364     0.0000 
     29 CAR        22.6620   85.7860    1.0810 C.ar      1 BI21364     0.0000 
     30 CAS        23.7700   86.5690    1.3950 C.ar      1 BI21364     0.0000 
     31 CAN        23.6040   87.7850    2.0710 C.ar      1 BI21364     0.0000 
     32 NAO        24.4980   88.6860    2.4720 N.pl3     1 BI21364     0.0000 
     33 CAL        23.8890   89.6770    3.0760 C.2       1 BI21364     0.0000 
     34 H          19.7522   83.2990    2.6343 H         1 BI21364     0.0000 
     35 H          19.9822   81.4058    3.9501 H         1 BI21364     0.0000 
     36 H          20.5968   82.3237    5.3356 H         1 BI21364     0.0000 
     37 H          21.9497   81.5653    2.8342 H         1 BI21364     0.0000 
     38 H          22.6324   81.9072    4.4333 H         1 BI21364     0.0000 
     39 H          22.2850   83.7011    2.1815 H         1 BI21364     0.0000 
     40 H          23.1479   83.9815    3.7037 H         1 BI21364     0.0000 
     41 H          20.9119   85.2783    3.0892 H         1 BI21364     0.0000 
     42 H          22.1061   85.8431    5.0759 H         1 BI21364     0.0000 
     43 H          21.9320   84.1996    5.7151 H         1 BI21364     0.0000 
     44 H          20.4611   85.4809    7.0197 H         1 BI21364     0.0000 
     45 H          19.4024   84.7018    5.8313 H         1 BI21364     0.0000 
     46 H          21.5661   87.6865    5.1313 H         1 BI21364     0.0000 
     47 H          17.3392   85.5117    6.0224 H         1 BI21364     0.0000 
     48 H          15.2376   86.6596    5.6528 H         1 BI21364     0.0000 
     49 H          15.2332   88.9457    4.8843 H         1 BI21364     0.0000 
     50 H          17.3092   90.0540    4.3429 H         1 BI21364     0.0000 
     51 H          20.5431   93.2195    4.4085 H         1 BI21364     0.0000 
     52 H          20.2908   87.7533    2.3927 H         1 BI21364     0.0000 
     53 H          20.5625   85.6652    1.1938 H         1 BI21364     0.0000 
     54 H          22.7859   84.8917    0.5929 H         1 BI21364     0.0000 
     55 H          24.7130   86.2576    1.1320 H         1 BI21364     0.0000 
     56 H          25.4701   88.6087    2.3303 H         1 BI21364     0.0000 
     57 H          24.3167   90.4725    3.4600 H         1 BI21364     0.0000 
     58 H          18.8200   84.1025    5.3389 H         1 BI21364     0.0000 
     59 H          18.3232   84.7677    3.9617 H         1 BI21364     0.0000 
     60 H          17.9769   83.2305    4.2830 H         1 BI21364     0.0000 
@<TRIPOS>BOND
     1    2    1 1    
     2   58    1 1    
     3   59    1 1    
     4   60    1 1    
     5    3    2 1    
     6    6    2 1    
     7   34    2 1    
     8    4    3 1    
     9   35    3 1    
    10   36    3 1    
    11    5    4 1    
    12   37    4 1    
    13   38    4 1    
    14    6    5 1    
    15   39    5 1    
    16   40    5 1    
    17    7    6 1    
    18   41    6 1    
    19    8    7 1    
    20   42    7 1    
    21   43    7 1    
    22    9    8 1    
    23   44    8 1    
    24   45    8 1    
    25   10    9 1    
    26   11    9 1    
    27   17   10 2    
    28   46   10 1    
    29   12   11 ar   
    30   16   11 ar   
    31   13   12 ar   
    32   47   12 1    
    33   14   13 ar   
    34   48   13 1    
    35   15   14 ar   
    36   49   14 1    
    37   16   15 ar   
    38   50   15 1    
    39   17   16 1    
    40   18   17 1    
    41   19   18 1    
    42   24   18 2    
    43   20   19 2    
    44   21   19 am   
    45   22   21 am   
    46   51   21 1    
    47   23   22 2    
    48   24   22 1    
    49   25   24 1    
    50   26   25 1    
    51   33   25 2    
    52   27   26 ar   
    53   31   26 ar   
    54   28   27 ar   
    55   52   27 1    
    56   29   28 ar   
    57   53   28 1    
    58   30   29 ar   
    59   54   29 1    
    60   31   30 ar   
    61   55   30 1    
    62   32   31 1    
    63   33   32 1    
    64   56   32 1    
    65   57   33 1    
@<TRIPOS>SUBSTRUCTURE
     1 BI21364     1 GROUP   
@<TRIPOS>SET

