#    Name: 4n1b_2FS_2_INTS_M
#    Modification time : Tue Mar 25 12:30:32 2014

@<TRIPOS>MOLECULE
4n1b_2FS_2_INTS_M
   55     0     9     0     0
SMALL
NO_CHARGES


@<TRIPOS>ATOM
      1 CA         -8.1940  -22.7600   -2.0950 C.3       3 GLC5        0.0000 
      2 CA         -8.0880  -22.4310   -4.1820 C.3       9 GLL5        0.0000 
      3 CA         -8.3000  -23.0890   -0.0080 C.3       6 GLP5        0.0000 
      4 CA         -7.6745  -18.4265   -4.3545 C.3       3 GLC5        0.0000 
      5 CA         -6.6840  -20.3870   -4.3390 C.3       9 GLL5        0.0000 
      6 CA         -8.6650  -16.4660   -4.3700 C.3       6 GLP5        0.0000 
      7 CA         -7.6990  -18.0350   -5.5450 C.3       3 GLC5        0.0000 
      8 CA         -7.4270  -19.9600   -5.5800 C.3       9 GLL5        0.0000 
      9 CA         -7.9710  -16.1100   -5.5100 C.3       6 GLP5        0.0000 
     10 CA         -9.6995  -18.8140   -5.6240 C.3       3 GLC5        0.0000 
     11 CA         -8.8570  -20.4620   -5.5340 C.3       9 GLL5        0.0000 
     12 CA        -10.5420  -17.1660   -5.7140 C.3       6 GLP5        0.0000 
     13 CA        -13.0380  -24.3000   -5.5605 C.3       3 GLC5        0.0000 
     14 CA        -11.8860  -24.0070   -6.9510 C.3       9 GLL5        0.0000 
     15 CA        -14.1900  -24.5930   -4.1700 C.3       6 GLP5        0.0000 
     16 CA        -13.3225  -25.3950   -6.0445 C.3       3 GLC5        0.0000 
     17 CA        -12.4550  -26.1970   -7.9190 C.3       9 GLL5        0.0000 
     18 CA         -7.3385  -21.8980  -11.6985 C.3       3 GLC5        0.0000 
     19 CA         -6.9510  -22.7370  -10.0810 C.3       9 GLL5        0.0000 
     20 CA         -7.7260  -21.0590  -13.3160 C.3       6 GLP5        0.0000 
     21 NZ         -7.9225  -25.9145   -5.3095 N.4       2 LYC4        0.0000 
     22 NZ         -9.0560  -24.5750   -4.6730 N.4       8 LYL4        0.0000 
     23 NZ         -6.7890  -27.2540   -5.9460 N.4       5 LYP4        0.0000 
     24 N          -9.1730  -25.3645   -3.3030 N.am      1 SEC2        0.0000 
     25 N          -9.0560  -24.5750   -4.6730 N.am      7 SEL2        0.0000 
     26 N          -9.2900  -26.1540   -1.9330 N.am      4 SEP2        0.0000 
     27 NZ         -6.9635  -25.8940   -4.7085 N.4       2 LYC4        0.0000 
     28 NZ         -7.1380  -24.5340   -3.4710 N.4       8 LYL4        0.0000 
     29 N          -8.2140  -25.3440   -2.7020 N.am      1 SEC2        0.0000 
     30 N          -7.1380  -24.5340   -3.4710 N.am      7 SEL2        0.0000 
     31 N         -10.8600  -19.8990   -9.4715 N.am      1 SEC2        0.0000 
     32 N          -9.7700  -20.6460   -9.4670 N.am      7 SEL2        0.0000 
     33 N         -11.9500  -19.1520   -9.4760 N.am      4 SEP2        0.0000 
     34 CA        -12.1025  -23.6253   -9.0040 C.3       3 GLC5        0.0000 
     35 CA        -11.0260  -22.8180   -7.2990 C.3       9 GLL5        0.0000 
     36 CA        -12.7490  -23.8380  -10.8830 C.3       6 GLP5        0.0000 
     37 CA        -13.2595  -22.7328   -7.5360 C.3       3 GLC5        0.0000 
     38 CA        -15.0630  -22.0530   -7.9470 C.3       6 GLP5        0.0000 
     39 CA        -11.4730  -24.8308   -9.8660 C.3       3 GLC5        0.0000 
     40 CA        -10.3330  -25.2710   -8.4610 C.3       9 GLL5        0.0000 
     41 CA        -10.3910  -27.5505   -7.3735 C.3       3 GLC5        0.0000 
     42 CA        -10.9800  -27.3900   -9.3570 C.3       9 GLL5        0.0000 
     43 CA         -9.2020  -27.7560   -5.7210 C.3       6 GLP5        0.0000 
     44 CA        -11.7670  -29.3455   -8.7030 C.3       3 GLC5        0.0000 
     45 CA        -11.9540  -31.3460   -8.3800 C.3       6 GLP5        0.0000 
     46 CA        -12.0925  -28.3155  -10.5070 C.3       3 GLC5        0.0000 
     47 CA        -12.1800  -27.3000   -8.6950 C.3       9 GLL5        0.0000 
     48 CA        -12.6050  -29.2860  -11.9880 C.3       6 GLP5        0.0000 
     49 CA        -12.1645  -25.5915   -9.9545 C.3       3 GLC5        0.0000 
     50 CA        -10.5995  -26.7218   -6.7903 C.3       3 GLC5        0.0000 
     51 CA        -12.3730  -24.7628   -9.3712 C.3       3 GLC5        0.0000 
     52 CA        -11.5390  -25.1780   -7.8000 C.3       9 GLL5        0.0000 
     53 CA         -9.4787  -26.3821   -7.1655 C.3       3 GLC5        0.0000 
     54 CA        -11.0245  -23.8585   -9.9733 C.3       3 GLC5        0.0000 
     55 CA         -9.3140  -24.1930   -8.3710 C.3       9 GLL5        0.0000 
@<TRIPOS>BOND
@<TRIPOS>SUBSTRUCTURE
     1 SEC2       24 GROUP        1 X    SEC  0     ROOT SEC X 2
     2 LYC4       21 GROUP        1 X    LYC  0     **** LYC X 4
     3 GLC5        1 GROUP        1 X    GLC  0     **** GLC X 6
     4 SEP2       26 GROUP        1 Y    SEP  0     ROOT SEP Y 9
     5 LYP4       23 GROUP        1 Y    LYP  0     **** LYP Y 11
     6 GLP5        3 GROUP        1 Y    GLP  0     **** GLP Y 13
     7 SEL2       25 GROUP        1 Z    SEL  0     ROOT SEL Z 16
     8 LYL4       22 GROUP        1 Z    LYL  0     **** LYL Z 18
     9 GLL5        2 GROUP        1 Z    GLL  0     **** GLL Z 20
@<TRIPOS>SET

