#    Name: 4n1b_2FS_2_ligand
#    Modification time : Tue Mar 25 12:30:32 2014

@<TRIPOS>MOLECULE
4n1b_2FS_2_ligand
   59    63     1     0     0
SMALL
NO_CHARGES


@<TRIPOS>ATOM
      1 C2         -8.0220  -23.9340   -4.0680 C.2       1 2FS701      0.0000 
      2 C4         -8.0880  -22.4310   -4.1820 C.3       1 2FS701      0.0000 
      3 C6         -6.6690  -21.8920   -4.2600 C.3       1 2FS701      0.0000 
      4 C7         -6.6840  -20.3870   -4.3390 C.3       1 2FS701      0.0000 
      5 C8         -7.4270  -19.9600   -5.5800 C.3       1 2FS701      0.0000 
      6 C9         -8.8570  -20.4620   -5.5340 C.3       1 2FS701      0.0000 
      7 C12        -8.6140  -22.6130   -6.6430 C.2       1 2FS701      0.0000 
      8 O13        -7.4610  -22.6010   -7.0370 O.2       1 2FS701      0.0000 
      9 C16       -11.8860  -24.0070   -6.9510 C.3       1 2FS701      0.0000 
     10 C18       -10.3330  -25.2710   -8.4610 C.ar      1 2FS701      0.0000 
     11 C19       -10.0610  -26.3760   -9.2370 C.ar      1 2FS701      0.0000 
     12 C20       -10.9800  -27.3900   -9.3570 C.ar      1 2FS701      0.0000 
     13 C21       -12.1800  -27.3000   -8.6950 C.ar      1 2FS701      0.0000 
     14 C22       -12.4550  -26.1970   -7.9190 C.ar      1 2FS701      0.0000 
     15 C27        -6.9510  -22.7370  -10.0810 C.3       1 2FS701      0.0000 
     16 C28        -6.4130  -21.3720   -9.8960 C.ar      1 2FS701      0.0000 
     17 C29        -5.1070  -20.9480   -9.9400 C.ar      1 2FS701      0.0000 
     18 C30        -4.8620  -19.6060   -9.7330 C.ar      1 2FS701      0.0000 
     19 C31        -5.8920  -18.7140   -9.4900 C.ar      1 2FS701      0.0000 
     20 C32        -7.2010  -19.1440   -9.4460 C.ar      1 2FS701      0.0000 
     21 O1         -9.0560  -24.5750   -4.6730 O.co2     1 2FS701      0.0000 
     22 O3         -7.1380  -24.5340   -3.4710 O.co2     1 2FS701      0.0000 
     23 C10        -8.9660  -21.9610   -5.3370 C.3       1 2FS701      0.0000 
     24 N14        -9.6430  -23.2270   -7.3410 N.am      1 2FS701      0.0000 
     25 C15       -11.0260  -22.8180   -7.2990 C.3       1 2FS701      0.0000 
     26 C17       -11.5390  -25.1780   -7.8000 C.ar      1 2FS701      0.0000 
     27 C23        -9.3140  -24.1930   -8.3710 C.3       1 2FS701      0.0000 
     28 C25        -9.2860  -23.5650   -9.7560 C.3       1 2FS701      0.0000 
     29 N26        -8.3580  -22.4880   -9.8910 N.am      1 2FS701      0.0000 
     30 C33        -7.4170  -20.4810   -9.6540 C.ar      1 2FS701      0.0000 
     31 C34        -8.6890  -21.1780   -9.6550 C.2       1 2FS701      0.0000 
     32 O35        -9.7700  -20.6460   -9.4670 O.2       1 2FS701      0.0000 
     33 H          -8.5267  -22.0493   -3.2419 H         1 2FS701      0.0000 
     34 H          -6.1788  -22.3010   -5.1433 H         1 2FS701      0.0000 
     35 H          -6.1171  -22.2076   -3.3748 H         1 2FS701      0.0000 
     36 H          -5.6640  -20.0139   -4.3793 H         1 2FS701      0.0000 
     37 H          -7.1790  -19.9808   -3.4608 H         1 2FS701      0.0000 
     38 H          -6.9311  -20.3664   -6.4612 H         1 2FS701      0.0000 
     39 H          -7.4294  -18.8725   -5.6488 H         1 2FS701      0.0000 
     40 H          -9.3664  -20.1840   -6.4720 H         1 2FS701      0.0000 
     41 H          -9.3916  -19.9513   -4.7155 H         1 2FS701      0.0000 
     42 H         -12.9392  -23.7414   -7.0941 H         1 2FS701      0.0000 
     43 H         -11.7414  -24.2565   -5.8941 H         1 2FS701      0.0000 
     44 H          -9.1531  -26.4416   -9.7349 H         1 2FS701      0.0000 
     45 H         -10.7700  -28.2138   -9.9407 H         1 2FS701      0.0000 
     46 H         -12.8762  -28.0585   -8.7785 H         1 2FS701      0.0000 
     47 H         -13.3621  -26.1341   -7.4192 H         1 2FS701      0.0000 
     48 H          -6.5649  -23.3838   -9.3308 H         1 2FS701      0.0000 
     49 H          -6.7451  -23.0775  -11.0668 H         1 2FS701      0.0000 
     50 H          -4.3458  -21.5979  -10.1186 H         1 2FS701      0.0000 
     51 H          -3.8823  -19.2551   -9.7598 H         1 2FS701      0.0000 
     52 H          -5.6741  -17.7118   -9.3397 H         1 2FS701      0.0000 
     53 H          -7.9612  -18.5015   -9.2688 H         1 2FS701      0.0000 
     54 H         -10.0048  -22.1888   -5.1050 H         1 2FS701      0.0000 
     55 H         -11.1854  -22.0411   -6.5451 H         1 2FS701      0.0000 
     56 H         -11.3513  -22.4251   -8.2671 H         1 2FS701      0.0000 
     57 H          -8.3503  -24.6463   -8.2005 H         1 2FS701      0.0000 
     58 H         -10.3242  -23.2325   -9.9929 H         1 2FS701      0.0000 
     59 H          -9.0661  -24.3784  -10.4871 H         1 2FS701      0.0000 
@<TRIPOS>BOND
     1    2    1 1    
     2   21    1 ar   
     3   22    1 ar   
     4    3    2 1    
     5   23    2 1    
     6   33    2 1    
     7    4    3 1    
     8   34    3 1    
     9   35    3 1    
    10    5    4 1    
    11   36    4 1    
    12   37    4 1    
    13    6    5 1    
    14   38    5 1    
    15   39    5 1    
    16   23    6 1    
    17   40    6 1    
    18   41    6 1    
    19    8    7 2    
    20   23    7 1    
    21   24    7 am   
    22   25    9 1    
    23   26    9 1    
    24   42    9 1    
    25   43    9 1    
    26   11   10 ar   
    27   26   10 ar   
    28   27   10 1    
    29   12   11 ar   
    30   44   11 1    
    31   13   12 ar   
    32   45   12 1    
    33   14   13 ar   
    34   46   13 1    
    35   26   14 ar   
    36   47   14 1    
    37   16   15 1    
    38   29   15 1    
    39   48   15 1    
    40   49   15 1    
    41   17   16 ar   
    42   30   16 ar   
    43   18   17 ar   
    44   50   17 1    
    45   19   18 ar   
    46   51   18 1    
    47   20   19 ar   
    48   52   19 1    
    49   30   20 ar   
    50   53   20 1    
    51   54   23 1    
    52   25   24 1    
    53   27   24 1    
    54   55   25 1    
    55   56   25 1    
    56   28   27 1    
    57   57   27 1    
    58   29   28 1    
    59   58   28 1    
    60   59   28 1    
    61   31   29 am   
    62   31   30 1    
    63   32   31 2    
@<TRIPOS>SUBSTRUCTURE
     1 2FS701      1 GROUP   
@<TRIPOS>SET

