#    Name: 3tnq_ADP_1_INTS_M
#    Modification time : Mon Mar 24 20:26:45 2014

@<TRIPOS>MOLECULE
3tnq_ADP_1_INTS_M
   69     0    15     0     0
SMALL
NO_CHARGES


@<TRIPOS>ATOM
      1 NZ         45.2425  -29.9195  -40.3860 N.4       3 LYC4        0.0000 
      2 NZ         44.2070  -31.3080  -40.4340 N.4      13 LYL4        0.0000 
      3 NZ         46.2780  -28.5310  -40.3380 N.4       8 LYP4        0.0000 
      4 N          45.2425  -29.9195  -40.3860 N.am      2 SEC2        0.0000 
      5 N          44.2070  -31.3080  -40.4340 N.am     12 SEL2        0.0000 
      6 N          46.2780  -28.5310  -40.3380 N.am      7 SEP2        0.0000 
      7 NZ         45.4985  -29.8575  -39.1580 N.4       3 LYC4        0.0000 
      8 NZ         44.7190  -31.1840  -37.9780 N.4      13 LYL4        0.0000 
      9 Zn         45.1605  -31.5915  -36.9105 Zn        4 ZIC7        0.0000 
     10 Zn         44.7190  -31.1840  -37.9780 Zn       14 ZIL7        0.0000 
     11 Zn         45.6020  -31.9990  -35.8430 Zn        9 ZIP7        0.0000 
     12 Zn         43.9935  -30.1580  -37.8765 Zn        4 ZIC7        0.0000 
     13 Zn         43.2680  -29.1320  -37.7750 Zn        9 ZIP7        0.0000 
     14 NZ         47.1775  -29.0735  -39.6650 N.4       3 LYC4        0.0000 
     15 NZ         48.0770  -29.6160  -38.9920 N.4      13 LYL4        0.0000 
     16 N          47.1775  -29.0735  -39.6650 N.am      2 SEC2        0.0000 
     17 N          48.0770  -29.6160  -38.9920 N.am     12 SEL2        0.0000 
     18 Zn         46.5245  -31.7480  -36.5770 Zn        4 ZIC7        0.0000 
     19 Zn         47.4470  -31.4970  -37.3110 Zn       14 ZIL7        0.0000 
     20 CA         50.3195  -35.3985  -40.6745 C.3       5 GLC5        0.0000 
     21 CA         50.1110  -34.0610  -39.1130 C.3      15 GLL5        0.0000 
     22 CA         50.5280  -36.7360  -42.2360 C.3      10 GLP5        0.0000 
     23 O          49.9225  -34.3940  -35.2785 O.2       1 ALC1        0.0000 
     24 O          50.3260  -34.8130  -36.7850 O.2      11 ALL1        0.0000 
     25 O          49.5190  -33.9750  -33.7720 O.2       6 ALP1        0.0000 
     26 CA         52.5435  -35.1360  -36.1970 C.3       5 GLC5        0.0000 
     27 CA         52.2250  -33.9970  -38.0110 C.3      15 GLL5        0.0000 
     28 CA         52.8620  -36.2750  -34.3830 C.3      10 GLP5        0.0000 
     29 CA         53.3290  -33.5590  -36.3610 C.3       5 GLC5        0.0000 
     30 CA         54.4330  -33.1210  -34.7110 C.3      10 GLP5        0.0000 
     31 CA         54.2625  -34.8765  -38.1660 C.3       5 GLC5        0.0000 
     32 CA         56.3000  -35.7560  -38.3210 C.3      10 GLP5        0.0000 
     33 O          51.8945  -36.1020  -36.8845 O.2       1 ALC1        0.0000 
     34 O          52.6160  -35.3620  -37.8190 O.2      11 ALL1        0.0000 
     35 O          51.1730  -36.8420  -35.9500 O.2       6 ALP1        0.0000 
     36 CA         51.4055  -32.9670  -41.0670 C.3       5 GLC5        0.0000 
     37 CA         52.3740  -33.6150  -39.4700 C.3      15 GLL5        0.0000 
     38 CA         50.4370  -32.3190  -42.6640 C.3      10 GLP5        0.0000 
     39 CA         53.4285  -28.5825  -39.9490 C.3       5 GLC5        0.0000 
     40 CA         54.3670  -30.5050  -39.5040 C.3      15 GLL5        0.0000 
     41 CA         52.4900  -26.6600  -40.3940 C.3      10 GLP5        0.0000 
     42 CA         52.9375  -29.9305  -37.9605 C.3       5 GLC5        0.0000 
     43 CA         51.5080  -29.3560  -36.4170 C.3      10 GLP5        0.0000 
     44 CA         57.6930  -29.3710  -40.2280 C.3       5 GLC5        0.0000 
     45 CA         55.7150  -29.9150  -39.5230 C.3      15 GLL5        0.0000 
     46 CA         59.6710  -28.8270  -40.9330 C.3      10 GLP5        0.0000 
     47 CA         57.0510  -29.2100  -37.9815 C.3       5 GLC5        0.0000 
     48 CA         58.3870  -28.5050  -36.4400 C.3      10 GLP5        0.0000 
     49 O          57.1485  -27.6940  -39.5620 O.2       1 ALC1        0.0000 
     50 O          55.9040  -28.5740  -39.5270 O.2      11 ALL1        0.0000 
     51 O          58.3930  -26.8140  -39.5970 O.2       6 ALP1        0.0000 
     52 N          58.0960  -30.2605  -39.1100 N.am      2 SEC2        0.0000 
     53 N          56.7530  -30.7680  -39.5310 N.am     12 SEL2        0.0000 
     54 N          59.4390  -29.7530  -38.6890 N.am      7 SEP2        0.0000 
     55 CA         56.6210  -32.9420  -41.3230 C.3       5 GLC5        0.0000 
     56 CA         56.5900  -32.1030  -39.5180 C.3      15 GLL5        0.0000 
     57 CA         56.6520  -33.7810  -43.1280 C.3      10 GLP5        0.0000 
     58 CA         56.4435  -30.8695  -41.2580 C.3       5 GLC5        0.0000 
     59 CA         56.2970  -29.6360  -42.9980 C.3      10 GLP5        0.0000 
     60 CA         58.2305  -31.1770  -38.4560 C.3       5 GLC5        0.0000 
     61 CA         59.8710  -30.2510  -37.3940 C.3      10 GLP5        0.0000 
     62 CA         55.8175  -31.6235  -37.8225 C.3       5 GLC5        0.0000 
     63 CA         55.0450  -31.1440  -36.1270 C.3      10 GLP5        0.0000 
     64 CA         49.9402  -33.0142  -40.9280 C.3       5 GLC5        0.0000 
     65 CA         53.5230  -31.4125  -41.4523 C.3       5 GLC5        0.0000 
     66 CA         54.2650  -31.9690  -39.4970 C.3      15 GLL5        0.0000 
     67 CA         52.7300  -31.5880  -43.4040 C.3      10 GLP5        0.0000 
     68 CA         55.6690  -29.9230  -41.2557 C.3       5 GLC5        0.0000 
     69 CA         54.8490  -31.1167  -37.8161 C.3       5 GLC5        0.0000 
@<TRIPOS>BOND
@<TRIPOS>SUBSTRUCTURE
     1 ALC1       23 GROUP        1 X    ALC  0     ROOT ALC X 1
     2 SEC2        4 GROUP        1 X    SEC  0     **** SEC X 2
     3 LYC4        1 GROUP        1 X    LYC  0     **** LYC X 4
     4 ZIC7        9 GROUP        1 X    ZIC  0     **** ZIC X 5
     5 GLC5       20 GROUP        1 X    GLC  0     **** GLC X 6
     6 ALP1       25 GROUP        1 Y    ALP  0     ROOT ALP Y 8
     7 SEP2        6 GROUP        1 Y    SEP  0     **** SEP Y 9
     8 LYP4        3 GROUP        1 Y    LYP  0     **** LYP Y 11
     9 ZIP7       11 GROUP        1 Y    ZIP  0     **** ZIP Y 12
    10 GLP5       22 GROUP        1 Y    GLP  0     **** GLP Y 13
    11 ALL1       24 GROUP        1 Z    ALL  0     ROOT ALL Z 15
    12 SEL2        5 GROUP        1 Z    SEL  0     **** SEL Z 16
    13 LYL4        2 GROUP        1 Z    LYL  0     **** LYL Z 18
    14 ZIL7       10 GROUP        1 Z    ZIL  0     **** ZIL Z 19
    15 GLL5       21 GROUP        1 Z    GLL  0     **** GLL Z 20
@<TRIPOS>SET

