#    Name: 3tnq_ADP_1_ligand
#    Modification time : Mon Mar 24 20:26:45 2014

@<TRIPOS>MOLECULE
3tnq_ADP_1_ligand
   39    41     1     0     0
SMALL
NO_CHARGES


@<TRIPOS>ATOM
      1 PB         45.0030  -31.8970  -39.2840 P.3       1 ADP400      0.0000 
      2 O1B        44.2070  -31.3080  -40.4340 O.co2     1 ADP400      0.0000 
      3 O2B        44.7190  -31.1840  -37.9780 O.co2     1 ADP400      0.0000 
      4 O3B        44.9720  -33.4170  -39.1240 O.co2     1 ADP400      0.0000 
      5 PA         47.7080  -31.0480  -38.7370 P.3       1 ADP400      0.0000 
      6 O1A        48.0770  -29.6160  -38.9920 O.co2     1 ADP400      0.0000 
      7 O2A        47.4470  -31.4970  -37.3110 O.co2     1 ADP400      0.0000 
      8 O3A        46.5160  -31.5210  -39.7210 O.3       1 ADP400      0.0000 
      9 O5'        48.9230  -31.9450  -39.2790 O.3       1 ADP400      0.0000 
     10 C5'        48.7760  -33.3580  -39.2710 C.3       1 ADP400      0.0000 
     11 C4'        50.1110  -34.0610  -39.1130 C.3       1 ADP400      0.0000 
     12 O4'        51.0680  -33.5890  -40.0540 O.3       1 ADP400      0.0000 
     13 C3'        50.7470  -33.8410  -37.7480 C.3       1 ADP400      0.0000 
     14 O3'        50.3260  -34.8130  -36.7850 O.3       1 ADP400      0.0000 
     15 C2'        52.2250  -33.9970  -38.0110 C.3       1 ADP400      0.0000 
     16 O2'        52.6160  -35.3620  -37.8190 O.3       1 ADP400      0.0000 
     17 C1'        52.3740  -33.6150  -39.4700 C.3       1 ADP400      0.0000 
     18 N9         52.9630  -32.2550  -39.4890 N.pl3     1 ADP400      0.0000 
     19 C8         52.2790  -31.1000  -39.4800 C.2       1 ADP400      0.0000 
     20 N7         53.1150  -30.0310  -39.4930 N.2       1 ADP400      0.0000 
     21 C5         54.3670  -30.5050  -39.5040 C.ar      1 ADP400      0.0000 
     22 C6         55.7150  -29.9150  -39.5230 C.ar      1 ADP400      0.0000 
     23 N6         55.9040  -28.5740  -39.5270 N.pl3     1 ADP400      0.0000 
     24 N1         56.7530  -30.7680  -39.5310 N.ar      1 ADP400      0.0000 
     25 C2         56.5900  -32.1030  -39.5180 C.ar      1 ADP400      0.0000 
     26 N3         55.3960  -32.7080  -39.5000 N.ar      1 ADP400      0.0000 
     27 C4         54.2650  -31.9690  -39.4970 C.ar      1 ADP400      0.0000 
     28 H          48.3125  -33.7235  -40.2069 H         1 ADP400      0.0000 
     29 H          48.1199  -33.6934  -38.4456 H         1 ADP400      0.0000 
     30 H          49.9671  -35.1311  -39.2346 H         1 ADP400      0.0000 
     31 H          50.5657  -32.8399  -37.4459 H         1 ADP400      0.0000 
     32 H          52.7584  -33.3138  -37.4192 H         1 ADP400      0.0000 
     33 H          53.0181  -34.3041  -39.9398 H         1 ADP400      0.0000 
     34 H          51.2974  -31.0289  -39.4658 H         1 ADP400      0.0000 
     35 H          55.0768  -28.0130  -39.4949 H         1 ADP400      0.0000 
     36 H          56.8540  -28.2636  -39.5617 H         1 ADP400      0.0000 
     37 H          57.4682  -32.7155  -39.5223 H         1 ADP400      0.0000 
     38 H          50.1043  -34.2855  -35.9649 H         1 ADP400      0.0000 
     39 H          51.9833  -35.7180  -37.1313 H         1 ADP400      0.0000 
@<TRIPOS>BOND
     1    2    1 ar   
     2    3    1 ar   
     3    4    1 ar   
     4    8    1 1    
     5    6    5 ar   
     6    7    5 ar   
     7    8    5 1    
     8    9    5 1    
     9   10    9 1    
    10   11   10 1    
    11   28   10 1    
    12   29   10 1    
    13   12   11 1    
    14   13   11 1    
    15   30   11 1    
    16   17   12 1    
    17   14   13 1    
    18   15   13 1    
    19   31   13 1    
    20   38   14 1    
    21   16   15 1    
    22   17   15 1    
    23   32   15 1    
    24   39   16 1    
    25   18   17 1    
    26   33   17 1    
    27   19   18 1    
    28   27   18 1    
    29   20   19 2    
    30   34   19 1    
    31   21   20 1    
    32   22   21 ar   
    33   27   21 ar   
    34   23   22 1    
    35   24   22 ar   
    36   35   23 1    
    37   36   23 1    
    38   25   24 ar   
    39   26   25 ar   
    40   37   25 1    
    41   27   26 ar   
@<TRIPOS>SUBSTRUCTURE
     1 ADP400      1 GROUP   
@<TRIPOS>SET

