#    Name: 3oxc_ROC_1_INTS_M
#    Modification time : Tue Mar 25 05:35:39 2014

@<TRIPOS>MOLECULE
3oxc_ROC_1_INTS_M
   94     0     9     0     0
SMALL
NO_CHARGES


@<TRIPOS>ATOM
      1 N           7.6370   -5.3135   20.4520 N.am      2 SEC2        0.0000 
      2 N           6.7550   -5.9360   19.3950 N.am      8 SEL2        0.0000 
      3 N           8.5190   -4.6910   21.5090 N.am      5 SEP2        0.0000 
      4 CA          5.6695   -9.8680   14.5065 C.3       3 GLC5        0.0000 
      5 CA          3.9420   -9.9240   15.8020 C.3       9 GLL5        0.0000 
      6 CA          7.3970   -9.8120   13.2110 C.3       6 GLP5        0.0000 
      7 O           6.7185   -6.9465   15.9225 O.2       1 ALC1        0.0000 
      8 O           6.4880   -5.9480   17.1620 O.2       7 ALL1        0.0000 
      9 O           6.9490   -7.9450   14.6830 O.2       4 ALP1        0.0000 
     10 CA          7.6140   -3.6430   18.6610 C.3       3 GLC5        0.0000 
     11 CA          7.2860   -4.7110   16.9570 C.3       9 GLL5        0.0000 
     12 CA          7.9420   -2.5750   20.3650 C.3       6 GLP5        0.0000 
     13 N          10.5325   -5.2905   19.9360 N.am      2 SEC2        0.0000 
     14 N           9.8230   -5.3730   18.5300 N.am      8 SEL2        0.0000 
     15 N          11.2420   -5.2080   21.3420 N.am      5 SEP2        0.0000 
     16 O          10.7405   -7.7770   18.3575 O.2       1 ALC1        0.0000 
     17 O           9.6760   -7.1570   17.2010 O.2       7 ALL1        0.0000 
     18 O          11.8050   -8.3970   19.5140 O.2       4 ALP1        0.0000 
     19 N           6.0195    0.7890   18.4575 N.am      2 SEC2        0.0000 
     20 N           5.3610    0.0030   17.5450 N.am      8 SEL2        0.0000 
     21 N           6.6780    1.5750   19.3700 N.am      5 SEP2        0.0000 
     22 O           3.9270    0.2535   17.6770 O.2       1 ALC1        0.0000 
     23 O           5.3610    0.0030   17.5450 O.2       7 ALL1        0.0000 
     24 O           2.4930    0.5040   17.8090 O.2       4 ALP1        0.0000 
     25 CA          2.2510   -4.0145   12.9275 C.3       3 GLC5        0.0000 
     26 CA          2.6420   -4.0520   15.0640 C.3       9 GLL5        0.0000 
     27 CA          1.8600   -3.9770   10.7910 C.3       6 GLP5        0.0000 
     28 CA          2.2705   -5.3935   13.0185 C.3       3 GLC5        0.0000 
     29 CA          2.1460   -5.3490   15.1660 C.3       9 GLL5        0.0000 
     30 CA          2.3950   -5.4380   10.8710 C.3       6 GLP5        0.0000 
     31 CA          0.7660   -6.5340   13.9395 C.3       3 GLC5        0.0000 
     32 CA         -0.6140   -7.7190   12.7130 C.3       6 GLP5        0.0000 
     33 CA          5.4860    2.5225   16.3840 C.3       3 GLC5        0.0000 
     34 CA          5.1910    0.7120   15.2220 C.3       9 GLL5        0.0000 
     35 CA          5.7810    4.3330   17.5460 C.3       6 GLP5        0.0000 
     36 CA          3.8800    2.3970   15.3195 C.3       3 GLC5        0.0000 
     37 CA          2.5690    4.0820   15.4170 C.3       6 GLP5        0.0000 
     38 CA          5.6485   -0.0935   10.2990 C.3       3 GLC5        0.0000 
     39 CA          5.9850    1.1910   11.5490 C.3       9 GLL5        0.0000 
     40 CA          5.3120   -1.3780    9.0490 C.3       6 GLP5        0.0000 
     41 CA          9.7605    3.2500   10.3960 C.3       3 GLC5        0.0000 
     42 CA          8.1840    1.8200   10.3990 C.3       9 GLL5        0.0000 
     43 CA         11.3370    4.6800   10.3930 C.3       6 GLP5        0.0000 
     44 CA          6.9460   -0.5215    9.6035 C.3       3 GLC5        0.0000 
     45 CA          8.5800    0.3350   10.1580 C.3       9 GLL5        0.0000 
     46 CA         10.7690    0.1155    9.6980 C.3       3 GLC5        0.0000 
     47 CA          9.4840   -0.0220   11.3390 C.3       9 GLL5        0.0000 
     48 CA         12.0540    0.2530    8.0570 C.3       6 GLP5        0.0000 
     49 CA          9.1945   -1.8080   12.0750 C.3       3 GLC5        0.0000 
     50 CA          8.5130   -0.0840   12.5620 C.3       9 GLL5        0.0000 
     51 CA          9.8760   -3.5320   11.5880 C.3       6 GLP5        0.0000 
     52 CA          8.1210    3.1605   14.9205 C.3       3 GLC5        0.0000 
     53 CA          7.2120    1.4010   14.1400 C.3       9 GLL5        0.0000 
     54 CA          9.0300    4.9200   15.7010 C.3       6 GLP5        0.0000 
     55 CA         -0.9130    3.6290   11.7430 C.3       3 GLC5        0.0000 
     56 CA          0.5600    2.2900   11.9480 C.3       9 GLL5        0.0000 
     57 CA         -2.3860    4.9680   11.5380 C.3       6 GLP5        0.0000 
     58 CA         -1.3020    1.2930   12.0030 C.3       3 GLC5        0.0000 
     59 CA         -3.1640    0.2960   12.0580 C.3       6 GLP5        0.0000 
     60 CA         -1.1450    0.2455   12.6475 C.3       3 GLC5        0.0000 
     61 CA          0.8740    0.1950   13.2370 C.3       9 GLL5        0.0000 
     62 CA         -0.2200   -0.6630   14.0925 C.3       3 GLC5        0.0000 
     63 CA         -1.3140   -1.5210   14.9480 C.3       6 GLP5        0.0000 
     64 CA         -0.2995   -0.0060    9.7020 C.3       3 GLC5        0.0000 
     65 CA          1.3740    0.1330   10.7970 C.3       9 GLL5        0.0000 
     66 CA         -1.9730   -0.1450    8.6070 C.3       6 GLP5        0.0000 
     67 CA          1.2968   -8.9672   18.5105 C.3       3 GLC5        0.0000 
     68 CA          3.3460   -9.6790   18.1210 C.3       9 GLL5        0.0000 
     69 CA         -0.3240   -7.8940   18.6430 C.3       6 GLP5        0.0000 
     70 CA          1.5214   -9.9810   15.1810 C.3       3 GLC5        0.0000 
     71 CA          2.3200  -11.4040   16.8280 C.3       9 GLL5        0.0000 
     72 CA         -0.2610   -9.4160   14.3230 C.3       6 GLP5        0.0000 
     73 CA          1.0833   -2.9043   17.1620 C.3       3 GLC5        0.0000 
     74 CA          2.9570   -4.0030   17.4320 C.3       9 GLL5        0.0000 
     75 CA         -0.8460   -2.1180   17.5110 C.3       6 GLP5        0.0000 
     76 CA          3.8955   -5.6848   13.9330 C.3       3 GLC5        0.0000 
     77 CA          5.3970   -6.6690   12.7510 C.3       6 GLP5        0.0000 
     78 CA          2.1128   -3.8450   19.2420 C.3       3 GLC5        0.0000 
     79 CA          2.4840   -5.3150   17.5500 C.3       9 GLL5        0.0000 
     80 CA          1.5050   -3.0310   20.9930 C.3       6 GLP5        0.0000 
     81 CA          0.9892   -6.7773   17.8057 C.3       3 GLC5        0.0000 
     82 CA          9.7880    1.2617    8.9848 C.3       3 GLC5        0.0000 
     83 CA         11.1940    1.4460    7.6910 C.3       6 GLP5        0.0000 
     84 CA         10.0145   -1.4417   10.7383 C.3       3 GLC5        0.0000 
     85 CA         10.9970   -3.0400   10.7280 C.3       6 GLP5        0.0000 
     86 CA         10.1307   -0.0250   13.1402 C.3       3 GLC5        0.0000 
     87 CA         11.2630    0.0030   14.3300 C.3       6 GLP5        0.0000 
     88 CA          9.4545    0.6923   13.9215 C.3       3 GLC5        0.0000 
     89 CA          8.0800    1.3620   12.8860 C.3       9 GLL5        0.0000 
     90 CA          1.1895    2.0010   14.2109 C.3       3 GLC5        0.0000 
     91 CA          1.4530    3.0810   15.8030 C.3       6 GLP5        0.0000 
     92 CA          0.4987   -1.1714   11.6310 C.3       3 GLC5        0.0000 
     93 CA          1.3960    1.0040   12.0530 C.3       9 GLL5        0.0000 
     94 CA         -0.2570   -2.7090   11.5410 C.3       6 GLP5        0.0000 
@<TRIPOS>BOND
@<TRIPOS>SUBSTRUCTURE
     1 ALC1        7 GROUP        1 X    ALC  0     ROOT ALC X 1
     2 SEC2        1 GROUP        1 X    SEC  0     **** SEC X 2
     3 GLC5        4 GROUP        1 X    GLC  0     **** GLC X 6
     4 ALP1        9 GROUP        1 Y    ALP  0     ROOT ALP Y 8
     5 SEP2        3 GROUP        1 Y    SEP  0     **** SEP Y 9
     6 GLP5        6 GROUP        1 Y    GLP  0     **** GLP Y 13
     7 ALL1        8 GROUP        1 Z    ALL  0     ROOT ALL Z 15
     8 SEL2        2 GROUP        1 Z    SEL  0     **** SEL Z 16
     9 GLL5        5 GROUP        1 Z    GLL  0     **** GLL Z 20
@<TRIPOS>SET

