#    Name: 3oxc_ROC_1_ligand
#    Modification time : Tue Mar 25 05:35:39 2014

@<TRIPOS>MOLECULE
3oxc_ROC_1_ligand
  100   104     1     0     0
SMALL
NO_CHARGES


@<TRIPOS>ATOM
      1 C           6.1770   -6.4120   18.3710 C.2       1 ROC401      0.0000 
      2 O           6.7550   -5.9360   19.3950 O.2       1 ROC401      0.0000 
      3 N1          4.9600   -8.2310   17.1490 N.ar      1 ROC401      0.0000 
      4 C2          5.1600   -7.5720   18.3300 C.ar      1 ROC401      0.0000 
      5 C3          4.4570   -7.9930   19.4390 C.ar      1 ROC401      0.0000 
      6 C4          3.4980   -9.0230   19.3430 C.ar      1 ROC401      0.0000 
      7 C5          2.4130  -10.7300   18.0240 C.ar      1 ROC401      0.0000 
      8 C6          2.3200  -11.4040   16.8280 C.ar      1 ROC401      0.0000 
      9 C7          3.0110  -10.9320   15.7240 C.ar      1 ROC401      0.0000 
     10 C8          3.9420   -9.9240   15.8020 C.ar      1 ROC401      0.0000 
     11 C4A         3.3460   -9.6790   18.1210 C.ar      1 ROC401      0.0000 
     12 C8A         4.0940   -9.2390   17.0270 C.ar      1 ROC401      0.0000 
     13 N           6.4880   -5.9480   17.1620 N.am      1 ROC401      0.0000 
     14 CA          7.2860   -4.7110   16.9570 C.3       1 ROC401      0.0000 
     15 C1          6.5450   -3.7840   15.9510 C.2       1 ROC401      0.0000 
     16 O1          6.5510   -3.9780   14.7190 O.2       1 ROC401      0.0000 
     17 CB          8.6740   -5.0780   16.4420 C.3       1 ROC401      0.0000 
     18 CG          9.4610   -5.8910   17.4900 C.2       1 ROC401      0.0000 
     19 OD1         9.8230   -5.3730   18.5300 O.2       1 ROC401      0.0000 
     20 ND2         9.6760   -7.1570   17.2010 N.am      1 ROC401      0.0000 
     21 C9          5.6350   -0.3890   16.1730 C.3       1 ROC401      0.0000 
     22 O2          5.3610    0.0030   17.5450 O.3       1 ROC401      0.0000 
     23 CA1         5.0990   -1.7890   15.8360 C.3       1 ROC401      0.0000 
     24 N2          5.8840   -2.7870   16.5750 N.am      1 ROC401      0.0000 
     25 CB1         3.6060   -1.9610   16.0990 C.3       1 ROC401      0.0000 
     26 CG1         3.0680   -3.3780   16.1940 C.ar      1 ROC401      0.0000 
     27 CD1         2.6420   -4.0520   15.0640 C.ar      1 ROC401      0.0000 
     28 CD2         2.9570   -4.0030   17.4320 C.ar      1 ROC401      0.0000 
     29 CE1         2.1460   -5.3490   15.1660 C.ar      1 ROC401      0.0000 
     30 CE2         2.4840   -5.3150   17.5500 C.ar      1 ROC401      0.0000 
     31 CZ          2.1210   -6.0060   16.3870 C.ar      1 ROC401      0.0000 
     32 N11         5.9060    0.6920   13.9550 N.4       1 ROC401      0.0000 
     33 CM          5.1910    0.7120   15.2220 C.3       1 ROC401      0.0000 
     34 C21         5.1690    1.2770   12.8350 C.3       1 ROC401      0.0000 
     35 CC          3.8210    0.6310   12.5220 C.2       1 ROC401      0.0000 
     36 O3          3.8210   -0.5980   12.3830 O.2       1 ROC401      0.0000 
     37 C31         5.9850    1.1910   11.5490 C.3       1 ROC401      0.0000 
     38 C3A         7.3300    1.9030   11.6680 C.3       1 ROC401      0.0000 
     39 C41         8.1840    1.8200   10.3990 C.3       1 ROC401      0.0000 
     40 C51         8.5800    0.3350   10.1580 C.3       1 ROC401      0.0000 
     41 C61         9.4840   -0.0220   11.3390 C.3       1 ROC401      0.0000 
     42 C71         8.5130   -0.0840   12.5620 C.3       1 ROC401      0.0000 
     43 C7A         8.0800    1.3620   12.8860 C.3       1 ROC401      0.0000 
     44 C81         7.2120    1.4010   14.1400 C.3       1 ROC401      0.0000 
     45 N3          2.7730    1.4410   12.3490 N.am      1 ROC401      0.0000 
     46 CD          1.3960    1.0040   12.0530 C.3       1 ROC401      0.0000 
     47 C11         0.5600    2.2900   11.9480 C.3       1 ROC401      0.0000 
     48 C22         0.8740    0.1950   13.2370 C.3       1 ROC401      0.0000 
     49 C32         1.3740    0.1330   10.7970 C.3       1 ROC401      0.0000 
     50 H           4.6252   -7.5560   20.3608 H         1 ROC401      0.0000 
     51 H           2.9356   -9.2756   20.1475 H         1 ROC401      0.0000 
     52 H           1.8340  -10.9710   18.8209 H         1 ROC401      0.0000 
     53 H           1.7434  -12.2515   16.7500 H         1 ROC401      0.0000 
     54 H           2.8112  -11.3670   14.7873 H         1 ROC401      0.0000 
     55 H           4.5175   -9.6641   15.0041 H         1 ROC401      0.0000 
     56 H           6.1897   -6.4257   16.2831 H         1 ROC401      0.0000 
     57 H           7.3844   -4.1819   17.8873 H         1 ROC401      0.0000 
     58 H           9.2290   -4.1694   16.2126 H         1 ROC401      0.0000 
     59 H           8.5799   -5.6722   15.5342 H         1 ROC401      0.0000 
     60 H           9.2976   -7.4808   16.3338 H         1 ROC401      0.0000 
     61 H          10.1982   -7.6796   17.8749 H         1 ROC401      0.0000 
     62 H           6.7595   -0.4518   16.0644 H         1 ROC401      0.0000 
     63 H           5.2720   -1.9472   14.7569 H         1 ROC401      0.0000 
     64 H           5.8989   -2.6780   17.6074 H         1 ROC401      0.0000 
     65 H           3.0422   -1.4174   15.2986 H         1 ROC401      0.0000 
     66 H           3.3495   -1.4171   17.0437 H         1 ROC401      0.0000 
     67 H           2.6902   -3.5959   14.1406 H         1 ROC401      0.0000 
     68 H           3.2303   -3.4876   18.2900 H         1 ROC401      0.0000 
     69 H           1.7924   -5.8263   14.3192 H         1 ROC401      0.0000 
     70 H           2.4053   -5.7578   18.4609 H         1 ROC401      0.0000 
     71 H           1.8402   -6.9889   16.4445 H         1 ROC401      0.0000 
     72 H           6.1563   -0.3582   13.7081 H         1 ROC401      0.0000 
     73 H           5.3317    1.6837   15.7340 H         1 ROC401      0.0000 
     74 H           4.1016    0.6027   15.0569 H         1 ROC401      0.0000 
     75 H           4.9861    2.3447   13.0081 H         1 ROC401      0.0000 
     76 H           5.4129    1.6400   10.7298 H         1 ROC401      0.0000 
     77 H           6.1575    0.1376   11.3028 H         1 ROC401      0.0000 
     78 H           7.1232    2.9687   11.8687 H         1 ROC401      0.0000 
     79 H           9.0805    2.4030   10.5240 H         1 ROC401      0.0000 
     80 H           7.6162    2.1699    9.5538 H         1 ROC401      0.0000 
     81 H           9.1215    0.2638    9.2490 H         1 ROC401      0.0000 
     82 H           7.7050   -0.2640   10.1737 H         1 ROC401      0.0000 
     83 H          10.1935    0.7456   11.5028 H         1 ROC401      0.0000 
     84 H           9.9156   -0.9772   11.1948 H         1 ROC401      0.0000 
     85 H           9.0338   -0.5005   13.3981 H         1 ROC401      0.0000 
     86 H           7.6562   -0.6660   12.2959 H         1 ROC401      0.0000 
     87 H           8.9648    1.9503   13.0365 H         1 ROC401      0.0000 
     88 H           7.7703    0.9418   14.9685 H         1 ROC401      0.0000 
     89 H           7.0300    2.4514   14.4091 H         1 ROC401      0.0000 
     90 H           2.8848    2.4964   12.4197 H         1 ROC401      0.0000 
     91 H           0.5809    2.8169   12.7976 H         1 ROC401      0.0000 
     92 H           0.8933    2.8914   11.2219 H         1 ROC401      0.0000 
     93 H          -0.4000    2.0936   11.7484 H         1 ROC401      0.0000 
     94 H           1.4358   -0.6138   13.4107 H         1 ROC401      0.0000 
     95 H           0.8663    0.7330   14.0799 H         1 ROC401      0.0000 
     96 H          -0.0612   -0.1248   13.0849 H         1 ROC401      0.0000 
     97 H           1.7216    0.6242    9.9983 H         1 ROC401      0.0000 
     98 H           1.9358   -0.6873   10.9040 H         1 ROC401      0.0000 
     99 H           0.4485   -0.1727   10.5732 H         1 ROC401      0.0000 
    100 H           4.3696    0.1272   17.5855 H         1 ROC401      0.0000 
@<TRIPOS>BOND
     1    2    1 2    
     2    4    1 1    
     3   13    1 am   
     4    4    3 ar   
     5   12    3 ar   
     6    5    4 ar   
     7    6    5 ar   
     8   50    5 1    
     9   11    6 ar   
    10   51    6 1    
    11    8    7 ar   
    12   11    7 ar   
    13   52    7 1    
    14    9    8 ar   
    15   53    8 1    
    16   10    9 ar   
    17   54    9 1    
    18   12   10 ar   
    19   55   10 1    
    20   12   11 ar   
    21   14   13 1    
    22   56   13 1    
    23   15   14 1    
    24   17   14 1    
    25   57   14 1    
    26   16   15 2    
    27   24   15 am   
    28   18   17 1    
    29   58   17 1    
    30   59   17 1    
    31   19   18 2    
    32   20   18 am   
    33   60   20 1    
    34   61   20 1    
    35   22   21 1    
    36   23   21 1    
    37   33   21 1    
    38   62   21 1    
    39  100   22 1    
    40   24   23 1    
    41   25   23 1    
    42   63   23 1    
    43   64   24 1    
    44   26   25 1    
    45   65   25 1    
    46   66   25 1    
    47   27   26 ar   
    48   28   26 ar   
    49   29   27 ar   
    50   67   27 1    
    51   30   28 ar   
    52   68   28 1    
    53   31   29 ar   
    54   69   29 1    
    55   31   30 ar   
    56   70   30 1    
    57   71   31 1    
    58   33   32 1    
    59   34   32 1    
    60   44   32 1    
    61   72   32 1    
    62   73   33 1    
    63   74   33 1    
    64   35   34 1    
    65   37   34 1    
    66   75   34 1    
    67   36   35 2    
    68   45   35 am   
    69   38   37 1    
    70   76   37 1    
    71   77   37 1    
    72   39   38 1    
    73   43   38 1    
    74   78   38 1    
    75   40   39 1    
    76   79   39 1    
    77   80   39 1    
    78   41   40 1    
    79   81   40 1    
    80   82   40 1    
    81   42   41 1    
    82   83   41 1    
    83   84   41 1    
    84   43   42 1    
    85   85   42 1    
    86   86   42 1    
    87   44   43 1    
    88   87   43 1    
    89   88   44 1    
    90   89   44 1    
    91   46   45 1    
    92   90   45 1    
    93   47   46 1    
    94   48   46 1    
    95   49   46 1    
    96   91   47 1    
    97   92   47 1    
    98   93   47 1    
    99   94   48 1    
   100   95   48 1    
   101   96   48 1    
   102   97   49 1    
   103   98   49 1    
   104   99   49 1    
@<TRIPOS>SUBSTRUCTURE
     1 ROC401      1 GROUP   
@<TRIPOS>SET

