#    Name: 4ng2_OHN_3_INTS_M
#    Modification time : Tue Mar 25 13:07:31 2014

@<TRIPOS>MOLECULE
4ng2_OHN_3_INTS_M
   57     0     9     0     0
SMALL
NO_CHARGES


@<TRIPOS>ATOM
      1 CA         -2.7375   71.6430   10.7685 C.3       3 GLC5        0.0000 
      2 CA         -3.2300   71.0350   12.7070 C.3       9 GLL5        0.0000 
      3 CA         -2.2450   72.2510    8.8300 C.3       6 GLP5        0.0000 
      4 CA         -4.4210   72.3075   12.2625 C.3       3 GLC5        0.0000 
      5 CA         -5.6120   73.5800   11.8180 C.3       6 GLP5        0.0000 
      6 CA         -2.7235   69.3645   11.3335 C.3       3 GLC5        0.0000 
      7 CA         -2.2170   67.6940    9.9600 C.3       6 GLP5        0.0000 
      8 CA         -0.6335   71.2660   13.8985 C.3       3 GLC5        0.0000 
      9 CA         -2.6770   70.6540   14.0390 C.3       9 GLL5        0.0000 
     10 CA          1.4100   71.8780   13.7580 C.3       6 GLP5        0.0000 
     11 CA         -3.3225   67.1975   17.3055 C.3       3 GLC5        0.0000 
     12 CA         -2.0640   67.4820   15.8420 C.3       9 GLL5        0.0000 
     13 CA         -4.5810   66.9130   18.7690 C.3       6 GLP5        0.0000 
     14 CA          2.9160   66.2670   15.4830 C.3       3 GLC5        0.0000 
     15 CA          1.1870   66.0490   14.5640 C.3       9 GLL5        0.0000 
     16 CA          4.6450   66.4850   16.4020 C.3       6 GLP5        0.0000 
     17 CA          2.6150   68.0945   11.9355 C.3       3 GLC5        0.0000 
     18 CA          2.6590   66.3160   11.0760 C.3       9 GLL5        0.0000 
     19 CA          2.5710   69.8730   12.7950 C.3       6 GLP5        0.0000 
     20 N           3.1085   63.1640    9.1480 N.am      2 SEC2        0.0000 
     21 N           3.1320   64.4850    9.6820 N.am      8 SEL2        0.0000 
     22 N           3.0850   61.8430    8.6140 N.am      5 SEP2        0.0000 
     23 N           2.0685   64.7430    8.5985 N.am      2 SEC2        0.0000 
     24 N           1.0050   65.0010    7.5150 N.am      5 SEP2        0.0000 
     25 O           4.9795   67.0335   10.8120 O.2       1 ALC1        0.0000 
     26 O           4.9670   65.8760   10.0860 O.2       7 ALL1        0.0000 
     27 O           4.9920   68.1910   11.5380 O.2       4 ALP1        0.0000 
     28 CA          5.6045   67.7215    7.3410 C.3       3 GLC5        0.0000 
     29 CA          6.4530   66.0570    8.1420 C.3       9 GLL5        0.0000 
     30 CA          4.7560   69.3860    6.5400 C.3       6 GLP5        0.0000 
     31 CA          6.4490   65.3690    6.4935 C.3       3 GLC5        0.0000 
     32 CA          7.8880   65.5760    8.0600 C.3       9 GLL5        0.0000 
     33 CA          5.0100   65.1620    4.9270 C.3       6 GLP5        0.0000 
     34 CA          9.2365   67.1330    7.2265 C.3       3 GLC5        0.0000 
     35 CA         10.5850   68.6900    6.3930 C.3       6 GLP5        0.0000 
     36 CA          9.6245   64.6300    8.9805 C.3       3 GLC5        0.0000 
     37 CA         11.3610   63.6840    9.9010 C.3       6 GLP5        0.0000 
     38 N           7.1495   62.8660   12.1780 N.am      2 SEC2        0.0000 
     39 N           6.8720   63.7920   10.8270 N.am      8 SEL2        0.0000 
     40 N           7.4270   61.9400   13.5290 N.am      5 SEP2        0.0000 
     41 CA         -3.7180   70.5487   15.8703 C.3       3 GLC5        0.0000 
     42 CA         -4.6910   71.1830   17.6010 C.3       6 GLP5        0.0000 
     43 CA         -4.4941   69.6449   12.8157 C.3       3 GLC5        0.0000 
     44 CA         -6.1050   69.2800   11.8250 C.3       6 GLP5        0.0000 
     45 CA         -3.0200   65.8525   14.7510 C.3       3 GLC5        0.0000 
     46 CA         -4.4880   64.7690   13.7790 C.3       6 GLP5        0.0000 
     47 CA         -0.9908   65.4535   16.7690 C.3       3 GLC5        0.0000 
     48 CA         -1.3570   63.9280   18.0140 C.3       6 GLP5        0.0000 
     49 CA          0.1168   64.6312   12.9403 C.3       3 GLC5        0.0000 
     50 CA          0.9780   66.1900   13.0690 C.3       9 GLL5        0.0000 
     51 CA         -0.8490   63.1430   12.0640 C.3       6 GLP5        0.0000 
     52 CA          1.7163   68.1179   13.4009 C.3       3 GLC5        0.0000 
     53 CA          5.2988   64.9062    7.2130 C.3       3 GLC5        0.0000 
     54 CA          5.8200   65.1620    9.1580 C.3       9 GLL5        0.0000 
     55 CA          4.4610   64.2030    5.7760 C.3       6 GLP5        0.0000 
     56 CA          8.3652   66.6618    9.5260 C.3       3 GLC5        0.0000 
     57 CA          9.5600   67.5070   10.9510 C.3       6 GLP5        0.0000 
@<TRIPOS>BOND
@<TRIPOS>SUBSTRUCTURE
     1 ALC1       25 GROUP        1 X    ALC  0     ROOT ALC X 1
     2 SEC2       20 GROUP        1 X    SEC  0     **** SEC X 2
     3 GLC5        1 GROUP        1 X    GLC  0     **** GLC X 6
     4 ALP1       27 GROUP        1 Y    ALP  0     ROOT ALP Y 8
     5 SEP2       22 GROUP        1 Y    SEP  0     **** SEP Y 9
     6 GLP5        3 GROUP        1 Y    GLP  0     **** GLP Y 13
     7 ALL1       26 GROUP        1 Z    ALL  0     ROOT ALL Z 15
     8 SEL2       21 GROUP        1 Z    SEL  0     **** SEL Z 16
     9 GLL5        2 GROUP        1 Z    GLL  0     **** GLL Z 20
@<TRIPOS>SET

