#    Name: 4ng2_OHN_3_ligand
#    Modification time : Tue Mar 25 13:07:31 2014

@<TRIPOS>MOLECULE
4ng2_OHN_3_ligand
   48    48     1     0     0
SMALL
NO_CHARGES


@<TRIPOS>ATOM
      1 C21        -3.2300   71.0350   12.7070 C.3       1 OHN201      0.0000 
      2 C20        -2.6770   70.6540   14.0390 C.3       1 OHN201      0.0000 
      3 C19        -2.8130   69.1750   14.2400 C.3       1 OHN201      0.0000 
      4 C18        -1.6510   68.7000   15.0580 C.3       1 OHN201      0.0000 
      5 C17        -2.0640   67.4820   15.8420 C.3       1 OHN201      0.0000 
      6 C16        -1.0400   66.3900   15.6040 C.3       1 OHN201      0.0000 
      7 C15         0.3030   67.0220   15.3250 C.3       1 OHN201      0.0000 
      8 C14         1.1870   66.0490   14.5640 C.3       1 OHN201      0.0000 
      9 C13         0.9780   66.1900   13.0690 C.3       1 OHN201      0.0000 
     10 C11         2.1550   65.5890   12.3060 C.2       1 OHN201      0.0000 
     11 O12         2.7420   64.5720   12.7000 O.2       1 OHN201      0.0000 
     12 C10         2.6590   66.3160   11.0760 C.3       1 OHN201      0.0000 
     13 C8          3.5990   65.4350   10.3050 C.2       1 OHN201      0.0000 
     14 O9          3.1320   64.4850    9.6820 O.2       1 OHN201      0.0000 
     15 N7          4.9670   65.8760   10.0860 N.am      1 OHN201      0.0000 
     16 C1          5.8200   65.1620    9.1580 C.3       1 OHN201      0.0000 
     17 C5          6.4530   66.0570    8.1420 C.3       1 OHN201      0.0000 
     18 C4          7.8880   65.5760    8.0600 C.3       1 OHN201      0.0000 
     19 C2          6.9610   64.5100    9.8370 C.2       1 OHN201      0.0000 
     20 O6          6.8720   63.7920   10.8270 O.2       1 OHN201      0.0000 
     21 OAP         8.0000   64.4970    8.9260 O.3       1 OHN201      0.0000 
     22 H          -3.2181   71.1800   14.8277 H         1 OHN201      0.0000 
     23 H          -1.6235   70.9338   14.0952 H         1 OHN201      0.0000 
     24 H          -2.8137   68.6731   13.2779 H         1 OHN201      0.0000 
     25 H          -3.7404   68.9598   14.7608 H         1 OHN201      0.0000 
     26 H          -1.3385   69.4838   15.7438 H         1 OHN201      0.0000 
     27 H          -0.8200   68.4459   14.4045 H         1 OHN201      0.0000 
     28 H          -3.0362   67.1430   15.5084 H         1 OHN201      0.0000 
     29 H          -2.0989   67.7192   16.8974 H         1 OHN201      0.0000 
     30 H          -1.3443   65.7889   14.7534 H         1 OHN201      0.0000 
     31 H          -0.9713   65.7611   16.4855 H         1 OHN201      0.0000 
     32 H           0.7849   67.2860   16.2642 H         1 OHN201      0.0000 
     33 H           0.1664   67.9234   14.7309 H         1 OHN201      0.0000 
     34 H           0.9469   65.0297   14.8690 H         1 OHN201      0.0000 
     35 H           2.2321   66.2480   14.8042 H         1 OHN201      0.0000 
     36 H           0.8863   67.2440   12.8117 H         1 OHN201      0.0000 
     37 H           0.0637   65.6749   12.7788 H         1 OHN201      0.0000 
     38 H           3.1748   67.2258   11.3831 H         1 OHN201      0.0000 
     39 H           1.8110   66.5891   10.4480 H         1 OHN201      0.0000 
     40 H           5.3203   66.6801   10.5818 H         1 OHN201      0.0000 
     41 H           5.2663   64.3956    8.6231 H         1 OHN201      0.0000 
     42 H           6.4342   67.0711    8.4752 H         1 OHN201      0.0000 
     43 H           5.9804   65.9359    7.1924 H         1 OHN201      0.0000 
     44 H           8.5334   66.4108    8.3365 H         1 OHN201      0.0000 
     45 H           8.0891   65.3093    7.0216 H         1 OHN201      0.0000 
     46 H          -3.1543   72.0182   12.5409 H         1 OHN201      0.0000 
     47 H          -2.7508   70.5738   11.9602 H         1 OHN201      0.0000 
     48 H          -4.1979   70.7975   12.6250 H         1 OHN201      0.0000 
@<TRIPOS>BOND
     1    2    1 1    
     2   46    1 1    
     3   47    1 1    
     4   48    1 1    
     5    3    2 1    
     6   22    2 1    
     7   23    2 1    
     8    4    3 1    
     9   24    3 1    
    10   25    3 1    
    11    5    4 1    
    12   26    4 1    
    13   27    4 1    
    14    6    5 1    
    15   28    5 1    
    16   29    5 1    
    17    7    6 1    
    18   30    6 1    
    19   31    6 1    
    20    8    7 1    
    21   32    7 1    
    22   33    7 1    
    23    9    8 1    
    24   34    8 1    
    25   35    8 1    
    26   10    9 1    
    27   36    9 1    
    28   37    9 1    
    29   11   10 2    
    30   12   10 1    
    31   13   12 1    
    32   38   12 1    
    33   39   12 1    
    34   14   13 2    
    35   15   13 am   
    36   16   15 1    
    37   40   15 1    
    38   17   16 1    
    39   19   16 1    
    40   41   16 1    
    41   18   17 1    
    42   42   17 1    
    43   43   17 1    
    44   21   18 1    
    45   44   18 1    
    46   45   18 1    
    47   20   19 2    
    48   21   19 1    
@<TRIPOS>SUBSTRUCTURE
     1 OHN201      1 GROUP   
@<TRIPOS>SET

