#    Name: 1e7w_MTX_2_INTS_M
#    Modification time : Mon Mar 24 23:13:46 2014

@<TRIPOS>MOLECULE
1e7w_MTX_2_INTS_M
   49     0     9     0     0
SMALL
NO_CHARGES


@<TRIPOS>ATOM
      1 CA          0.5865   19.8745   31.6880 C.3       3 GLC5        0.0000 
      2 CA         -1.6380   20.0940   31.5720 C.3       9 GLL5        0.0000 
      3 CA          2.8110   19.6550   31.8040 C.3       6 GLP5        0.0000 
      4 CA         -1.7130   21.0995   30.2445 C.3       3 GLC5        0.0000 
      5 CA         -1.7880   22.1050   28.9170 C.3       6 GLP5        0.0000 
      6 CA         -1.0140   18.5230   32.1300 C.3       3 GLC5        0.0000 
      7 CA         -0.3900   16.9520   32.6880 C.3       6 GLP5        0.0000 
      8 CA         -1.8035   17.7610   31.6300 C.3       3 GLC5        0.0000 
      9 CA         -3.2170   18.5700   30.5720 C.3       9 GLL5        0.0000 
     10 CA         -9.5610   18.4250   32.5265 C.3       3 GLC5        0.0000 
     11 CA         -8.0320   19.0620   31.3470 C.3       9 GLL5        0.0000 
     12 CA        -11.0900   17.7880   33.7060 C.3       6 GLP5        0.0000 
     13 CA         -9.6065   15.8170   30.0595 C.3       3 GLC5        0.0000 
     14 CA         -8.4650   17.0010   30.0740 C.3       9 GLL5        0.0000 
     15 CA        -10.7480   14.6330   30.0450 C.3       6 GLP5        0.0000 
     16 CA         -6.6855   16.0195   30.9495 C.3       3 GLC5        0.0000 
     17 CA         -4.9060   15.0380   31.8250 C.3       6 GLP5        0.0000 
     18 CA        -10.2900   16.4550   29.0765 C.3       3 GLC5        0.0000 
     19 CA         -9.8320   18.2770   28.1080 C.3       9 GLL5        0.0000 
     20 N         -12.7990   19.2980   26.0085 N.am      2 SEC2        0.0000 
     21 N         -11.9150   20.1140   25.1110 N.am      8 SEL2        0.0000 
     22 N         -13.6830   18.4820   26.9060 N.am      5 SEP2        0.0000 
     23 CA         -8.9630   21.0000   24.2960 C.3       3 GLC5        0.0000 
     24 CA        -10.3070   22.7170   24.2250 C.3       9 GLL5        0.0000 
     25 CA         -7.6190   19.2830   24.3670 C.3       6 GLP5        0.0000 
     26 N          -8.3310   24.4040   24.5560 N.am      2 SEC2        0.0000 
     27 N          -9.6920   25.0710   24.1020 N.am      8 SEL2        0.0000 
     28 N          -6.9700   23.7370   25.0100 N.am      5 SEP2        0.0000 
     29 O           0.6350   21.4115   32.0135 O.2       1 ALC1        0.0000 
     30 O          -0.3660   20.4380   31.7300 O.2       7 ALL1        0.0000 
     31 O           1.6360   22.3850   32.2970 O.2       4 ALP1        0.0000 
     32 O           0.7740   20.0020   31.2225 O.2       1 ALC1        0.0000 
     33 O           1.9140   19.5660   30.7150 O.2       4 ALP1        0.0000 
     34 O          -1.1090   21.3780   32.9185 O.2       1 ALC1        0.0000 
     35 O          -1.8520   22.3180   34.1070 O.2       4 ALP1        0.0000 
     36 O          -2.5035   16.9505   28.9440 O.2       1 ALC1        0.0000 
     37 O          -3.4990   17.5230   29.7910 O.2       7 ALL1        0.0000 
     38 O          -1.5080   16.3780   28.0970 O.2       4 ALP1        0.0000 
     39 CA         -2.8331   20.8725   30.1769 C.3       3 GLC5        0.0000 
     40 CA         -8.9273   19.9560   25.8618 C.3       3 GLC5        0.0000 
     41 CA         -9.8950   21.0370   27.8160 C.3       9 GLL5        0.0000 
     42 CA         -8.9025   18.9213   25.9703 C.3       3 GLC5        0.0000 
     43 CA        -10.5400   18.8420   27.0390 C.3       9 GLL5        0.0000 
     44 CA        -11.9585   18.1966   27.6980 C.3       3 GLC5        0.0000 
     45 CA        -10.5760   20.2210   26.8970 C.3       9 GLL5        0.0000 
     46 CA        -13.7220   17.4890   27.8580 C.3       6 GLP5        0.0000 
     47 CA         -8.4164   22.7466   22.8771 C.3       3 GLC5        0.0000 
     48 CA         -9.6260   23.3970   21.9150 C.3       9 GLL5        0.0000 
     49 CA         -6.7480   22.3860   23.0390 C.3       6 GLP5        0.0000 
@<TRIPOS>BOND
@<TRIPOS>SUBSTRUCTURE
     1 ALC1       29 GROUP        1 X    ALC  0     ROOT ALC X 1
     2 SEC2       20 GROUP        1 X    SEC  0     **** SEC X 2
     3 GLC5        1 GROUP        1 X    GLC  0     **** GLC X 6
     4 ALP1       31 GROUP        1 Y    ALP  0     ROOT ALP Y 8
     5 SEP2       22 GROUP        1 Y    SEP  0     **** SEP Y 9
     6 GLP5        3 GROUP        1 Y    GLP  0     **** GLP Y 13
     7 ALL1       30 GROUP        1 Z    ALL  0     ROOT ALL Z 15
     8 SEL2       21 GROUP        1 Z    SEL  0     **** SEL Z 16
     9 GLL5        2 GROUP        1 Z    GLL  0     **** GLL Z 20
@<TRIPOS>SET

