#    Name: 1e7w_MTX_2_ligand
#    Modification time : Mon Mar 24 23:13:46 2014

@<TRIPOS>MOLECULE
1e7w_MTX_2_ligand
   53    55     1     0     0
SMALL
NO_CHARGES


@<TRIPOS>ATOM
      1 N1         -2.7030   20.7680   32.1800 N.ar      1 MTX301      0.0000 
      2 C2         -1.6380   20.0940   31.5720 C.ar      1 MTX301      0.0000 
      3 N3         -1.9330   18.9900   30.7710 N.ar      1 MTX301      0.0000 
      4 C4         -3.2170   18.5700   30.5720 C.ar      1 MTX301      0.0000 
      5 C4A        -4.2900   19.2620   31.1830 C.ar      1 MTX301      0.0000 
      6 N5         -5.5890   18.8440   30.9940 N.ar      1 MTX301      0.0000 
      7 C6         -6.6320   19.5520   31.5950 C.ar      1 MTX301      0.0000 
      8 C7         -6.3870   20.6380   32.3830 C.ar      1 MTX301      0.0000 
      9 N8         -5.0500   21.0520   32.6020 N.ar      1 MTX301      0.0000 
     10 C8A        -4.0030   20.3640   31.9960 C.ar      1 MTX301      0.0000 
     11 C9         -8.0320   19.0620   31.3470 C.3       1 MTX301      0.0000 
     12 N10        -8.4470   18.5420   30.1180 N.pl3     1 MTX301      0.0000 
     13 CM         -8.4650   17.0010   30.0740 C.3       1 MTX301      0.0000 
     14 C11       -10.5760   20.2210   26.8970 C.ar      1 MTX301      0.0000 
     15 C12        -9.8950   21.0370   27.8160 C.ar      1 MTX301      0.0000 
     16 C13        -9.1960   20.4590   28.8870 C.ar      1 MTX301      0.0000 
     17 C14        -9.1470   19.0620   29.0700 C.ar      1 MTX301      0.0000 
     18 C15        -9.8320   18.2770   28.1080 C.ar      1 MTX301      0.0000 
     19 C16       -10.5400   18.8420   27.0390 C.ar      1 MTX301      0.0000 
     20 C         -11.2730   20.8790   25.8380 C.2       1 MTX301      0.0000 
     21 O         -11.9150   20.1140   25.1110 O.2       1 MTX301      0.0000 
     22 N         -10.6730   21.9410   25.2970 N.am      1 MTX301      0.0000 
     23 CA        -10.3070   22.7170   24.2250 C.3       1 MTX301      0.0000 
     24 CT         -9.5990   23.9920   24.6870 C.2       1 MTX301      0.0000 
     25 O1         -9.6920   25.0710   24.1020 O.co2     1 MTX301      0.0000 
     26 O2         -8.9130   23.7830   25.7090 O.co2     1 MTX301      0.0000 
     27 CB        -10.7800   22.9180   22.8060 C.3       1 MTX301      0.0000 
     28 CG         -9.6260   23.3970   21.9150 C.3       1 MTX301      0.0000 
     29 CD         -9.8320   24.4520   20.8610 C.2       1 MTX301      0.0000 
     30 OE1       -10.7560   24.3340   20.0120 O.co2     1 MTX301      0.0000 
     31 OE2        -9.0130   25.4180   20.8920 O.co2     1 MTX301      0.0000 
     32 NA2        -0.3660   20.4380   31.7300 N.pl3     1 MTX301      0.0000 
     33 NA4        -3.4990   17.5230   29.7910 N.pl3     1 MTX301      0.0000 
     34 H          -7.1469   21.1658   32.8235 H         1 MTX301      0.0000 
     35 H          -8.7350   19.9276   31.6689 H         1 MTX301      0.0000 
     36 H          -8.2599   18.3037   32.1956 H         1 MTX301      0.0000 
     37 H          -9.9091   22.0551   27.7036 H         1 MTX301      0.0000 
     38 H          -8.7036   21.0709   29.5603 H         1 MTX301      0.0000 
     39 H          -9.8035   17.2416   28.2060 H         1 MTX301      0.0000 
     40 H         -11.0247   18.2360   26.3715 H         1 MTX301      0.0000 
     41 H         -10.1781   22.5679   26.2928 H         1 MTX301      0.0000 
     42 H          -9.1533   22.1372   23.9152 H         1 MTX301      0.0000 
     43 H         -11.5742   23.6629   22.7831 H         1 MTX301      0.0000 
     44 H         -11.1650   21.9800   22.4083 H         1 MTX301      0.0000 
     45 H          -9.1751   22.4759   21.4194 H         1 MTX301      0.0000 
     46 H          -8.7837   23.7350   22.6032 H         1 MTX301      0.0000 
     47 H           0.3013   19.9084   31.2065 H         1 MTX301      0.0000 
     48 H          -0.1898   21.1957   32.3584 H         1 MTX301      0.0000 
     49 H          -4.4674   17.2918   29.6978 H         1 MTX301      0.0000 
     50 H          -2.7163   17.0647   29.3699 H         1 MTX301      0.0000 
     51 H          -7.5593   16.6139   30.2468 H         1 MTX301      0.0000 
     52 H          -9.0835   16.6171   30.7596 H         1 MTX301      0.0000 
     53 H          -8.7653   16.6584   29.1838 H         1 MTX301      0.0000 
@<TRIPOS>BOND
     1    2    1 ar   
     2   10    1 ar   
     3    3    2 ar   
     4   32    2 1    
     5    4    3 ar   
     6    5    4 ar   
     7   33    4 1    
     8    6    5 ar   
     9   10    5 ar   
    10    7    6 ar   
    11    8    7 ar   
    12   11    7 1    
    13    9    8 ar   
    14   34    8 1    
    15   10    9 ar   
    16   12   11 1    
    17   35   11 1    
    18   36   11 1    
    19   13   12 1    
    20   17   12 1    
    21   51   13 1    
    22   52   13 1    
    23   53   13 1    
    24   15   14 ar   
    25   19   14 ar   
    26   20   14 1    
    27   16   15 ar   
    28   37   15 1    
    29   17   16 ar   
    30   38   16 1    
    31   18   17 ar   
    32   19   18 ar   
    33   39   18 1    
    34   40   19 1    
    35   21   20 2    
    36   22   20 am   
    37   23   22 1    
    38   41   22 1    
    39   24   23 1    
    40   27   23 1    
    41   42   23 1    
    42   25   24 ar   
    43   26   24 ar   
    44   28   27 1    
    45   43   27 1    
    46   44   27 1    
    47   29   28 1    
    48   45   28 1    
    49   46   28 1    
    50   30   29 ar   
    51   31   29 ar   
    52   47   32 1    
    53   48   32 1    
    54   49   33 1    
    55   50   33 1    
@<TRIPOS>SUBSTRUCTURE
     1 MTX301      1 GROUP   
@<TRIPOS>SET

