#    Name: 1lev_CLI_2_INTS_M
#    Modification time : Mon Apr  7 13:59:47 2014

@<TRIPOS>MOLECULE
1lev_CLI_2_INTS_M
   59     0     9     0     0
SMALL
NO_CHARGES


@<TRIPOS>ATOM
      1 NZ         10.2685   33.3240   11.2195 N.4       2 LYC4        0.0000 
      2 NZ          9.2380   32.2280   10.9990 N.4       8 LYL4        0.0000 
      3 NZ         11.3830   34.5550   10.1140 N.4       5 LYP4        0.0000 
      4 N           9.8310   33.1570   10.1495 N.am      1 SEC2        0.0000 
      5 N           9.2380   32.2280   10.9990 N.am      7 SEL2        0.0000 
      6 N          10.4240   34.0860    9.3000 N.am      4 SEP2        0.0000 
      7 N          10.2685   33.3240   11.2195 N.am      1 SEC2        0.0000 
      8 N          11.2990   34.4200   11.4400 N.am      4 SEP2        0.0000 
      9 N           8.9395   33.7540    9.9175 N.am      1 SEC2        0.0000 
     10 N           7.4550   33.4220   10.5350 N.am      7 SEL2        0.0000 
     11 CA          8.6840   30.9535    7.9400 C.3       3 GLC5        0.0000 
     12 CA          7.6000   31.1680    9.6350 C.3       9 GLL5        0.0000 
     13 CA          9.7680   30.7390    6.2450 C.3       6 GLP5        0.0000 
     14 CA          2.8550   29.6285    9.4060 C.3       3 GLC5        0.0000 
     15 CA          4.8360   29.8330    9.4070 C.3       9 GLL5        0.0000 
     16 CA          0.8740   29.4240    9.4050 C.3       6 GLP5        0.0000 
     17 CA          5.6565   28.9235    8.0305 C.3       3 GLC5        0.0000 
     18 CA          6.4770   28.0140    6.6540 C.3       6 GLP5        0.0000 
     19 CA          2.4575   24.9735    9.8090 C.3       3 GLC5        0.0000 
     20 CA          3.8060   26.4600   10.1670 C.3       9 GLL5        0.0000 
     21 CA          1.1090   23.4870    9.4510 C.3       6 GLP5        0.0000 
     22 CA          3.3350   24.3130    9.7240 C.3       3 GLC5        0.0000 
     23 CA          4.4590   25.5550   11.0130 C.3       9 GLL5        0.0000 
     24 CA          2.2110   23.0710    8.4350 C.3       6 GLP5        0.0000 
     25 CA          3.0550   22.9245   12.4275 C.3       3 GLC5        0.0000 
     26 CA          3.8300   23.9800   11.2710 C.3       9 GLL5        0.0000 
     27 CA          2.2800   21.8690   13.5840 C.3       6 GLP5        0.0000 
     28 CA          3.4730   22.9235   10.0635 C.3       3 GLC5        0.0000 
     29 CA          3.1160   21.8670    8.8560 C.3       6 GLP5        0.0000 
     30 CA          4.8980   22.3435   11.4825 C.3       3 GLC5        0.0000 
     31 CA          5.9660   20.7070   11.6940 C.3       6 GLP5        0.0000 
     32 CA          9.0340   28.4220   11.7875 C.3       3 GLC5        0.0000 
     33 CA          7.6000   27.4980   12.2560 C.3       9 GLL5        0.0000 
     34 CA         10.4680   29.3460   11.3190 C.3       6 GLP5        0.0000 
     35 CA          9.0315   26.0980   11.9205 C.3       3 GLC5        0.0000 
     36 CA         10.4630   24.6980   11.5850 C.3       6 GLP5        0.0000 
     37 CA          7.6200   26.4850   13.7100 C.3       3 GLC5        0.0000 
     38 CA          7.6400   25.4720   15.1640 C.3       6 GLP5        0.0000 
     39 CA          8.2595   29.3307    9.0075 C.3       3 GLC5        0.0000 
     40 CA          7.0260   30.2130   10.6910 C.3       9 GLL5        0.0000 
     41 CA          9.2060   27.9710    7.8520 C.3       6 GLP5        0.0000 
     42 CA          8.8905   30.0182   10.7410 C.3       3 GLC5        0.0000 
     43 CA          5.1818   27.2740   12.8513 C.3       3 GLC5        0.0000 
     44 CA          5.5060   28.0630   10.6340 C.3       9 GLL5        0.0000 
     45 CA          4.5430   26.9510   14.6540 C.3       6 GLP5        0.0000 
     46 CA          2.7345   26.7972   11.4162 C.3       3 GLC5        0.0000 
     47 CA          4.3300   27.7290    9.9760 C.3       9 GLL5        0.0000 
     48 CA          1.4010   26.5000   12.7610 C.3       6 GLP5        0.0000 
     49 CA          2.4710   28.2593    9.7383 C.3       3 GLC5        0.0000 
     50 CA          5.4200   26.9447    8.8068 C.3       3 GLC5        0.0000 
     51 CA          6.7720   26.7950    7.5420 C.3       6 GLP5        0.0000 
     52 CA          5.9098   26.2515    9.4422 C.3       3 GLC5        0.0000 
     53 CA          5.3492   23.9047    9.6370 C.3       3 GLC5        0.0000 
     54 CA          6.5540   23.0420    8.1320 C.3       6 GLP5        0.0000 
     55 CA          4.7952   26.3295   12.9983 C.3       3 GLC5        0.0000 
     56 CA          3.1456   25.9071   12.0840 C.3       3 GLC5        0.0000 
     57 CA          5.6360   25.8610   11.6720 C.3       9 GLL5        0.0000 
     58 CA          6.3344   27.3696    9.2441 C.3       3 GLC5        0.0000 
     59 CA          6.1350   27.1310   11.4630 C.3       9 GLL5        0.0000 
@<TRIPOS>BOND
@<TRIPOS>SUBSTRUCTURE
     1 SEC2        4 GROUP        1 X    SEC  0     ROOT SEC X 2
     2 LYC4        1 GROUP        1 X    LYC  0     **** LYC X 4
     3 GLC5       11 GROUP        1 X    GLC  0     **** GLC X 6
     4 SEP2        6 GROUP        1 Y    SEP  0     ROOT SEP Y 9
     5 LYP4        3 GROUP        1 Y    LYP  0     **** LYP Y 11
     6 GLP5       13 GROUP        1 Y    GLP  0     **** GLP Y 13
     7 SEL2        5 GROUP        1 Z    SEL  0     ROOT SEL Z 16
     8 LYL4        2 GROUP        1 Z    LYL  0     **** LYL Z 18
     9 GLL5       12 GROUP        1 Z    GLL  0     **** GLL Z 20
@<TRIPOS>SET

