#    Name: 1lev_CLI_2_ligand
#    Modification time : Mon Apr  7 13:59:47 2014

@<TRIPOS>MOLECULE
1lev_CLI_2_ligand
   26    27     1     0     0
SMALL
NO_CHARGES


@<TRIPOS>ATOM
      1 O19         9.2380   32.2280   10.9990 O.co2     1 CLI339      0.0000 
      2 C16         8.1680   32.3220   10.4280 C.2       1 CLI339      0.0000 
      3 O18         7.4550   33.4220   10.5350 O.co2     1 CLI339      0.0000 
      4 C12         7.6000   31.1680    9.6350 C.3       1 CLI339      0.0000 
      5 C6          7.0260   30.2130   10.6910 C.3       1 CLI339      0.0000 
      6 C2          5.8110   29.4520   10.2250 C.2       1 CLI339      0.0000 
      7 C1          5.5060   28.0630   10.6340 C.ar      1 CLI339      0.0000 
      8 C5          4.8360   29.8330    9.4070 C.2       1 CLI339      0.0000 
      9 C11         4.7130   31.1260    8.7390 C.2       1 CLI339      0.0000 
     10 O14         5.4150   32.1580    9.0930 O.co2     1 CLI339      0.0000 
     11 O15         3.9530   31.2240    7.8190 O.co2     1 CLI339      0.0000 
     12 N7          3.9500   28.8380    9.2130 N.pl3     1 CLI339      0.0000 
     13 C3          4.3300   27.7290    9.9760 C.ar      1 CLI339      0.0000 
     14 C8          3.8060   26.4600   10.1670 C.ar      1 CLI339      0.0000 
     15 C13         4.4590   25.5550   11.0130 C.ar      1 CLI339      0.0000 
     16 CL17        3.8300   23.9800   11.2710 Cl        1 CLI339      0.0000 
     17 C9          5.6360   25.8610   11.6720 C.ar      1 CLI339      0.0000 
     18 C4          6.1350   27.1310   11.4630 C.ar      1 CLI339      0.0000 
     19 CL10        7.6000   27.4980   12.2560 Cl        1 CLI339      0.0000 
     20 H           8.3743   30.6732    9.0964 H         1 CLI339      0.0000 
     21 H           6.8134   31.5066    9.0017 H         1 CLI339      0.0000 
     22 H           6.7717   30.7991   11.5900 H         1 CLI339      0.0000 
     23 H           7.8162   29.5019   10.9847 H         1 CLI339      0.0000 
     24 H           3.1721   28.8571    8.6475 H         1 CLI339      0.0000 
     25 H           2.9407   26.1778    9.6918 H         1 CLI339      0.0000 
     26 H           6.0989   25.1978   12.2668 H         1 CLI339      0.0000 
@<TRIPOS>BOND
     1    2    1 ar   
     2    3    2 ar   
     3    4    2 1    
     4    5    4 1    
     5   20    4 1    
     6   21    4 1    
     7    6    5 1    
     8   22    5 1    
     9   23    5 1    
    10    7    6 1    
    11    8    6 2    
    12   13    7 ar   
    13   18    7 ar   
    14    9    8 1    
    15   12    8 1    
    16   10    9 ar   
    17   11    9 ar   
    18   13   12 1    
    19   24   12 1    
    20   14   13 ar   
    21   15   14 ar   
    22   25   14 1    
    23   16   15 1    
    24   17   15 ar   
    25   18   17 ar   
    26   26   17 1    
    27   19   18 1    
@<TRIPOS>SUBSTRUCTURE
     1 CLI339      1 GROUP   
@<TRIPOS>SET

