#    Name: 3ez6_ADP_2_INTS_M
#    Modification time : Tue Mar 25 02:57:51 2014

@<TRIPOS>MOLECULE
3ez6_ADP_2_INTS_M
   48     0    12     0     0
SMALL
NO_CHARGES


@<TRIPOS>ATOM
      1 N         -48.8070   26.8205    7.5625 N.am      2 SEC2        0.0000 
      2 N         -47.4660   26.6740    6.8540 N.am     10 SEL2        0.0000 
      3 N         -50.1480   26.9670    8.2710 N.am      6 SEP2        0.0000 
      4 NZ        -46.3465   23.8180    6.6625 N.4       3 LYC4        0.0000 
      5 NZ        -46.6390   24.6150    8.3590 N.4      11 LYL4        0.0000 
      6 NZ        -46.0540   23.0210    4.9660 N.4       7 LYP4        0.0000 
      7 N         -47.1490   23.6885    9.2055 N.am      2 SEC2        0.0000 
      8 N         -46.6390   24.6150    8.3590 N.am     10 SEL2        0.0000 
      9 N         -47.6590   22.7620   10.0520 N.am      6 SEP2        0.0000 
     10 N         -47.8850   24.6815   12.0170 N.am      2 SEC2        0.0000 
     11 N         -47.5350   25.7950   11.2360 N.am     10 SEL2        0.0000 
     12 N         -48.2350   23.5680   12.7980 N.am      6 SEP2        0.0000 
     13 N         -48.5905   26.8600    8.5580 N.am      2 SEC2        0.0000 
     14 N         -47.0330   26.7530    8.8450 N.am     10 SEL2        0.0000 
     15 CA        -47.2850   29.4990    8.2685 C.3       4 GLC5        0.0000 
     16 CA        -47.3130   29.4970   10.3290 C.3      12 GLL5        0.0000 
     17 CA        -47.2570   29.5010    6.2080 C.3       8 GLP5        0.0000 
     18 N         -49.4660   31.7645   11.0505 N.am      2 SEC2        0.0000 
     19 N         -48.4340   30.8270   11.9950 N.am     10 SEL2        0.0000 
     20 N         -50.4980   32.7020   10.1060 N.am      6 SEP2        0.0000 
     21 CA        -47.7565   27.9920   13.9515 C.3       4 GLC5        0.0000 
     22 CA        -47.3270   29.7880   13.7160 C.3      12 GLL5        0.0000 
     23 CA        -48.1860   26.1960   14.1870 C.3       8 GLP5        0.0000 
     24 CA        -50.1125   31.3720   12.1270 C.3       4 GLC5        0.0000 
     25 CA        -48.5460   30.6170   13.4210 C.3      12 GLL5        0.0000 
     26 CA        -51.6790   32.1270   10.8330 C.3       8 GLP5        0.0000 
     27 CA        -54.7635   31.2945   14.8540 C.3       4 GLC5        0.0000 
     28 CA        -53.1930   30.1000   14.7750 C.3      12 GLL5        0.0000 
     29 CA        -56.3340   32.4890   14.9330 C.3       8 GLP5        0.0000 
     30 O         -55.6235   29.6205   15.2580 O.2       1 ALC1        0.0000 
     31 O         -54.3020   29.3570   14.7330 O.2       9 ALL1        0.0000 
     32 O         -56.9450   29.8840   15.7830 O.2       5 ALP1        0.0000 
     33 N         -54.3330   31.9625   16.3455 N.am      2 SEC2        0.0000 
     34 N         -53.1920   31.3120   15.4690 N.am     10 SEL2        0.0000 
     35 N         -55.4740   32.6130   17.2220 N.am      6 SEP2        0.0000 
     36 CA        -53.4380   33.1975   14.7485 C.3       4 GLC5        0.0000 
     37 CA        -52.0650   32.0990   15.5280 C.3      12 GLL5        0.0000 
     38 CA        -54.8110   34.2960   13.9690 C.3       8 GLP5        0.0000 
     39 CA        -51.9510   30.8075   16.7850 C.3       4 GLC5        0.0000 
     40 CA        -51.8370   29.5160   18.0420 C.3       8 GLP5        0.0000 
     41 CA        -50.7325   33.2985   16.2260 C.3       4 GLC5        0.0000 
     42 CA        -49.4000   34.4980   16.9240 C.3       8 GLP5        0.0000 
     43 CA        -51.2900   31.3435   12.5395 C.3       4 GLC5        0.0000 
     44 CA        -50.9010   30.5600   14.2460 C.3      12 GLL5        0.0000 
     45 CA        -53.1022   30.2067   12.6047 C.3       4 GLC5        0.0000 
     46 CA        -51.9880   29.6670   14.1260 C.3      12 GLL5        0.0000 
     47 CA        -53.6140   30.5300   10.7590 C.3       8 GLP5        0.0000 
     48 CA        -51.7914   29.8689   16.1951 C.3       4 GLC5        0.0000 
@<TRIPOS>BOND
@<TRIPOS>SUBSTRUCTURE
     1 ALC1       30 GROUP        1 X    ALC  0     ROOT ALC X 1
     2 SEC2        1 GROUP        1 X    SEC  0     **** SEC X 2
     3 LYC4        4 GROUP        1 X    LYC  0     **** LYC X 4
     4 GLC5       15 GROUP        1 X    GLC  0     **** GLC X 6
     5 ALP1       32 GROUP        1 Y    ALP  0     ROOT ALP Y 8
     6 SEP2        3 GROUP        1 Y    SEP  0     **** SEP Y 9
     7 LYP4        6 GROUP        1 Y    LYP  0     **** LYP Y 11
     8 GLP5       17 GROUP        1 Y    GLP  0     **** GLP Y 13
     9 ALL1       31 GROUP        1 Z    ALL  0     ROOT ALL Z 15
    10 SEL2        2 GROUP        1 Z    SEL  0     **** SEL Z 16
    11 LYL4        5 GROUP        1 Z    LYL  0     **** LYL Z 18
    12 GLL5       16 GROUP        1 Z    GLL  0     **** GLL Z 20
@<TRIPOS>SET

