#    Name: 3ez6_ADP_2_ligand
#    Modification time : Tue Mar 25 02:57:51 2014

@<TRIPOS>MOLECULE
3ez6_ADP_2_ligand
   39    41     1     0     0
SMALL
NO_CHARGES


@<TRIPOS>ATOM
      1 PB        -46.5470   25.8510    7.6060 P.3       1 ADP502      0.0000 
      2 O1B       -47.4660   26.6740    6.8540 O.co2     1 ADP502      0.0000 
      3 O2B       -46.6390   24.6150    8.3590 O.co2     1 ADP502      0.0000 
      4 O3B       -45.0190   26.4930    7.5640 O.co2     1 ADP502      0.0000 
      5 PA        -46.8290   26.8830   10.4930 P.3       1 ADP502      0.0000 
      6 O1A       -47.5350   25.7950   11.2360 O.co2     1 ADP502      0.0000 
      7 O2A       -45.3860   27.0610   10.7410 O.co2     1 ADP502      0.0000 
      8 O3A       -47.0330   26.7530    8.8450 O.3       1 ADP502      0.0000 
      9 O5'       -47.6840   28.1730   10.8390 O.3       1 ADP502      0.0000 
     10 C5'       -47.3130   29.4970   10.3290 C.3       1 ADP502      0.0000 
     11 C4'       -47.1240   30.5430   11.4450 C.3       1 ADP502      0.0000 
     12 O4'       -48.4340   30.8270   11.9950 O.3       1 ADP502      0.0000 
     13 C3'       -46.2960   30.1510   12.6990 C.3       1 ADP502      0.0000 
     14 O3'       -45.4130   31.2350   13.0710 O.3       1 ADP502      0.0000 
     15 C2'       -47.3270   29.7880   13.7160 C.3       1 ADP502      0.0000 
     16 O2'       -46.8560   30.0540   15.0430 O.3       1 ADP502      0.0000 
     17 C1'       -48.5460   30.6170   13.4210 C.3       1 ADP502      0.0000 
     18 N9        -49.9020   29.9830   13.5620 N.pl3     1 ADP502      0.0000 
     19 C8        -50.4180   28.7870   13.0680 C.2       1 ADP502      0.0000 
     20 N7        -51.6610   28.5480   13.3730 N.2       1 ADP502      0.0000 
     21 C5        -51.9880   29.6670   14.1260 C.ar      1 ADP502      0.0000 
     22 C6        -53.1930   30.1000   14.7750 C.ar      1 ADP502      0.0000 
     23 N6        -54.3020   29.3570   14.7330 N.pl3     1 ADP502      0.0000 
     24 N1        -53.1920   31.3120   15.4690 N.ar      1 ADP502      0.0000 
     25 C2        -52.0650   32.0990   15.5280 C.ar      1 ADP502      0.0000 
     26 N3        -50.8580   31.8000   14.9400 N.ar      1 ADP502      0.0000 
     27 C4        -50.9010   30.5600   14.2460 C.ar      1 ADP502      0.0000 
     28 H         -48.0848   29.8789    9.6380 H         1 ADP502      0.0000 
     29 H         -46.3711   29.4439    9.7554 H         1 ADP502      0.0000 
     30 H         -46.7185   31.4493   11.0375 H         1 ADP502      0.0000 
     31 H         -45.7504   29.2580   12.4217 H         1 ADP502      0.0000 
     32 H         -47.5875   28.7507   13.5885 H         1 ADP502      0.0000 
     33 H         -48.5023   31.5491   13.9074 H         1 ADP502      0.0000 
     34 H         -49.8299   28.1768   12.5144 H         1 ADP502      0.0000 
     35 H         -55.0884   29.7113   15.2390 H         1 ADP502      0.0000 
     36 H         -54.2463   28.5132   14.1993 H         1 ADP502      0.0000 
     37 H         -52.1329   33.0160   16.0744 H         1 ADP502      0.0000 
     38 H         -44.4913   30.8535   13.0009 H         1 ADP502      0.0000 
     39 H         -46.0088   30.5705   14.9182 H         1 ADP502      0.0000 
@<TRIPOS>BOND
     1    2    1 ar   
     2    3    1 ar   
     3    4    1 ar   
     4    8    1 1    
     5    6    5 ar   
     6    7    5 ar   
     7    8    5 1    
     8    9    5 1    
     9   10    9 1    
    10   11   10 1    
    11   28   10 1    
    12   29   10 1    
    13   12   11 1    
    14   13   11 1    
    15   30   11 1    
    16   17   12 1    
    17   14   13 1    
    18   15   13 1    
    19   31   13 1    
    20   38   14 1    
    21   16   15 1    
    22   17   15 1    
    23   32   15 1    
    24   39   16 1    
    25   18   17 1    
    26   33   17 1    
    27   19   18 1    
    28   27   18 1    
    29   20   19 2    
    30   34   19 1    
    31   21   20 1    
    32   22   21 ar   
    33   27   21 ar   
    34   23   22 1    
    35   24   22 ar   
    36   35   23 1    
    37   36   23 1    
    38   25   24 ar   
    39   26   25 ar   
    40   37   25 1    
    41   27   26 ar   
@<TRIPOS>SUBSTRUCTURE
     1 ADP502      1 GROUP   
@<TRIPOS>SET

