#    Name: 2vbd_V10_1_INTS_M
#    Modification time : Tue Mar 25 01:23:58 2014

@<TRIPOS>MOLECULE
2vbd_V10_1_INTS_M
   62     0     9     0     0
SMALL
NO_CHARGES


@<TRIPOS>ATOM
      1 NZ         19.5510   36.2285    5.9205 N.4       2 LYC4        0.0000 
      2 NZ         18.2700   36.3540    6.3650 N.4       8 LYL4        0.0000 
      3 NZ         21.0420   35.5370    4.2900 N.4       5 LYP4        0.0000 
      4 N          19.5510   36.2285    5.9205 N.am      1 SEC2        0.0000 
      5 N          18.2700   36.3540    6.3650 N.am      7 SEL2        0.0000 
      6 N          20.8320   36.1030    5.4760 N.am      4 SEP2        0.0000 
      7 NZ         18.7020   35.6440    3.9270 N.4       2 LYC4        0.0000 
      8 NZ         17.3780   35.9620    4.3610 N.4       8 LYL4        0.0000 
      9 N          18.7020   35.6440    3.9270 N.am      1 SEC2        0.0000 
     10 N          17.3780   35.9620    4.3610 N.am      7 SEL2        0.0000 
     11 N          20.0260   35.3260    3.4930 N.am      4 SEP2        0.0000 
     12 N          16.9240   34.9170    3.7560 N.am      1 SEC2        0.0000 
     13 N          16.4700   33.8720    3.1510 N.am      4 SEP2        0.0000 
     14 CA         16.2900   34.6035    6.7750 C.3       3 GLC5        0.0000 
     15 CA         15.8720   36.4190    6.0700 C.3       9 GLL5        0.0000 
     16 CA         16.7080   32.7880    7.4800 C.3       6 GLP5        0.0000 
     17 CA         14.4455   34.9305    5.9465 C.3       3 GLC5        0.0000 
     18 CA         13.0190   33.4420    5.8230 C.3       6 GLP5        0.0000 
     19 CA         16.2750   39.1910    4.7025 C.3       3 GLC5        0.0000 
     20 CA         15.3040   37.6740    5.4010 C.3       9 GLL5        0.0000 
     21 CA         17.2460   40.7080    4.0040 C.3       6 GLP5        0.0000 
     22 CA         15.3090   39.9695    4.6675 C.3       3 GLC5        0.0000 
     23 CA         13.3720   39.2310    5.3310 C.3       9 GLL5        0.0000 
     24 CA         12.9750   41.0870    5.0520 C.3       3 GLC5        0.0000 
     25 CA         12.5780   42.9430    4.7730 C.3       6 GLP5        0.0000 
     26 CA         10.4695   38.4615    1.7565 C.3       3 GLC5        0.0000 
     27 CA          9.3020   39.7380    2.4410 C.3       9 GLL5        0.0000 
     28 CA         11.6370   37.1850    1.0720 C.3       6 GLP5        0.0000 
     29 CA          7.0325   36.5210    6.4670 C.3       3 GLC5        0.0000 
     30 CA          6.6860   38.3860    6.4180 C.3       9 GLL5        0.0000 
     31 CA          7.3790   34.6560    6.5160 C.3       6 GLP5        0.0000 
     32 N           3.9885   37.6770    6.9415 N.am      1 SEC2        0.0000 
     33 N           4.6010   37.4040    5.8570 N.am      7 SEL2        0.0000 
     34 N           3.3760   37.9500    8.0260 N.am      4 SEP2        0.0000 
     35 CA          4.3860   38.0115    8.0995 C.3       3 GLC5        0.0000 
     36 CA          6.0980   39.1220    7.6020 C.3       9 GLL5        0.0000 
     37 CA          2.6740   36.9010    8.5970 C.3       6 GLP5        0.0000 
     38 CA          5.8925   40.9700    7.3985 C.3       3 GLC5        0.0000 
     39 CA          5.6870   42.8180    7.1950 C.3       6 GLP5        0.0000 
     40 CA          6.4265   38.5115   10.8560 C.3       3 GLC5        0.0000 
     41 CA          7.2020   39.2320    8.9380 C.3       9 GLL5        0.0000 
     42 CA          5.6510   37.7910   12.7740 C.3       6 GLP5        0.0000 
     43 CA          6.8490   41.0090    8.6130 C.3       3 GLC5        0.0000 
     44 CA          6.4960   42.7860    8.2880 C.3       6 GLP5        0.0000 
     45 CA          8.7310   39.9925    9.5195 C.3       3 GLC5        0.0000 
     46 CA         10.2600   40.7530   10.1010 C.3       6 GLP5        0.0000 
     47 CA          6.5590   36.6750   10.4050 C.3       3 GLC5        0.0000 
     48 CA          7.9640   37.6230    9.2140 C.3       9 GLL5        0.0000 
     49 CA          5.1540   35.7270   11.5960 C.3       6 GLP5        0.0000 
     50 CA          7.6715   36.1395    7.8650 C.3       3 GLC5        0.0000 
     51 CA          9.2745   38.5765   10.1235 C.3       3 GLC5        0.0000 
     52 CA         10.5850   39.5300   11.0330 C.3       6 GLP5        0.0000 
     53 CA         13.2225   37.2053    4.1958 C.3       3 GLC5        0.0000 
     54 CA         13.8720   37.9380    5.9590 C.3       9 GLL5        0.0000 
     55 CA         12.4650   35.8920    2.8860 C.3       6 GLP5        0.0000 
     56 CA          8.5422   41.8530    5.1835 C.3       3 GLC5        0.0000 
     57 CA          9.7440   40.1290    5.1430 C.3       9 GLL5        0.0000 
     58 CA          7.6460   43.2460    5.8380 C.3       6 GLP5        0.0000 
     59 CA         11.0083   41.7015    4.6510 C.3       3 GLC5        0.0000 
     60 CA          9.1330   40.7910    3.9150 C.3       9 GLL5        0.0000 
     61 CA          8.8513   41.9592    2.4200 C.3       3 GLC5        0.0000 
     62 CA          8.4850   43.6540    1.6620 C.3       6 GLP5        0.0000 
@<TRIPOS>BOND
@<TRIPOS>SUBSTRUCTURE
     1 SEC2        4 GROUP        1 X    SEC  0     ROOT SEC X 2
     2 LYC4        1 GROUP        1 X    LYC  0     **** LYC X 4
     3 GLC5       14 GROUP        1 X    GLC  0     **** GLC X 6
     4 SEP2        6 GROUP        1 Y    SEP  0     ROOT SEP Y 9
     5 LYP4        3 GROUP        1 Y    LYP  0     **** LYP Y 11
     6 GLP5       16 GROUP        1 Y    GLP  0     **** GLP Y 13
     7 SEL2        5 GROUP        1 Z    SEL  0     ROOT SEL Z 16
     8 LYL4        2 GROUP        1 Z    LYL  0     **** LYL Z 18
     9 GLL5       15 GROUP        1 Z    GLL  0     **** GLL Z 20
@<TRIPOS>SET

