#    Name: 2vbd_V10_1_ligand
#    Modification time : Tue Mar 25 01:23:58 2014

@<TRIPOS>MOLECULE
2vbd_V10_1_ligand
   44    43     1     0     0
SMALL
NO_CHARGES


@<TRIPOS>ATOM
      1 O          18.2700   36.3540    6.3650 O.co2     1 V101333     0.0000 
      2 C          17.2820   36.2440    5.5770 C.2       1 V101333     0.0000 
      3 OXT        17.3780   35.9620    4.3610 O.co2     1 V101333     0.0000 
      4 CA         15.8720   36.4190    6.0700 C.3       1 V101333     0.0000 
      5 N          15.7330   36.4790    7.5280 N.4       1 V101333     0.0000 
      6 CB         15.3040   37.6740    5.4010 C.3       1 V101333     0.0000 
      7 CAJ        13.8720   37.9380    5.9590 C.3       1 V101333     0.0000 
      8 CAL        13.3720   39.2310    5.3310 C.3       1 V101333     0.0000 
      9 CAT        12.0080   39.6730    5.7290 C.2       1 V101333     0.0000 
     10 OAE        11.7470   40.0200    6.8800 O.2       1 V101333     0.0000 
     11 NAO        11.0950   39.6690    4.7520 N.am      1 V101333     0.0000 
     12 CAW         9.7440   40.1290    5.1430 C.3       1 V101333     0.0000 
     13 CAK         9.1330   40.7910    3.9150 C.3       1 V101333     0.0000 
     14 SAI         9.3020   39.7380    2.4410 S.3       1 V101333     0.0000 
     15 CAU         8.9190   38.9770    5.6160 C.2       1 V101333     0.0000 
     16 OAF         9.3660   37.8580    5.8310 O.2       1 V101333     0.0000 
     17 OAP         7.5520   39.3000    5.8070 O.3       1 V101333     0.0000 
     18 CAX         6.6860   38.3860    6.4180 C.3       1 V101333     0.0000 
     19 CAS         5.5880   38.0840    5.4510 C.2       1 V101333     0.0000 
     20 OAD         4.6010   37.4040    5.8570 O.co2     1 V101333     0.0000 
     21 OAH         5.7220   38.5350    4.2910 O.co2     1 V101333     0.0000 
     22 CAN         6.0980   39.1220    7.6020 C.3       1 V101333     0.0000 
     23 SAQ         7.2020   39.2320    8.9380 S.3       1 V101333     0.0000 
     24 CAA         7.9640   37.6230    9.2140 C.3       1 V101333     0.0000 
     25 H          15.2772   35.5735    5.6746 H         1 V101333     0.0000 
     26 H          15.2382   37.5233    4.3370 H         1 V101333     0.0000 
     27 H          15.9257   38.5230    5.6285 H         1 V101333     0.0000 
     28 H          13.9320   38.0425    7.0237 H         1 V101333     0.0000 
     29 H          13.2380   37.1209    5.6787 H         1 V101333     0.0000 
     30 H          13.4166   39.1174    4.2198 H         1 V101333     0.0000 
     31 H          14.1080   40.0388    5.5663 H         1 V101333     0.0000 
     32 H          11.2425   39.3909    3.8109 H         1 V101333     0.0000 
     33 H           9.8301   40.8683    5.9178 H         1 V101333     0.0000 
     34 H           9.6337   41.6838    3.6125 H         1 V101333     0.0000 
     35 H           8.0756   40.9228    3.9775 H         1 V101333     0.0000 
     36 H           7.1562   37.5147    6.7393 H         1 V101333     0.0000 
     37 H           5.2363   38.6212    8.0178 H         1 V101333     0.0000 
     38 H           5.8598   40.1509    7.3766 H         1 V101333     0.0000 
     39 H          16.0662   35.6448    7.9675 H         1 V101333     0.0000 
     40 H          16.2477   37.2420    7.9191 H         1 V101333     0.0000 
     41 H          14.7794   36.5958    7.8057 H         1 V101333     0.0000 
     42 H           8.4718   37.3100    8.4114 H         1 V101333     0.0000 
     43 H           8.6080   37.6433    9.9787 H         1 V101333     0.0000 
     44 H           7.2834   36.9206    9.4225 H         1 V101333     0.0000 
@<TRIPOS>BOND
     1    2    1 ar   
     2    3    2 ar   
     3    4    2 1    
     4    5    4 1    
     5    6    4 1    
     6   25    4 1    
     7   39    5 1    
     8   40    5 1    
     9   41    5 1    
    10    7    6 1    
    11   26    6 1    
    12   27    6 1    
    13    8    7 1    
    14   28    7 1    
    15   29    7 1    
    16    9    8 1    
    17   30    8 1    
    18   31    8 1    
    19   10    9 2    
    20   11    9 am   
    21   12   11 1    
    22   32   11 1    
    23   13   12 1    
    24   15   12 1    
    25   33   12 1    
    26   14   13 1    
    27   34   13 1    
    28   35   13 1    
    29   16   15 2    
    30   17   15 1    
    31   18   17 1    
    32   19   18 1    
    33   22   18 1    
    34   36   18 1    
    35   20   19 ar   
    36   21   19 ar   
    37   23   22 1    
    38   37   22 1    
    39   38   22 1    
    40   24   23 1    
    41   42   24 1    
    42   43   24 1    
    43   44   24 1    
@<TRIPOS>SUBSTRUCTURE
     1 V101333     1 GROUP   
@<TRIPOS>SET

