#    Name: 4irn_FAD_8_INTS_M
#    Modification time : Tue Mar 25 04:26:30 2014

@<TRIPOS>MOLECULE
4irn_FAD_8_INTS_M
  102     0     9     0     0
SMALL
NO_CHARGES


@<TRIPOS>ATOM
      1 N           6.4000   19.1175    4.6345 N.am      2 SEC2        0.0000 
      2 N           5.7070   19.9360    5.6830 N.am      8 SEL2        0.0000 
      3 N           7.0930   18.2990    3.5860 N.am      5 SEP2        0.0000 
      4 N           5.5295   20.2665    4.4060 N.am      2 SEC2        0.0000 
      5 N           5.3520   20.5970    3.1290 N.am      5 SEP2        0.0000 
      6 N           6.9050   21.0050    9.1485 N.am      2 SEC2        0.0000 
      7 N           5.9660   20.5800    8.2230 N.am      8 SEL2        0.0000 
      8 N           7.8440   21.4300   10.0740 N.am      5 SEP2        0.0000 
      9 CA          5.9505   22.8680    8.9195 C.3       3 GLC5        0.0000 
     10 CA          4.4070   22.9790    7.6390 C.3       9 GLL5        0.0000 
     11 CA          7.4940   22.7570   10.2000 C.3       6 GLP5        0.0000 
     12 CA          5.8365   24.3705    7.4710 C.3       3 GLC5        0.0000 
     13 CA          7.2660   25.7620    7.3030 C.3       6 GLP5        0.0000 
     14 CA          4.2765   25.2565    8.2915 C.3       3 GLC5        0.0000 
     15 CA          3.4790   23.9560    6.9650 C.3       9 GLL5        0.0000 
     16 CA          5.0740   26.5570    9.6180 C.3       6 GLP5        0.0000 
     17 CA          1.3985   22.0360    7.3565 C.3       3 GLC5        0.0000 
     18 CA          2.4300   23.3380    6.0430 C.3       9 GLL5        0.0000 
     19 CA          0.3670   20.7340    8.6700 C.3       6 GLP5        0.0000 
     20 CA          1.8280   24.7105    2.8010 C.3       3 GLC5        0.0000 
     21 CA          2.7350   23.8800    4.6370 C.3       9 GLL5        0.0000 
     22 CA          0.9210   25.5410    0.9650 C.3       6 GLP5        0.0000 
     23 N           0.3735   24.5110    3.6435 N.am      2 SEC2        0.0000 
     24 N           1.5660   24.4560    4.0810 N.am      8 SEL2        0.0000 
     25 N          -0.8190   24.5660    3.2060 N.am      5 SEP2        0.0000 
     26 CA          5.5180   25.3730    6.0810 C.3       3 GLC5        0.0000 
     27 CA          3.7700   24.9840    4.8590 C.3       9 GLL5        0.0000 
     28 CA          3.5545   26.7010    5.0015 C.3       3 GLC5        0.0000 
     29 CA          3.3390   28.4180    5.1440 C.3       6 GLP5        0.0000 
     30 N           5.8690   27.9520   -0.4335 N.am      2 SEC2        0.0000 
     31 N           5.8610   26.6250    0.4200 N.am      8 SEL2        0.0000 
     32 N           5.8770   29.2790   -1.2870 N.am      5 SEP2        0.0000 
     33 CA          5.6680   28.4870    1.7355 C.3       3 GLC5        0.0000 
     34 CA          4.7670   27.0040    1.0850 C.3       9 GLL5        0.0000 
     35 CA          6.5690   29.9700    2.3860 C.3       6 GLP5        0.0000 
     36 CA          2.8440   26.2725    1.0250 C.3       3 GLC5        0.0000 
     37 CA          4.7335   26.6615   -1.0235 C.3       3 GLC5        0.0000 
     38 CA          4.7000   26.3190   -3.1320 C.3       6 GLP5        0.0000 
     39 CA          4.2170   27.0225    3.9620 C.3       3 GLC5        0.0000 
     40 CA          5.0950   25.6270    2.7800 C.3       9 GLL5        0.0000 
     41 N           6.4030    8.2330    3.6890 N.am      2 SEC2        0.0000 
     42 N           5.1700    9.0680    3.7580 N.am      8 SEL2        0.0000 
     43 N           7.6360    7.3980    3.6200 N.am      5 SEP2        0.0000 
     44 N           6.4115    9.6025    4.1185 N.am      2 SEC2        0.0000 
     45 N           7.6530   10.1370    4.4790 N.am      5 SEP2        0.0000 
     46 O           3.7430    6.6890    3.9350 O.2       1 ALC1        0.0000 
     47 O           3.3140    7.8710    4.2150 O.2       7 ALL1        0.0000 
     48 O           4.1720    5.5070    3.6550 O.2       4 ALP1        0.0000 
     49 N           1.0515    5.9035    5.8855 N.am      2 SEC2        0.0000 
     50 N           1.5190    6.5970    4.6820 N.am      8 SEL2        0.0000 
     51 N           0.5840    5.2100    7.0890 N.am      5 SEP2        0.0000 
     52 N          -0.0095    6.6660    5.3410 N.am      2 SEC2        0.0000 
     53 N          -1.5380    6.7350    6.0000 N.am      5 SEP2        0.0000 
     54 N          -0.6705    7.8025    5.8455 N.am      2 SEC2        0.0000 
     55 N           0.1970    8.8700    5.6910 N.am      8 SEL2        0.0000 
     56 CA         -4.3215    9.4800    6.6135 C.3       3 GLC5        0.0000 
     57 CA         -3.7100   11.0180    7.7250 C.3       9 GLL5        0.0000 
     58 CA         -4.9330    7.9420    5.5020 C.3       6 GLP5        0.0000 
     59 CA         -4.4820   10.6055    9.7625 C.3       3 GLC5        0.0000 
     60 CA         -5.2540   10.1930   11.8000 C.3       6 GLP5        0.0000 
     61 CA         -4.4115   11.5105    5.7960 C.3       3 GLC5        0.0000 
     62 CA         -5.1130   12.0030    3.8670 C.3       6 GLP5        0.0000 
     63 CA         -2.3450   15.2655    6.9260 C.3       3 GLC5        0.0000 
     64 CA         -2.2110   13.5970    7.8100 C.3       9 GLL5        0.0000 
     65 CA         -2.4790   16.9340    6.0420 C.3       6 GLP5        0.0000 
     66 CA          3.9880   11.8680    6.2095 C.3       3 GLC5        0.0000 
     67 CA          2.4280   12.5580    5.7940 C.3       9 GLL5        0.0000 
     68 CA          5.5480   11.1780    6.6250 C.3       6 GLP5        0.0000 
     69 CA          2.3695   11.4335    7.4045 C.3       3 GLC5        0.0000 
     70 CA          2.3110   10.3090    9.0150 C.3       6 GLP5        0.0000 
     71 CA         -0.0955   13.5920    3.9500 C.3       3 GLC5        0.0000 
     72 CA          1.7910   13.6410    4.9340 C.3       9 GLL5        0.0000 
     73 CA         -1.9820   13.5430    2.9660 C.3       6 GLP5        0.0000 
     74 CA          1.2655   15.4425    7.2205 C.3       3 GLC5        0.0000 
     75 CA          2.2020   15.0210    5.4460 C.3       9 GLL5        0.0000 
     76 CA          0.3290   15.8640    8.9950 C.3       6 GLP5        0.0000 
     77 CA          5.2695   16.8740    4.9795 C.3       3 GLC5        0.0000 
     78 CA          3.1200   17.3180    4.8590 C.3       9 GLL5        0.0000 
     79 CA          7.4190   16.4300    5.1000 C.3       6 GLP5        0.0000 
     80 CA          1.8460   18.7650    4.3570 C.3       3 GLC5        0.0000 
     81 CA          0.5720   20.2120    3.8550 C.3       6 GLP5        0.0000 
     82 N           1.2965   18.1285    8.3395 N.am      2 SEC2        0.0000 
     83 N           2.4400   17.9490    7.6820 N.am      8 SEL2        0.0000 
     84 N           0.1530   18.3080    8.9970 N.am      5 SEP2        0.0000 
     85 CA          1.5773   21.9105    4.5975 C.3       3 GLC5        0.0000 
     86 CA          5.8380   23.8050    0.6580 C.3       3 GLC5        0.0000 
     87 CA          6.2710   25.1380    2.2200 C.3       9 GLL5        0.0000 
     88 CA          5.2150   22.2030   -0.2760 C.3       6 GLP5        0.0000 
     89 CA         -0.8233    8.8845    8.2490 C.3       3 GLC5        0.0000 
     90 CA         -0.3620   10.0370    6.2150 C.3       9 GLL5        0.0000 
     91 CA         -0.6360    7.7610   10.0240 C.3       6 GLP5        0.0000 
     92 CA         -1.8317   11.1045    4.8970 C.3       3 GLC5        0.0000 
     93 CA         -1.6590    9.9790    6.7330 C.3       9 GLL5        0.0000 
     94 CA         -2.6530   12.2010    3.3200 C.3       6 GLP5        0.0000 
     95 CA         -2.2942   11.9627    5.2873 C.3       3 GLC5        0.0000 
     96 CA         -2.2850   11.1100    7.2450 C.3       9 GLL5        0.0000 
     97 CA         -0.3831   14.2733    8.0725 C.3       3 GLC5        0.0000 
     98 CA         -1.5860   12.3390    7.2640 C.3       9 GLL5        0.0000 
     99 CA          1.0791   10.9175    7.7539 C.3       3 GLC5        0.0000 
    100 CA         -0.2920   12.3970    6.7630 C.3       9 GLL5        0.0000 
    101 CA         -1.3157   12.0180    4.9083 C.3       3 GLC5        0.0000 
    102 CA          0.3350   11.2730    6.2300 C.3       9 GLL5        0.0000 
@<TRIPOS>BOND
@<TRIPOS>SUBSTRUCTURE
     1 ALC1       46 GROUP        1 X    ALC  0     ROOT ALC X 1
     2 SEC2        1 GROUP        1 X    SEC  0     **** SEC X 2
     3 GLC5        9 GROUP        1 X    GLC  0     **** GLC X 6
     4 ALP1       48 GROUP        1 Y    ALP  0     ROOT ALP Y 8
     5 SEP2        3 GROUP        1 Y    SEP  0     **** SEP Y 9
     6 GLP5       11 GROUP        1 Y    GLP  0     **** GLP Y 13
     7 ALL1       47 GROUP        1 Z    ALL  0     ROOT ALL Z 15
     8 SEL2        2 GROUP        1 Z    SEL  0     **** SEL Z 16
     9 GLL5       10 GROUP        1 Z    GLL  0     **** GLL Z 20
@<TRIPOS>SET

