#    Name: 4irn_FAD_8_ligand
#    Modification time : Tue Mar 25 04:26:30 2014

@<TRIPOS>MOLECULE
4irn_FAD_8_ligand
   84    89     1     0     0
SMALL
NO_CHARGES


@<TRIPOS>ATOM
      1 PA          5.1890   20.5910    6.9060 P.3       1 FAD400      0.0000 
      2 O1A         5.7070   19.9360    5.6830 O.co2     1 FAD400      0.0000 
      3 O2A         5.9660   20.5800    8.2230 O.co2     1 FAD400      0.0000 
      4 O5B         4.9660   22.1270    6.6260 O.3       1 FAD400      0.0000 
      5 C5B         4.4070   22.9790    7.6390 C.3       1 FAD400      0.0000 
      6 C4B         3.4790   23.9560    6.9650 C.3       1 FAD400      0.0000 
      7 O4B         4.2380   24.9010    6.1930 O.3       1 FAD400      0.0000 
      8 C3B         2.4300   23.3380    6.0430 C.3       1 FAD400      0.0000 
      9 O3B         1.1300   23.6840    6.5000 O.3       1 FAD400      0.0000 
     10 C2B         2.7350   23.8800    4.6370 C.3       1 FAD400      0.0000 
     11 O2B         1.5660   24.4560    4.0810 O.3       1 FAD400      0.0000 
     12 C1B         3.7700   24.9840    4.8590 C.3       1 FAD400      0.0000 
     13 N9A         4.9210   24.9230    3.9520 N.pl3     1 FAD400      0.0000 
     14 C8A         6.0020   24.0830    4.0440 C.2       1 FAD400      0.0000 
     15 N7A         6.8360   24.1730    3.0340 N.2       1 FAD400      0.0000 
     16 C5A         6.2710   25.1380    2.2200 C.ar      1 FAD400      0.0000 
     17 C6A         6.6510   25.6760    0.9640 C.ar      1 FAD400      0.0000 
     18 N6A         7.7220   25.2740    0.2760 N.pl3     1 FAD400      0.0000 
     19 N1A         5.8610   26.6250    0.4200 N.ar      1 FAD400      0.0000 
     20 C2A         4.7670   27.0040    1.0850 C.ar      1 FAD400      0.0000 
     21 N3A         4.3050   26.5640    2.2600 N.ar      1 FAD400      0.0000 
     22 C4A         5.0950   25.6270    2.7800 C.ar      1 FAD400      0.0000 
     23 N1          3.4340   10.2260    4.6520 N.2       1 FAD400      0.0000 
     24 C2          4.0170    9.0670    4.1820 C.2       1 FAD400      0.0000 
     25 O2          5.1700    9.0680    3.7580 O.2       1 FAD400      0.0000 
     26 N3          3.3140    7.8710    4.2150 N.am      1 FAD400      0.0000 
     27 C4          2.0360    7.7110    4.6920 C.2       1 FAD400      0.0000 
     28 O4          1.5190    6.5970    4.6820 O.2       1 FAD400      0.0000 
     29 C4X         1.4110    8.9460    5.1950 C.2       1 FAD400      0.0000 
     30 N5          0.1970    8.8700    5.6910 N.2       1 FAD400      0.0000 
     31 C5X        -0.3620   10.0370    6.2150 C.ar      1 FAD400      0.0000 
     32 C6         -1.6590    9.9790    6.7330 C.ar      1 FAD400      0.0000 
     33 C7         -2.2850   11.1100    7.2450 C.ar      1 FAD400      0.0000 
     34 C7M        -3.7100   11.0180    7.7250 C.3       1 FAD400      0.0000 
     35 C8         -1.5860   12.3390    7.2640 C.ar      1 FAD400      0.0000 
     36 C8M        -2.2110   13.5970    7.8100 C.3       1 FAD400      0.0000 
     37 C9         -0.2920   12.3970    6.7630 C.ar      1 FAD400      0.0000 
     38 C9A         0.3350   11.2730    6.2300 C.ar      1 FAD400      0.0000 
     39 N10         1.6460   11.3060    5.6910 N.pl3     1 FAD400      0.0000 
     40 C10         2.1980   10.1710    5.1510 C.2       1 FAD400      0.0000 
     41 C1'         2.4280   12.5580    5.7940 C.3       1 FAD400      0.0000 
     42 C2'         1.7910   13.6410    4.9340 C.3       1 FAD400      0.0000 
     43 O2'         2.0650   13.4700    3.5440 O.3       1 FAD400      0.0000 
     44 C3'         2.2020   15.0210    5.4460 C.3       1 FAD400      0.0000 
     45 O3'         1.0500   15.6890    5.9560 O.3       1 FAD400      0.0000 
     46 C4'         2.8580   15.9020    4.3820 C.3       1 FAD400      0.0000 
     47 O4'         4.0400   15.2610    3.8940 O.3       1 FAD400      0.0000 
     48 C5'         3.1200   17.3180    4.8590 C.3       1 FAD400      0.0000 
     49 O5'         4.1240   17.3150    5.8890 O.3       1 FAD400      0.0000 
     50 P           3.8470   18.1180    7.2470 P.3       1 FAD400      0.0000 
     51 O1P         2.4400   17.9490    7.6820 O.co2     1 FAD400      0.0000 
     52 O2P         4.9920   17.4950    8.0300 O.co2     1 FAD400      0.0000 
     53 O3P         3.8770   19.7120    7.1970 O.3       1 FAD400      0.0000 
     54 H           5.1828   23.5397    8.1602 H         1 FAD400      0.0000 
     55 H           3.8369   22.4065    8.3706 H         1 FAD400      0.0000 
     56 H           2.9329   24.5103    7.7494 H         1 FAD400      0.0000 
     57 H           2.5995   22.2765    6.0312 H         1 FAD400      0.0000 
     58 H           3.1624   23.1197    4.0612 H         1 FAD400      0.0000 
     59 H           3.2532   25.9433    4.7187 H         1 FAD400      0.0000 
     60 H           6.1174   23.4649    4.8278 H         1 FAD400      0.0000 
     61 H           8.2796   24.5636    0.7054 H         1 FAD400      0.0000 
     62 H           7.8704   25.7194   -0.6069 H         1 FAD400      0.0000 
     63 H           4.1586   27.7902    0.5972 H         1 FAD400      0.0000 
     64 H           3.8141    7.0043    3.8359 H         1 FAD400      0.0000 
     65 H          -2.1619    9.0724    6.7340 H         1 FAD400      0.0000 
     66 H           0.2224   13.2997    6.7854 H         1 FAD400      0.0000 
     67 H           3.4516   12.3968    5.4522 H         1 FAD400      0.0000 
     68 H           2.4573   12.9047    6.8282 H         1 FAD400      0.0000 
     69 H           0.6903   13.5663    5.1099 H         1 FAD400      0.0000 
     70 H           2.9282   14.8751    6.2512 H         1 FAD400      0.0000 
     71 H           2.1201   15.9712    3.5458 H         1 FAD400      0.0000 
     72 H           2.1738   17.7358    5.2255 H         1 FAD400      0.0000 
     73 H           3.4363   17.9166    3.9954 H         1 FAD400      0.0000 
     74 H          -3.8095   10.3568    8.4686 H         1 FAD400      0.0000 
     75 H          -4.0441   11.8963    8.0671 H         1 FAD400      0.0000 
     76 H          -4.3303   10.7329    6.9943 H         1 FAD400      0.0000 
     77 H          -1.5866   14.3761    7.7548 H         1 FAD400      0.0000 
     78 H          -3.0386   13.8485    7.3082 H         1 FAD400      0.0000 
     79 H          -2.4698   13.4964    8.7707 H         1 FAD400      0.0000 
     80 H           1.2688   24.0551    7.4182 H         1 FAD400      0.0000 
     81 H           0.9289   24.5389    4.8473 H         1 FAD400      0.0000 
     82 H           2.8573   14.0527    3.3629 H         1 FAD400      0.0000 
     83 H           1.3947   16.5498    6.3304 H         1 FAD400      0.0000 
     84 H           4.3832   15.8646    3.1744 H         1 FAD400      0.0000 
@<TRIPOS>BOND
     1    2    1 ar   
     2    3    1 ar   
     3    4    1 1    
     4   53    1 1    
     5    5    4 1    
     6    6    5 1    
     7   54    5 1    
     8   55    5 1    
     9    7    6 1    
    10    8    6 1    
    11   56    6 1    
    12   12    7 1    
    13    9    8 1    
    14   10    8 1    
    15   57    8 1    
    16   80    9 1    
    17   11   10 1    
    18   12   10 1    
    19   58   10 1    
    20   81   11 1    
    21   13   12 1    
    22   59   12 1    
    23   14   13 1    
    24   22   13 1    
    25   15   14 2    
    26   60   14 1    
    27   16   15 1    
    28   17   16 ar   
    29   22   16 ar   
    30   18   17 1    
    31   19   17 ar   
    32   61   18 1    
    33   62   18 1    
    34   20   19 ar   
    35   21   20 ar   
    36   63   20 1    
    37   22   21 ar   
    38   24   23 1    
    39   40   23 2    
    40   25   24 2    
    41   26   24 am   
    42   27   26 am   
    43   64   26 1    
    44   28   27 2    
    45   29   27 1    
    46   30   29 2    
    47   40   29 1    
    48   31   30 1    
    49   32   31 ar   
    50   38   31 ar   
    51   33   32 ar   
    52   65   32 1    
    53   34   33 1    
    54   35   33 ar   
    55   74   34 1    
    56   75   34 1    
    57   76   34 1    
    58   36   35 1    
    59   37   35 ar   
    60   77   36 1    
    61   78   36 1    
    62   79   36 1    
    63   38   37 ar   
    64   66   37 1    
    65   39   38 1    
    66   40   39 1    
    67   41   39 1    
    68   42   41 1    
    69   67   41 1    
    70   68   41 1    
    71   43   42 1    
    72   44   42 1    
    73   69   42 1    
    74   82   43 1    
    75   45   44 1    
    76   46   44 1    
    77   70   44 1    
    78   83   45 1    
    79   47   46 1    
    80   48   46 1    
    81   71   46 1    
    82   84   47 1    
    83   49   48 1    
    84   72   48 1    
    85   73   48 1    
    86   50   49 1    
    87   51   50 ar   
    88   52   50 ar   
    89   53   50 1    
@<TRIPOS>SUBSTRUCTURE
     1 FAD400      1 GROUP   
@<TRIPOS>SET

