#    Name: 3o8a_O8A_1_INTS_M
#    Modification time : Tue Mar 25 03:22:01 2014

@<TRIPOS>MOLECULE
3o8a_O8A_1_INTS_M
   77     0     9     0     0
SMALL
NO_CHARGES


@<TRIPOS>ATOM
      1 CA         34.3750   -6.8045   18.7430 C.3       3 GLC5        0.0000 
      2 CA         32.9190   -6.7290   19.7170 C.3       9 GLL5        0.0000 
      3 CA         35.8310   -6.8800   17.7690 C.3       6 GLP5        0.0000 
      4 CA         26.3515  -11.1275   18.1775 C.3       3 GLC5        0.0000 
      5 CA         27.3330  -11.8170   16.5560 C.3       9 GLL5        0.0000 
      6 CA         25.3700  -10.4380   19.7990 C.3       6 GLP5        0.0000 
      7 CA         29.5380   -5.5350   20.5735 C.3       3 GLC5        0.0000 
      8 CA         31.0570   -6.2320   20.5040 C.3       9 GLL5        0.0000 
      9 CA         28.0190   -4.8380   20.6430 C.3       6 GLP5        0.0000 
     10 N          24.7260  -13.5205   18.1055 N.am      2 SEC2        0.0000 
     11 N          24.8550  -13.1100   16.7950 N.am      8 SEL2        0.0000 
     12 N          24.5970  -13.9310   19.4160 N.am      5 SEP2        0.0000 
     13 CA         27.2665   -9.8765   18.9600 C.3       3 GLC5        0.0000 
     14 CA         29.1630   -9.3150   18.1210 C.3       9 GLL5        0.0000 
     15 O          23.4370  -11.0990   14.2685 O.2       1 ALC1        0.0000 
     16 O          23.7630  -12.3090   15.1320 O.2       7 ALL1        0.0000 
     17 O          23.1110   -9.8890   13.4050 O.2       4 ALP1        0.0000 
     18 CA         31.8340  -10.7365   19.7985 C.3       3 GLC5        0.0000 
     19 CA         31.1400   -8.7800   19.3820 C.3       9 GLL5        0.0000 
     20 CA         32.5280  -12.6930   20.2150 C.3       6 GLP5        0.0000 
     21 CA         32.3885  -11.1800   18.5825 C.3       3 GLC5        0.0000 
     22 CA         31.9640   -9.3110   18.4150 C.3       9 GLL5        0.0000 
     23 CA         32.8130  -13.0490   18.7500 C.3       6 GLP5        0.0000 
     24 CA         30.8450   -8.4375   21.7365 C.3       3 GLC5        0.0000 
     25 CA         32.0710   -6.9710   20.6180 C.3       9 GLL5        0.0000 
     26 CA         29.6190   -9.9040   22.8550 C.3       6 GLP5        0.0000 
     27 CA         30.0690   -6.2785   21.2645 C.3       3 GLC5        0.0000 
     28 CA         28.0670   -5.5860   21.9110 C.3       6 GLP5        0.0000 
     29 CA         31.4450  -12.9295   15.3675 C.3       3 GLC5        0.0000 
     30 CA         30.7250  -11.4470   14.0190 C.3       9 GLL5        0.0000 
     31 CA         32.1650  -14.4120   16.7160 C.3       6 GLP5        0.0000 
     32 CA         30.3520   -9.5465   13.9365 C.3       3 GLC5        0.0000 
     33 CA         29.9790   -7.6460   13.8540 C.3       6 GLP5        0.0000 
     34 CA         32.1955  -12.8320   13.7470 C.3       3 GLC5        0.0000 
     35 CA         33.6660  -14.2170   13.4750 C.3       6 GLP5        0.0000 
     36 CA         32.5280  -10.2805   13.4280 C.3       3 GLC5        0.0000 
     37 CA         34.3310   -9.1140   12.8370 C.3       6 GLP5        0.0000 
     38 CA         22.6230  -10.8325   15.6245 C.3       3 GLC5        0.0000 
     39 CA         22.5390  -12.8540   15.6070 C.3       9 GLL5        0.0000 
     40 CA         22.7070   -8.8110   15.6420 C.3       6 GLP5        0.0000 
     41 CA         22.2045  -10.9650   14.2880 C.3       3 GLC5        0.0000 
     42 CA         21.6520  -13.1380   14.4270 C.3       9 GLL5        0.0000 
     43 CA         22.7570   -8.7920   14.1490 C.3       6 GLP5        0.0000 
     44 CA         22.1405  -13.3600   12.2850 C.3       3 GLC5        0.0000 
     45 CA         22.6290  -13.5820   10.1430 C.3       6 GLP5        0.0000 
     46 CA         19.9750  -13.1320   13.1110 C.3       3 GLC5        0.0000 
     47 CA         18.2980  -13.1260   11.7950 C.3       6 GLP5        0.0000 
     48 CA         22.5830  -15.7825   13.9175 C.3       3 GLC5        0.0000 
     49 CA         22.3870  -14.2660   15.1050 C.3       9 GLL5        0.0000 
     50 CA         22.7790  -17.2990   12.7300 C.3       6 GLP5        0.0000 
     51 CA         32.6700   -8.5535   16.3903 C.3       3 GLC5        0.0000 
     52 CA         31.4020   -9.8450   17.2800 C.3       9 GLL5        0.0000 
     53 CA         33.6570   -7.5290   14.9330 C.3       6 GLP5        0.0000 
     54 CA         29.0708  -12.3398   17.0872 C.3       3 GLC5        0.0000 
     55 CA         28.2940  -10.7940   15.6330 C.3       9 GLL5        0.0000 
     56 CA         30.3280  -13.3740   18.0800 C.3       6 GLP5        0.0000 
     57 CA         28.7757   -8.2568   16.3790 C.3       3 GLC5        0.0000 
     58 CA         29.9640   -9.8420   17.1550 C.3       9 GLL5        0.0000 
     59 CA         27.9880   -6.9350   15.1200 C.3       6 GLP5        0.0000 
     60 CA         32.1140   -5.1940   19.1469 C.3       3 GLC5        0.0000 
     61 CA         32.4520   -3.8470   17.9580 C.3       6 GLP5        0.0000 
     62 CA         30.1255  -11.4766   17.8746 C.3       3 GLC5        0.0000 
     63 CA         33.6412   -7.9545   21.4209 C.3       3 GLC5        0.0000 
     64 CA         34.7190   -9.1230   21.8960 C.3       6 GLP5        0.0000 
     65 CA         30.0382   -9.3453   21.0825 C.3       3 GLC5        0.0000 
     66 CA         33.1355   -9.0842   20.3972 C.3       3 GLC5        0.0000 
     67 CA         25.0790   -9.7570   15.6315 C.3       3 GLC5        0.0000 
     68 CA         26.3850  -10.8480   14.4240 C.3       9 GLL5        0.0000 
     69 CA         23.9420   -8.2490   16.3180 C.3       6 GLP5        0.0000 
     70 CA         25.9125  -13.0015   13.9280 C.3       3 GLC5        0.0000 
     71 CA         25.6090  -14.7380   12.9110 C.3       6 GLP5        0.0000 
     72 CA         27.5853   -8.8199   14.9347 C.3       3 GLC5        0.0000 
     73 CA         23.0095  -14.8600   16.7535 C.3       3 GLC5        0.0000 
     74 CA         23.5560  -16.1600   18.1510 C.3       6 GLP5        0.0000 
     75 CA         24.0360  -14.1490   14.1335 C.3       3 GLC5        0.0000 
     76 CA         20.5581  -13.9520   15.7105 C.3       3 GLC5        0.0000 
     77 CA         18.8750  -14.2730   16.3600 C.3       6 GLP5        0.0000 
@<TRIPOS>BOND
@<TRIPOS>SUBSTRUCTURE
     1 ALC1       15 GROUP        1 X    ALC  0     ROOT ALC X 1
     2 SEC2       10 GROUP        1 X    SEC  0     **** SEC X 2
     3 GLC5        1 GROUP        1 X    GLC  0     **** GLC X 6
     4 ALP1       17 GROUP        1 Y    ALP  0     ROOT ALP Y 8
     5 SEP2       12 GROUP        1 Y    SEP  0     **** SEP Y 9
     6 GLP5        3 GROUP        1 Y    GLP  0     **** GLP Y 13
     7 ALL1       16 GROUP        1 Z    ALL  0     ROOT ALL Z 15
     8 SEL2       11 GROUP        1 Z    SEL  0     **** SEL Z 16
     9 GLL5        2 GROUP        1 Z    GLL  0     **** GLL Z 20
@<TRIPOS>SET

