#    Name: 3o8a_O8A_1_ligand
#    Modification time : Tue Mar 25 03:22:02 2014

@<TRIPOS>MOLECULE
3o8a_O8A_1_ligand
   40    43     1     0     0
SMALL
NO_CHARGES


@<TRIPOS>ATOM
      1 C1         31.4020   -9.8450   17.2800 C.ar      1 O8A1001     0.0000 
      2 F1         32.9190   -6.7290   19.7170 F         1 O8A1001     0.0000 
      3 N1         31.8440  -10.4350   16.1540 N.2       1 O8A1001     0.0000 
      4 O1         31.6580   -8.2720   20.5160 O.3       1 O8A1001     0.0000 
      5 S1         27.3330  -11.8170   16.5560 S.3       1 O8A1001     0.0000 
      6 C2         29.9640   -9.8420   17.1550 C.ar      1 O8A1001     0.0000 
      7 F2         31.0570   -6.2320   20.5040 F         1 O8A1001     0.0000 
      8 N2         29.6130  -10.3900   15.9730 N.pl3     1 O8A1001     0.0000 
      9 O2         24.8550  -13.1100   16.7950 O.2       1 O8A1001     0.0000 
     10 C3         29.1630   -9.3150   18.1210 C.ar      1 O8A1001     0.0000 
     11 F3         32.6320   -6.7220   21.7240 F         1 O8A1001     0.0000 
     12 N3         23.7630  -12.3090   15.1320 N.am      1 O8A1001     0.0000 
     13 C4         29.7750   -8.7930   19.2380 C.ar      1 O8A1001     0.0000 
     14 C5         31.1400   -8.7800   19.3820 C.ar      1 O8A1001     0.0000 
     15 C6         31.9640   -9.3110   18.4150 C.ar      1 O8A1001     0.0000 
     16 C7         30.8220  -10.7910   15.3570 C.2       1 O8A1001     0.0000 
     17 C8         32.0710   -6.9710   20.6180 C.3       1 O8A1001     0.0000 
     18 C9         30.7250  -11.4470   14.0190 C.3       1 O8A1001     0.0000 
     19 C10        28.2940  -10.7940   15.6330 C.2       1 O8A1001     0.0000 
     20 C11        26.0470  -11.6820   15.4660 C.2       1 O8A1001     0.0000 
     21 C12        26.3850  -10.8480   14.4240 C.2       1 O8A1001     0.0000 
     22 C13        27.6660  -10.3290   14.5170 C.2       1 O8A1001     0.0000 
     23 C14        24.8430  -12.4300   15.8310 C.2       1 O8A1001     0.0000 
     24 C15        22.5390  -12.8540   15.6070 C.3       1 O8A1001     0.0000 
     25 C16        21.6520  -13.1380   14.4270 C.3       1 O8A1001     0.0000 
     26 C17        22.3870  -14.2660   15.1050 C.3       1 O8A1001     0.0000 
     27 H          28.1492   -9.3038   18.0279 H         1 O8A1001     0.0000 
     28 H          23.7287  -11.8214   14.2112 H         1 O8A1001     0.0000 
     29 H          29.1787   -8.3934   20.0015 H         1 O8A1001     0.0000 
     30 H          32.9827   -9.3075   18.5410 H         1 O8A1001     0.0000 
     31 H          25.7732  -10.6363   13.6765 H         1 O8A1001     0.0000 
     32 H          28.0521   -9.7179   13.8685 H         1 O8A1001     0.0000 
     33 H          22.0439  -12.7299   16.3442 H         1 O8A1001     0.0000 
     34 H          22.1265  -12.9099   13.6366 H         1 O8A1001     0.0000 
     35 H          20.7513  -13.1499   14.7281 H         1 O8A1001     0.0000 
     36 H          21.7749  -14.7170   15.6731 H         1 O8A1001     0.0000 
     37 H          23.1501  -14.4770   14.5816 H         1 O8A1001     0.0000 
     38 H          31.1930  -10.9179   13.3112 H         1 O8A1001     0.0000 
     39 H          31.1346  -12.3592   14.0221 H         1 O8A1001     0.0000 
     40 H          29.7750  -11.5533   13.7255 H         1 O8A1001     0.0000 
@<TRIPOS>BOND
     1    3    1 1    
     2    6    1 ar   
     3   15    1 ar   
     4   17    2 1    
     5   16    3 2    
     6   14    4 1    
     7   17    4 1    
     8   19    5 1    
     9   20    5 1    
    10    8    6 1    
    11   10    6 ar   
    12   17    7 1    
    13   16    8 1    
    14   19    8 1    
    15   23    9 2    
    16   13   10 ar   
    17   27   10 1    
    18   17   11 1    
    19   23   12 am   
    20   24   12 1    
    21   28   12 1    
    22   14   13 ar   
    23   29   13 1    
    24   15   14 ar   
    25   30   15 1    
    26   18   16 1    
    27   38   18 1    
    28   39   18 1    
    29   40   18 1    
    30   22   19 2    
    31   21   20 2    
    32   23   20 1    
    33   22   21 1    
    34   31   21 1    
    35   32   22 1    
    36   25   24 1    
    37   26   24 1    
    38   33   24 1    
    39   26   25 1    
    40   34   25 1    
    41   35   25 1    
    42   36   26 1    
    43   37   26 1    
@<TRIPOS>SUBSTRUCTURE
     1 O8A1001     1 GROUP   
@<TRIPOS>SET

