#    Name: 3rw9_DSH_1_INTS_M
#    Modification time : Tue Mar 25 12:03:59 2014

@<TRIPOS>MOLECULE
3rw9_DSH_1_INTS_M
   87     0    12     0     0
SMALL
NO_CHARGES


@<TRIPOS>ATOM
      1 OD1         0.9110   58.7190    7.4005 O.co2     3 ASC3        0.0000 
      2 OD1         0.7430   58.8340    8.7880 O.co2    11 ASL3        0.0000 
      3 OD1         1.0790   58.6040    6.0130 O.co2     7 ASP3        0.0000 
      4 OD1        -0.0855   59.8210    9.9255 O.co2     3 ASC3        0.0000 
      5 OD1        -0.9140   60.8080   11.0630 O.co2     7 ASP3        0.0000 
      6 OD1        -0.3675   59.8620    8.8715 O.co2     3 ASC3        0.0000 
      7 OD1        -1.4780   60.8900    8.9550 O.co2     7 ASP3        0.0000 
      8 O          -0.5980   57.8790    8.8155 O.2       1 ALC1        0.0000 
      9 O           0.7430   58.8340    8.7880 O.2       9 ALL1        0.0000 
     10 O          -1.9390   56.9240    8.8430 O.2       5 ALP1        0.0000 
     11 O           0.9110   58.7190    7.4005 O.2       1 ALC1        0.0000 
     12 O           1.0790   58.6040    6.0130 O.2       5 ALP1        0.0000 
     13 O          -0.0855   59.8210    9.9255 O.2       1 ALC1        0.0000 
     14 O          -0.9140   60.8080   11.0630 O.2       5 ALP1        0.0000 
     15 O          -0.3675   59.8620    8.8715 O.2       1 ALC1        0.0000 
     16 O          -1.4780   60.8900    8.9550 O.2       5 ALP1        0.0000 
     17 N           0.6740   72.3935    7.8520 N.am      2 SEC2        0.0000 
     18 N           1.4960   71.2080    7.8460 N.am     10 SEL2        0.0000 
     19 N          -0.1480   73.5790    7.8580 N.am      6 SEP2        0.0000 
     20 CA         -0.6070   70.0165    8.5315 C.3       4 GLC5        0.0000 
     21 CA          0.9260   70.2580    7.0900 C.3      12 GLL5        0.0000 
     22 CA         -2.1400   69.7750    9.9730 C.3       8 GLP5        0.0000 
     23 CA          0.0780   68.3075    7.2565 C.3       4 GLC5        0.0000 
     24 CA         -0.7700   66.3570    7.4230 C.3       8 GLP5        0.0000 
     25 CA          0.2845   69.4720    5.3500 C.3       4 GLC5        0.0000 
     26 CA         -0.3570   68.6860    3.6100 C.3       8 GLP5        0.0000 
     27 CA          2.2785   70.6870    5.8720 C.3       4 GLC5        0.0000 
     28 CA          3.6310   71.1160    4.6540 C.3       8 GLP5        0.0000 
     29 CA          1.2060   72.4405    6.7460 C.3       4 GLC5        0.0000 
     30 CA          1.4860   74.6230    6.4020 C.3       8 GLP5        0.0000 
     31 CA         -0.2410   71.8600    7.8285 C.3       4 GLC5        0.0000 
     32 CA         -1.4080   73.4620    8.5670 C.3       8 GLP5        0.0000 
     33 N           1.6625   69.3525    5.3500 N.am      2 SEC2        0.0000 
     34 N           1.4700   69.0360    6.9730 N.am     10 SEL2        0.0000 
     35 N           1.8550   69.6690    3.7270 N.am      6 SEP2        0.0000 
     36 CA          0.9205   67.5445    7.5270 C.3       4 GLC5        0.0000 
     37 CA          2.6110   68.7320    7.6310 C.3      12 GLL5        0.0000 
     38 CA          4.3830   69.6535   10.2110 C.3       4 GLC5        0.0000 
     39 CA          3.2100   69.6980    8.4270 C.3      12 GLL5        0.0000 
     40 CA          5.5560   69.6090   11.9950 C.3       8 GLP5        0.0000 
     41 CA          3.1330   71.0355    6.5900 C.3       4 GLC5        0.0000 
     42 CA          2.6350   70.9550    8.5260 C.3      12 GLL5        0.0000 
     43 CA          2.0605   72.7890    7.4640 C.3       4 GLC5        0.0000 
     44 O           2.7410   73.1805    9.1635 O.2       1 ALC1        0.0000 
     45 O           3.2020   71.9160    9.2960 O.2       9 ALL1        0.0000 
     46 O           2.2800   74.4450    9.0310 O.2       5 ALP1        0.0000 
     47 O           4.6060   71.8195    9.7900 O.2       1 ALC1        0.0000 
     48 O           6.0100   71.7230   10.2840 O.2       5 ALP1        0.0000 
     49 CA          0.2610   58.4995   11.1015 C.3       4 GLC5        0.0000 
     50 CA          1.6660   58.7760    9.7470 C.3      12 GLL5        0.0000 
     51 CA         -1.1440   58.2230   12.4560 C.3       8 GLP5        0.0000 
     52 CA          4.3565   59.1515    9.5460 C.3       4 GLC5        0.0000 
     53 CA          2.4060   59.8390   10.0530 C.3      12 GLL5        0.0000 
     54 CA          6.3070   58.4640    9.0390 C.3       8 GLP5        0.0000 
     55 CA          5.5075   61.9005    7.5080 C.3       4 GLC5        0.0000 
     56 CA          3.7780   61.6460    8.6530 C.3      12 GLL5        0.0000 
     57 CA          7.2370   62.1550    6.3630 C.3       8 GLP5        0.0000 
     58 CA          5.0425   60.0550    8.8460 C.3       4 GLC5        0.0000 
     59 CA          1.1520   66.3465    7.2140 C.3       4 GLC5        0.0000 
     60 CA          3.0740   66.3360    7.0050 C.3      12 GLL5        0.0000 
     61 CA          3.8465   68.1770    6.0250 C.3       4 GLC5        0.0000 
     62 CA          4.6190   70.0180    5.0450 C.3       8 GLP5        0.0000 
     63 N           6.1035   65.9925    4.9495 N.am      2 SEC2        0.0000 
     64 N           4.6130   66.1530    5.1400 N.am     10 SEL2        0.0000 
     65 N           7.5940   65.8320    4.7590 N.am      6 SEP2        0.0000 
     66 O           3.8145   66.5475    4.4655 O.2       1 ALC1        0.0000 
     67 O           4.6130   66.1530    5.1400 O.2       9 ALL1        0.0000 
     68 O           3.0160   66.9420    3.7910 O.2       5 ALP1        0.0000 
     69 CA          5.6005   63.1825    6.4045 C.3       4 GLC5        0.0000 
     70 CA          3.9640   64.2100    6.4460 C.3      12 GLL5        0.0000 
     71 CA          4.0515   63.3050    4.4205 C.3       4 GLC5        0.0000 
     72 CA          4.1390   62.4000    2.3950 C.3       8 GLP5        0.0000 
     73 N           1.6535   63.4355    4.9195 N.am      2 SEC2        0.0000 
     74 N           3.2320   63.9230    5.2530 N.am     10 SEL2        0.0000 
     75 N           0.0750   62.9480    4.5860 N.am      6 SEP2        0.0000 
     76 O           2.3155   64.7440    4.8120 O.2       1 ALC1        0.0000 
     77 O           3.2320   63.9230    5.2530 O.2       9 ALL1        0.0000 
     78 O           1.3990   65.5650    4.3710 O.2       5 ALP1        0.0000 
     79 O           3.1240   65.4325    4.5220 O.2       1 ALC1        0.0000 
     80 CA          1.1140   65.2025    7.5120 C.3       4 GLC5        0.0000 
     81 CA          2.9980   64.0480    7.6010 C.3      12 GLL5        0.0000 
     82 CA          2.7255   64.1985   10.4970 C.3       4 GLC5        0.0000 
     83 CA          3.6670   63.4040    8.8100 C.3      12 GLL5        0.0000 
     84 CA          1.7840   64.9930   12.1840 C.3       8 GLP5        0.0000 
     85 CA          3.7648   69.6165    6.5370 C.3       4 GLC5        0.0000 
     86 CA          2.1024   69.8840   10.0457 C.3       4 GLC5        0.0000 
     87 CA          1.4320   69.6830   11.8140 C.3       8 GLP5        0.0000 
@<TRIPOS>BOND
@<TRIPOS>SUBSTRUCTURE
     1 ALC1        8 GROUP        1 X    ALC  0     ROOT ALC X 1
     2 SEC2       17 GROUP        1 X    SEC  0     **** SEC X 2
     3 ASC3        1 GROUP        1 X    ASC  0     **** ASC X 3
     4 GLC5       20 GROUP        1 X    GLC  0     **** GLC X 6
     5 ALP1       10 GROUP        1 Y    ALP  0     ROOT ALP Y 8
     6 SEP2       19 GROUP        1 Y    SEP  0     **** SEP Y 9
     7 ASP3        3 GROUP        1 Y    ASP  0     **** ASP Y 10
     8 GLP5       22 GROUP        1 Y    GLP  0     **** GLP Y 13
     9 ALL1        9 GROUP        1 Z    ALL  0     ROOT ALL Z 15
    10 SEL2       18 GROUP        1 Z    SEL  0     **** SEL Z 16
    11 ASL3        2 GROUP        1 Z    ASL  0     **** ASL Z 17
    12 GLL5       21 GROUP        1 Z    GLL  0     **** GLL Z 20
@<TRIPOS>SET

