#    Name: 3rw9_DSH_1_ligand
#    Modification time : Tue Mar 25 12:03:59 2014

@<TRIPOS>MOLECULE
3rw9_DSH_1_ligand
   44    46     1     0     0
SMALL
NO_CHARGES


@<TRIPOS>ATOM
      1 N           0.7430   58.8340    8.7880 N.4       1 DSH303      0.0000 
      2 N1          1.4960   71.2080    7.8460 N.ar      1 DSH303      0.0000 
      3 C2          0.9260   70.2580    7.0900 C.ar      1 DSH303      0.0000 
      4 N3          1.4700   69.0360    6.9730 N.ar      1 DSH303      0.0000 
      5 C4          2.6110   68.7320    7.6310 C.ar      1 DSH303      0.0000 
      6 C5          3.2100   69.6980    8.4270 C.ar      1 DSH303      0.0000 
      7 C6          2.6350   70.9550    8.5260 C.ar      1 DSH303      0.0000 
      8 N6          3.2020   71.9160    9.2960 N.pl3     1 DSH303      0.0000 
      9 N7          4.3120   69.1410    8.9630 N.2       1 DSH303      0.0000 
     10 C8          4.3920   67.8730    8.5100 C.2       1 DSH303      0.0000 
     11 N9          3.3610   67.6280    7.6950 N.pl3     1 DSH303      0.0000 
     12 CA          1.6660   58.7760    9.7470 C.3       1 DSH303      0.0000 
     13 CB          2.4060   59.8390   10.0530 C.3       1 DSH303      0.0000 
     14 SD          3.7780   61.6460    8.6530 S.3       1 DSH303      0.0000 
     15 CG          2.2250   61.1430    9.3150 C.3       1 DSH303      0.0000 
     16 C1'         3.0740   66.3360    7.0050 C.3       1 DSH303      0.0000 
     17 C2'         4.3290   65.6810    6.4570 C.3       1 DSH303      0.0000 
     18 O2'         4.6130   66.1530    5.1400 O.3       1 DSH303      0.0000 
     19 C3'         3.9640   64.2100    6.4460 C.3       1 DSH303      0.0000 
     20 O3'         3.2320   63.9230    5.2530 O.3       1 DSH303      0.0000 
     21 C4'         2.9980   64.0480    7.6010 C.3       1 DSH303      0.0000 
     22 O4'         2.5430   65.3720    7.9270 O.3       1 DSH303      0.0000 
     23 C5'         3.6670   63.4040    8.8100 C.3       1 DSH303      0.0000 
     24 H           0.0314   70.4748    6.5762 H         1 DSH303      0.0000 
     25 H           2.6996   72.7779    9.3649 H         1 DSH303      0.0000 
     26 H           4.0724   71.6779    9.7269 H         1 DSH303      0.0000 
     27 H           5.0943   67.2399    8.7443 H         1 DSH303      0.0000 
     28 H           2.3782   57.8638    9.5348 H         1 DSH303      0.0000 
     29 H           1.1682   58.3622   10.7295 H         1 DSH303      0.0000 
     30 H           3.5397   59.6101    9.9877 H         1 DSH303      0.0000 
     31 H           2.3251   60.1137   11.1755 H         1 DSH303      0.0000 
     32 H           1.9519   61.9526    9.9470 H         1 DSH303      0.0000 
     33 H           1.6052   61.0605    8.4557 H         1 DSH303      0.0000 
     34 H           2.3934   66.4850    6.1904 H         1 DSH303      0.0000 
     35 H           5.1141   65.8301    7.1477 H         1 DSH303      0.0000 
     36 H           4.7973   63.6241    6.5919 H         1 DSH303      0.0000 
     37 H           2.1795   63.4353    7.2782 H         1 DSH303      0.0000 
     38 H           4.6895   63.7074    8.9340 H         1 DSH303      0.0000 
     39 H           3.1094   63.5376    9.7179 H         1 DSH303      0.0000 
     40 H           0.2733   57.9589    8.6712 H         1 DSH303      0.0000 
     41 H           0.0420   59.5185    8.9882 H         1 DSH303      0.0000 
     42 H           1.1418   59.0730    7.9027 H         1 DSH303      0.0000 
     43 H           3.9473   66.8812    4.9770 H         1 DSH303      0.0000 
     44 H           2.5758   64.6725    5.1655 H         1 DSH303      0.0000 
@<TRIPOS>BOND
     1   12    1 1    
     2   40    1 1    
     3   41    1 1    
     4   42    1 1    
     5    3    2 ar   
     6    7    2 ar   
     7    4    3 ar   
     8   24    3 1    
     9    5    4 ar   
    10    6    5 ar   
    11   11    5 1    
    12    7    6 ar   
    13    9    6 1    
    14    8    7 1    
    15   25    8 1    
    16   26    8 1    
    17   10    9 2    
    18   11   10 1    
    19   27   10 1    
    20   16   11 1    
    21   13   12 1    
    22   28   12 1    
    23   29   12 1    
    24   15   13 1    
    25   30   13 1    
    26   31   13 1    
    27   15   14 1    
    28   23   14 1    
    29   32   15 1    
    30   33   15 1    
    31   17   16 1    
    32   22   16 1    
    33   34   16 1    
    34   18   17 1    
    35   19   17 1    
    36   35   17 1    
    37   43   18 1    
    38   20   19 1    
    39   21   19 1    
    40   36   19 1    
    41   44   20 1    
    42   22   21 1    
    43   23   21 1    
    44   37   21 1    
    45   38   23 1    
    46   39   23 1    
@<TRIPOS>SUBSTRUCTURE
     1 DSH303      1 GROUP   
@<TRIPOS>SET

