#    Name: 2gcq_DOI_1_INTS_M
#    Modification time : Tue Mar 25 14:02:02 2014

@<TRIPOS>MOLECULE
2gcq_DOI_1_INTS_M
   72     0    15     0     0
SMALL
NO_CHARGES


@<TRIPOS>ATOM
      1 N          15.1100   56.0455  162.4160 N.am      2 SEC2        0.0000 
      2 N          15.7530   54.7430  162.3990 N.am     12 SEL2        0.0000 
      3 N          14.4670   57.3480  162.4330 N.am      7 SEP2        0.0000 
      4 N          15.1630   55.2265  163.6490 N.am      2 SEC2        0.0000 
      5 N          14.5730   55.7100  164.8990 N.am      7 SEP2        0.0000 
      6 N          15.4040   51.6020  162.5745 N.am      2 SEC2        0.0000 
      7 N          15.6920   52.4170  161.4290 N.am     12 SEL2        0.0000 
      8 N          15.1160   50.7870  163.7200 N.am      7 SEP2        0.0000 
      9 N          16.0275   51.2400  160.9645 N.am      2 SEC2        0.0000 
     10 N          16.3630   50.0630  160.5000 N.am      7 SEP2        0.0000 
     11 Zn          6.7240   50.0110  165.4995 Zn        4 ZIC7        0.0000 
     12 Zn          7.7610   49.7130  165.3090 Zn       14 ZIL7        0.0000 
     13 Zn          5.6870   50.3090  165.6900 Zn        9 ZIP7        0.0000 
     14 N           8.2025   50.1080  166.5415 N.am      2 SEC2        0.0000 
     15 N           7.7610   49.7130  165.3090 N.am     12 SEL2        0.0000 
     16 N           8.6440   50.5030  167.7740 N.am      7 SEP2        0.0000 
     17 NZ          7.9435   46.7205  164.0335 N.4       3 LYC4        0.0000 
     18 NZ          9.3580   47.7660  164.8830 N.4      13 LYL4        0.0000 
     19 NZ          6.5290   45.6750  163.1840 N.4       8 LYP4        0.0000 
     20 N           9.9400   47.1870  163.8175 N.am      2 SEC2        0.0000 
     21 N           9.3580   47.7660  164.8830 N.am     12 SEL2        0.0000 
     22 N          10.5220   46.6080  162.7520 N.am      7 SEP2        0.0000 
     23 NZ          7.0660   47.0150  163.1795 N.4       3 LYC4        0.0000 
     24 NZ          7.6030   48.3550  163.1750 N.4      13 LYL4        0.0000 
     25 N           6.3205   48.4015  162.5075 N.am      2 SEC2        0.0000 
     26 N           7.6030   48.3550  163.1750 N.am     12 SEL2        0.0000 
     27 N           5.0380   48.4480  161.8400 N.am      7 SEP2        0.0000 
     28 N           7.0660   47.0150  163.1795 N.am      2 SEC2        0.0000 
     29 N           6.5290   45.6750  163.1840 N.am      7 SEP2        0.0000 
     30 CA         15.1150   55.8065  159.4230 C.3       5 GLC5        0.0000 
     31 CA         15.0640   53.8800  158.6950 C.3      15 GLL5        0.0000 
     32 CA         15.1660   57.7330  160.1510 C.3      10 GLP5        0.0000 
     33 CA         12.5780   52.2605  157.0145 C.3       5 GLC5        0.0000 
     34 CA         13.6490   53.7460  158.1880 C.3      15 GLL5        0.0000 
     35 CA         11.5070   50.7750  155.8410 C.3      10 GLP5        0.0000 
     36 CA         11.1015   51.5535  158.6505 C.3       5 GLC5        0.0000 
     37 CA         11.6780   53.2750  159.3480 C.3      15 GLL5        0.0000 
     38 CA         10.5250   49.8320  157.9530 C.3      10 GLP5        0.0000 
     39 CA          8.6350   53.4695  160.5325 C.3       5 GLC5        0.0000 
     40 CA         10.1520   52.1300  160.9940 C.3      15 GLL5        0.0000 
     41 CA          7.1180   54.8090  160.0710 C.3      10 GLP5        0.0000 
     42 CA          7.2635   49.7190  160.4555 C.3       5 GLC5        0.0000 
     43 CA          8.0470   51.4850  160.9450 C.3      15 GLL5        0.0000 
     44 CA          6.4800   47.9530  159.9660 C.3      10 GLP5        0.0000 
     45 CA          9.2860   50.6585  159.4490 C.3       5 GLC5        0.0000 
     46 CA          7.5825   53.1470  160.5080 C.3       5 GLC5        0.0000 
     47 CA          9.8425   48.9170  162.0540 C.3       5 GLC5        0.0000 
     48 CA          9.3300   50.6850  162.6980 C.3      15 GLL5        0.0000 
     49 CA         10.3550   47.1490  161.4100 C.3      10 GLP5        0.0000 
     50 N          11.0590   49.4255  163.7285 N.am      2 SEC2        0.0000 
     51 N           9.6010   49.8840  163.5960 N.am     12 SEL2        0.0000 
     52 N          12.5170   48.9670  163.8610 N.am      7 SEP2        0.0000 
     53 N          12.1180   50.2745  163.2075 N.am      2 SEC2        0.0000 
     54 N          11.7190   51.5820  162.5540 N.am     12 SEL2        0.0000 
     55 CA         12.1370   55.2175  161.5350 C.3       5 GLC5        0.0000 
     56 CA         11.8190   54.7950  159.3620 C.3      15 GLL5        0.0000 
     57 CA         12.4550   55.6400  163.7080 C.3      10 GLP5        0.0000 
     58 CA         13.9970   56.3825  159.1950 C.3       5 GLC5        0.0000 
     59 CA         12.8280   55.0320  158.2390 C.3      15 GLL5        0.0000 
     60 CA         11.2755   56.3070  157.3565 C.3       5 GLC5        0.0000 
     61 CA          9.7230   57.5820  156.4740 C.3      10 GLP5        0.0000 
     62 O          12.6350   55.3365  155.7255 O.2       1 ALC1        0.0000 
     63 O          12.2170   55.2880  156.9790 O.2      11 ALL1        0.0000 
     64 O          13.0530   55.3850  154.4720 O.2       6 ALP1        0.0000 
     65 CA         15.4458   52.0815  158.2697 C.3       5 GLC5        0.0000 
     66 CA         16.5350   50.3500  158.0980 C.3      10 GLP5        0.0000 
     67 CA         11.3470   50.2115  161.5165 C.3       5 GLC5        0.0000 
     68 CA         12.4180   48.6490  161.4600 C.3      10 GLP5        0.0000 
     69 CA         10.4005   50.8030  159.7630 C.3       5 GLC5        0.0000 
     70 CA         10.4000   51.4180  162.1520 C.3      15 GLL5        0.0000 
     71 CA         14.8321   55.4013  157.0056 C.3       5 GLC5        0.0000 
     72 CA         16.0720   56.3800  155.6710 C.3      10 GLP5        0.0000 
@<TRIPOS>BOND
@<TRIPOS>SUBSTRUCTURE
     1 ALC1       62 GROUP        1 X    ALC  0     ROOT ALC X 1
     2 SEC2        1 GROUP        1 X    SEC  0     **** SEC X 2
     3 LYC4       17 GROUP        1 X    LYC  0     **** LYC X 4
     4 ZIC7       11 GROUP        1 X    ZIC  0     **** ZIC X 5
     5 GLC5       30 GROUP        1 X    GLC  0     **** GLC X 6
     6 ALP1       64 GROUP        1 Y    ALP  0     ROOT ALP Y 8
     7 SEP2        3 GROUP        1 Y    SEP  0     **** SEP Y 9
     8 LYP4       19 GROUP        1 Y    LYP  0     **** LYP Y 11
     9 ZIP7       13 GROUP        1 Y    ZIP  0     **** ZIP Y 12
    10 GLP5       32 GROUP        1 Y    GLP  0     **** GLP Y 13
    11 ALL1       63 GROUP        1 Z    ALL  0     ROOT ALL Z 15
    12 SEL2        2 GROUP        1 Z    SEL  0     **** SEL Z 16
    13 LYL4       18 GROUP        1 Z    LYL  0     **** LYL Z 18
    14 ZIL7       12 GROUP        1 Z    ZIL  0     **** ZIL Z 19
    15 GLL5       31 GROUP        1 Z    GLL  0     **** GLL Z 20
@<TRIPOS>SET

