#    Name: 2gcq_DOI_1_ligand
#    Modification time : Tue Mar 25 14:02:02 2014

@<TRIPOS>MOLECULE
2gcq_DOI_1_ligand
   36    38     1     0     0
SMALL
NO_CHARGES


@<TRIPOS>ATOM
      1 PA         16.0480   53.8750  161.1900 P.3       1 DOI451      0.0000 
      2 O1A        15.7530   54.7430  162.3990 O.co2     1 DOI451      0.0000 
      3 O2A        17.4600   54.0620  160.6590 O.co2     1 DOI451      0.0000 
      4 O3A        15.6920   52.4170  161.4290 O.co2     1 DOI451      0.0000 
      5 O5'        15.0500   54.4280  160.0290 O.3       1 DOI451      0.0000 
      6 P6          8.5110   48.8770  164.2750 P.3       1 DOI451      0.0000 
      7 O16         7.7610   49.7130  165.3090 O.co2     1 DOI451      0.0000 
      8 O26         9.3580   47.7660  164.8830 O.co2     1 DOI451      0.0000 
      9 O36         7.6030   48.3550  163.1750 O.co2     1 DOI451      0.0000 
     10 C5'        15.0640   53.8800  158.6950 C.3       1 DOI451      0.0000 
     11 C4'        13.6490   53.7460  158.1880 C.3       1 DOI451      0.0000 
     12 O4'        12.9420   52.7670  158.9840 O.3       1 DOI451      0.0000 
     13 C1'        11.6780   53.2750  159.3480 C.3       1 DOI451      0.0000 
     14 N9         11.3420   52.7320  160.6620 N.pl3     1 DOI451      0.0000 
     15 C4         10.1520   52.1300  160.9940 C.ar      1 DOI451      0.0000 
     16 N3          8.9850   52.2090  160.3300 N.ar      1 DOI451      0.0000 
     17 C2          8.0470   51.4850  160.9450 C.ar      1 DOI451      0.0000 
     18 N1          8.1410   50.7450  162.0630 N.ar      1 DOI451      0.0000 
     19 C6          9.3300   50.6850  162.6980 C.ar      1 DOI451      0.0000 
     20 O6          9.6010   49.8840  163.5960 O.3       1 DOI451      0.0000 
     21 C5         10.4000   51.4180  162.1520 C.ar      1 DOI451      0.0000 
     22 N7         11.7190   51.5820  162.5540 N.2       1 DOI451      0.0000 
     23 C8         12.2310   52.3660  161.6400 C.2       1 DOI451      0.0000 
     24 C2'        11.8190   54.7950  159.3620 C.3       1 DOI451      0.0000 
     25 C3'        12.8280   55.0320  158.2390 C.3       1 DOI451      0.0000 
     26 O3'        12.2170   55.2880  156.9790 O.3       1 DOI451      0.0000 
     27 H          15.5333   52.8902  158.6791 H         1 DOI451      0.0000 
     28 H          15.6189   54.5276  158.0073 H         1 DOI451      0.0000 
     29 H          13.6726   53.4070  157.1526 H         1 DOI451      0.0000 
     30 H          10.9377   53.0114  158.6236 H         1 DOI451      0.0000 
     31 H           7.0459   51.4933  160.4676 H         1 DOI451      0.0000 
     32 H          13.1826   52.6882  161.6267 H         1 DOI451      0.0000 
     33 H          12.2260   55.1097  160.2816 H         1 DOI451      0.0000 
     34 H          10.8977   55.2437  159.1164 H         1 DOI451      0.0000 
     35 H          13.4903   55.8189  158.5538 H         1 DOI451      0.0000 
     36 H          12.9556   55.1998  156.3107 H         1 DOI451      0.0000 
@<TRIPOS>BOND
     1    2    1 ar   
     2    3    1 ar   
     3    4    1 ar   
     4    5    1 1    
     5   10    5 1    
     6    7    6 ar   
     7    8    6 ar   
     8    9    6 ar   
     9   20    6 1    
    10   11   10 1    
    11   27   10 1    
    12   28   10 1    
    13   12   11 1    
    14   25   11 1    
    15   29   11 1    
    16   13   12 1    
    17   14   13 1    
    18   24   13 1    
    19   30   13 1    
    20   15   14 1    
    21   23   14 1    
    22   16   15 ar   
    23   21   15 ar   
    24   17   16 ar   
    25   18   17 ar   
    26   31   17 1    
    27   19   18 ar   
    28   20   19 1    
    29   21   19 ar   
    30   22   21 1    
    31   23   22 2    
    32   32   23 1    
    33   25   24 1    
    34   33   24 1    
    35   34   24 1    
    36   26   25 1    
    37   35   25 1    
    38   36   26 1    
@<TRIPOS>SUBSTRUCTURE
     1 DOI451      1 GROUP   
@<TRIPOS>SET

