#    Name: 4h1n_CGE_1_INTS_M
#    Modification time : Tue Mar 25 00:07:09 2014

@<TRIPOS>MOLECULE
4h1n_CGE_1_INTS_M
   54     0     3     0     0
SMALL
NO_CHARGES


@<TRIPOS>ATOM
      1 CA        -23.6960   27.0135   -4.8770 C.3       1 GLC5        0.0000 
      2 CA        -23.1560   28.5640   -5.7700 C.3       3 GLL5        0.0000 
      3 CA        -24.2360   25.4630   -3.9840 C.3       2 GLP5        0.0000 
      4 CA        -24.2485   29.9270   -5.0195 C.3       1 GLC5        0.0000 
      5 CA        -25.3410   31.2900   -4.2690 C.3       2 GLP5        0.0000 
      6 CA        -19.7385   29.6470  -11.7985 C.3       1 GLC5        0.0000 
      7 CA        -20.5270   30.2900  -10.3940 C.3       3 GLL5        0.0000 
      8 CA        -18.9500   29.0040  -13.2030 C.3       2 GLP5        0.0000 
      9 CA        -22.6265   30.4355  -11.0530 C.3       1 GLC5        0.0000 
     10 CA        -24.7260   30.5810  -11.7120 C.3       2 GLP5        0.0000 
     11 CA        -19.3490   30.5465   -9.2015 C.3       1 GLC5        0.0000 
     12 CA        -18.1710   30.8030   -8.0090 C.3       2 GLP5        0.0000 
     13 CA        -25.6695   20.5635  -10.6890 C.3       1 GLC5        0.0000 
     14 CA        -25.3840   22.3110   -9.5400 C.3       3 GLL5        0.0000 
     15 CA        -25.9550   18.8160  -11.8380 C.3       2 GLP5        0.0000 
     16 CA        -21.2435   27.6670   -2.6890 C.3       1 GLC5        0.0000 
     17 CA        -20.7160   27.9400   -4.8120 C.3       3 GLL5        0.0000 
     18 CA        -21.7710   27.3940   -0.5660 C.3       2 GLP5        0.0000 
     19 CA        -21.0915   22.9795  -11.7370 C.3       1 GLC5        0.0000 
     20 CA        -21.5430   23.8580   -9.7880 C.3       3 GLL5        0.0000 
     21 CA        -20.6400   22.1010  -13.6860 C.3       2 GLP5        0.0000 
     22 CA        -24.1745   24.9355   -6.4820 C.3       1 GLC5        0.0000 
     23 CA        -23.4770   25.4770   -8.3370 C.3       3 GLL5        0.0000 
     24 CA        -24.8720   24.3940   -4.6270 C.3       2 GLP5        0.0000 
     25 CA        -21.8810   21.0150   -9.9370 C.3       1 GLC5        0.0000 
     26 CA        -23.6910   22.0230  -10.1230 C.3       3 GLL5        0.0000 
     27 CA        -20.0710   20.0070   -9.7510 C.3       2 GLP5        0.0000 
     28 CA        -23.2215   21.3140   -8.5990 C.3       1 GLC5        0.0000 
     29 CA        -22.7520   20.6050   -7.0750 C.3       2 GLP5        0.0000 
     30 CA        -23.5880   20.2315  -10.8200 C.3       1 GLC5        0.0000 
     31 CA        -23.4850   18.4400  -11.5170 C.3       2 GLP5        0.0000 
     32 CA        -24.3045   23.7770  -11.0825 C.3       1 GLC5        0.0000 
     33 CA        -24.9180   25.5310  -12.0420 C.3       2 GLP5        0.0000 
     34 CA        -22.1077   30.2462   -5.4518 C.3       1 GLC5        0.0000 
     35 CA        -21.5430   27.9330   -5.9290 C.3       3 GLL5        0.0000 
     36 CA        -21.8660   32.2440   -5.0540 C.3       2 GLP5        0.0000 
     37 CA        -19.6887   29.5943   -4.2278 C.3       1 GLC5        0.0000 
     38 CA        -19.3100   31.4950   -3.6070 C.3       2 GLP5        0.0000 
     39 CA        -18.0755   26.0500   -7.3110 C.3       1 GLC5        0.0000 
     40 CA        -18.9700   26.9490   -6.1020 C.3       3 GLL5        0.0000 
     41 CA        -16.7650   25.1530   -7.9630 C.3       2 GLP5        0.0000 
     42 CA        -18.7785   28.8750   -7.3340 C.3       1 GLC5        0.0000 
     43 CA        -25.1022   24.2533  -10.6280 C.3       1 GLC5        0.0000 
     44 CA        -19.0301   26.4785   -3.7929 C.3       1 GLC5        0.0000 
     45 CA        -18.1050   25.3880   -2.4330 C.3       2 GLP5        0.0000 
     46 CA        -21.1515   21.8373   -9.7110 C.3       1 GLC5        0.0000 
     47 CA        -19.6180   24.8785  -10.6480 C.3       1 GLC5        0.0000 
     48 CA        -17.8690   25.2410  -11.8550 C.3       2 GLP5        0.0000 
     49 CA        -22.4920   22.1363   -8.3730 C.3       1 GLC5        0.0000 
     50 CA        -23.5750   24.5992  -10.8565 C.3       1 GLC5        0.0000 
     51 CA        -22.9210   23.4770   -9.5540 C.3       3 GLL5        0.0000 
     52 CA        -24.2852   25.1747  -10.3525 C.3       1 GLC5        0.0000 
     53 CA        -23.8280   24.1600   -8.9890 C.3       3 GLL5        0.0000 
     54 CA        -23.6546   22.0864   -8.0883 C.3       1 GLC5        0.0000 
@<TRIPOS>BOND
@<TRIPOS>SUBSTRUCTURE
     1 GLC5        1 GROUP        1 X    GLC  0     ROOT GLC X 6
     2 GLP5        3 GROUP        1 Y    GLP  0     ROOT GLP Y 13
     3 GLL5        2 GROUP        1 Z    GLL  0     ROOT GLL Z 20
@<TRIPOS>SET

