#    Name: 4h1n_CGE_1_ligand
#    Modification time : Tue Mar 25 00:07:09 2014

@<TRIPOS>MOLECULE
4h1n_CGE_1_ligand
   38    40     1     0     0
SMALL
NO_CHARGES


@<TRIPOS>ATOM
      1 C         -21.9120   28.6060   -9.3020 C.2       1 CGE505      0.0000 
      2 N         -22.3190   26.1400   -8.9980 N.4       1 CGE505      0.0000 
      3 O         -22.9200   29.1600   -9.7080 O.2       1 CGE505      0.0000 
      4 CL1       -23.1560   28.5640   -5.7700 Cl        1 CGE505      0.0000 
      5 CA        -22.0280   27.4460   -8.3420 C.3       1 CGE505      0.0000 
      6 CAA       -20.5270   30.2900  -10.3940 C.3       1 CGE505      0.0000 
      7 CAD       -19.4190   27.4470   -4.8850 C.ar      1 CGE505      0.0000 
      8 CAE       -18.9700   26.9490   -6.1020 C.ar      1 CGE505      0.0000 
      9 CAF       -25.3840   22.3110   -9.5400 C.2       1 CGE505      0.0000 
     10 CAG       -20.7160   27.9400   -4.8120 C.ar      1 CGE505      0.0000 
     11 CAH       -19.8020   26.9450   -7.2160 C.ar      1 CGE505      0.0000 
     12 CAI       -25.1890   23.6400   -8.8880 C.2       1 CGE505      0.0000 
     13 CAJ       -21.5430   23.8580   -9.7880 C.3       1 CGE505      0.0000 
     14 CAK       -21.1910   25.1740   -9.0940 C.3       1 CGE505      0.0000 
     15 CAL       -23.4770   25.4770   -8.3370 C.3       1 CGE505      0.0000 
     16 OAM       -20.7180   29.0270   -9.7080 O.3       1 CGE505      0.0000 
     17 SAN       -23.6910   22.0230  -10.1230 S.3       1 CGE505      0.0000 
     18 CAP       -21.5430   27.9330   -5.9290 C.ar      1 CGE505      0.0000 
     19 CAQ       -23.8280   24.1600   -8.9890 C.2       1 CGE505      0.0000 
     20 CAR       -22.9210   23.4770   -9.5540 C.2       1 CGE505      0.0000 
     21 CAS       -21.1010   27.4360   -7.1500 C.ar      1 CGE505      0.0000 
     22 H         -22.6576   26.3600  -10.0487 H         1 CGE505      0.0000 
     23 H         -23.1071   27.6935   -7.8120 H         1 CGE505      0.0000 
     24 H         -18.8133   27.4506   -4.0679 H         1 CGE505      0.0000 
     25 H         -18.0092   26.5782   -6.1803 H         1 CGE505      0.0000 
     26 H         -25.9343   21.7614   -9.6901 H         1 CGE505      0.0000 
     27 H         -21.0702   28.3164   -3.9165 H         1 CGE505      0.0000 
     28 H         -19.4461   26.5679   -8.1149 H         1 CGE505      0.0000 
     29 H         -25.9035   24.0978   -8.4467 H         1 CGE505      0.0000 
     30 H         -20.8502   23.0849   -9.4176 H         1 CGE505      0.0000 
     31 H         -21.3435   23.9802  -10.8651 H         1 CGE505      0.0000 
     32 H         -20.8103   24.9393   -8.0795 H         1 CGE505      0.0000 
     33 H         -20.3449   25.6378   -9.6401 H         1 CGE505      0.0000 
     34 H         -24.3558   26.1386   -8.3743 H         1 CGE505      0.0000 
     35 H         -23.2478   25.2992   -7.2753 H         1 CGE505      0.0000 
     36 H         -19.5666   30.4456  -10.6251 H         1 CGE505      0.0000 
     37 H         -21.0444   30.3303  -11.2488 H         1 CGE505      0.0000 
     38 H         -20.8232   31.0646   -9.8353 H         1 CGE505      0.0000 
@<TRIPOS>BOND
     1    3    1 2    
     2    5    1 1    
     3   16    1 1    
     4    5    2 1    
     5   14    2 1    
     6   15    2 1    
     7   22    2 1    
     8   18    4 1    
     9   21    5 1    
    10   23    5 1    
    11   16    6 1    
    12   36    6 1    
    13   37    6 1    
    14   38    6 1    
    15    8    7 ar   
    16   10    7 ar   
    17   24    7 1    
    18   11    8 ar   
    19   25    8 1    
    20   12    9 2    
    21   17    9 1    
    22   26    9 1    
    23   18   10 ar   
    24   27   10 1    
    25   21   11 ar   
    26   28   11 1    
    27   19   12 1    
    28   29   12 1    
    29   14   13 1    
    30   20   13 1    
    31   30   13 1    
    32   31   13 1    
    33   32   14 1    
    34   33   14 1    
    35   19   15 1    
    36   34   15 1    
    37   35   15 1    
    38   20   17 1    
    39   21   18 ar   
    40   20   19 2    
@<TRIPOS>SUBSTRUCTURE
     1 CGE505      1 GROUP   
@<TRIPOS>SET

