#    Name: 1uqt_U2F_1_INTS_M
#    Modification time : Tue Mar 25 07:01:54 2014

@<TRIPOS>MOLECULE
1uqt_U2F_1_INTS_M
   86     0    12     0     0
SMALL
NO_CHARGES


@<TRIPOS>ATOM
      1 NZ         34.5385   21.5605   15.1830 N.4       3 LYC4        0.0000 
      2 NZ         33.8640   22.7530   15.2620 N.4      11 LYL4        0.0000 
      3 NZ         36.2700   20.1600   15.9110 N.4       7 LYP4        0.0000 
      4 N          34.5385   21.5605   15.1830 N.am      2 SEC2        0.0000 
      5 N          33.8640   22.7530   15.2620 N.am     10 SEL2        0.0000 
      6 N          35.2130   20.3680   15.1040 N.am      6 SEP2        0.0000 
      7 NZ         36.1400   22.4640   16.5805 N.4       3 LYC4        0.0000 
      8 NZ         35.5120   23.7680   16.5300 N.4      11 LYL4        0.0000 
      9 NZ         34.9880   23.6675   18.0170 N.4       3 LYC4        0.0000 
     10 NZ         34.4640   23.5670   19.5040 N.4       7 LYP4        0.0000 
     11 N          36.1400   22.4640   16.5805 N.am      2 SEC2        0.0000 
     12 N          35.5120   23.7680   16.5300 N.am     10 SEL2        0.0000 
     13 N          36.7680   21.1600   16.6310 N.am      6 SEP2        0.0000 
     14 N          34.9880   23.6675   18.0170 N.am      2 SEC2        0.0000 
     15 N          34.4640   23.5670   19.5040 N.am      6 SEP2        0.0000 
     16 N          33.8350   24.0820   18.1475 N.am      2 SEC2        0.0000 
     17 N          33.2060   24.5970   16.7910 N.am     10 SEL2        0.0000 
     18 N          31.7570   27.8550   17.0845 N.am      2 SEC2        0.0000 
     19 N          32.5400   26.9050   16.2430 N.am     10 SEL2        0.0000 
     20 N          30.9740   28.8050   17.9260 N.am      6 SEP2        0.0000 
     21 N          29.8805   26.5035   18.1480 N.am      2 SEC2        0.0000 
     22 N          31.1450   25.5100   17.7570 N.am     10 SEL2        0.0000 
     23 N          28.6160   27.4970   18.5390 N.am      6 SEP2        0.0000 
     24 CA         29.2665   24.1975   16.9415 C.3       4 GLC5        0.0000 
     25 CA         30.5580   23.9010   15.2580 C.3      12 GLL5        0.0000 
     26 CA         27.9750   24.4940   18.6250 C.3       8 GLP5        0.0000 
     27 N          26.4375   26.1350   12.7575 N.am      2 SEC2        0.0000 
     28 N          27.7790   25.6050   13.6730 N.am     10 SEL2        0.0000 
     29 N          25.0960   26.6650   11.8420 N.am      6 SEP2        0.0000 
     30 O          26.9770   26.5060   14.0575 O.2       1 ALC1        0.0000 
     31 O          27.7790   25.6050   13.6730 O.2       9 ALL1        0.0000 
     32 O          26.1750   27.4070   14.4420 O.2       5 ALP1        0.0000 
     33 O          26.0995   25.7390   14.6950 O.2       1 ALC1        0.0000 
     34 O          26.0240   24.0710   14.9480 O.2       9 ALL1        0.0000 
     35 O          25.7205   25.2005   15.5525 O.2       1 ALC1        0.0000 
     36 O          25.4170   26.3300   16.1570 O.2       5 ALP1        0.0000 
     37 O          24.8505   18.9400   13.0820 O.2       1 ALC1        0.0000 
     38 O          26.0380   19.3940   13.6030 O.2       9 ALL1        0.0000 
     39 O          23.6630   18.4860   12.5610 O.2       5 ALP1        0.0000 
     40 N          25.2285   16.7790   14.1420 N.am      2 SEC2        0.0000 
     41 N          26.4160   17.6030   14.6790 N.am     10 SEL2        0.0000 
     42 N          24.0410   15.9550   13.6050 N.am      6 SEP2        0.0000 
     43 CA         28.5095   17.5105   15.3905 C.3       4 GLC5        0.0000 
     44 CA         27.6950   19.2710   15.3090 C.3      12 GLL5        0.0000 
     45 CA         29.3240   15.7500   15.4720 C.3       8 GLP5        0.0000 
     46 CA         38.6530   24.0235   16.6200 C.3       4 GLC5        0.0000 
     47 CA         37.4930   25.4170   16.6910 C.3      12 GLL5        0.0000 
     48 CA         39.8130   22.6300   16.5490 C.3       8 GLP5        0.0000 
     49 N          36.4085   29.0365   18.6275 N.am      2 SEC2        0.0000 
     50 N          36.2990   27.7270   18.1130 N.am     10 SEL2        0.0000 
     51 N          36.5180   30.3460   19.1420 N.am      6 SEP2        0.0000 
     52 N          35.0285   28.5510   18.6850 N.am      2 SEC2        0.0000 
     53 N          33.7580   29.3750   19.2570 N.am      6 SEP2        0.0000 
     54 O          36.4255   26.7975   18.9940 O.2       1 ALC1        0.0000 
     55 O          36.2990   27.7270   18.1130 O.2       9 ALL1        0.0000 
     56 O          36.5520   25.8680   19.8750 O.2       5 ALP1        0.0000 
     57 O          37.8215   26.9585   18.2545 O.2       1 ALC1        0.0000 
     58 O          39.3440   26.1900   18.3960 O.2       5 ALP1        0.0000 
     59 CA         35.1475   30.1435   16.9530 C.3       4 GLC5        0.0000 
     60 CA         35.4360   28.4380   15.8090 C.3      12 GLL5        0.0000 
     61 CA         34.8590   31.8490   18.0970 C.3       8 GLP5        0.0000 
     62 N          33.9670   29.1905   17.8775 N.am      2 SEC2        0.0000 
     63 N          34.1760   29.0060   16.4980 N.am     10 SEL2        0.0000 
     64 CA         36.6750   29.4515   12.2990 C.3       4 GLC5        0.0000 
     65 CA         34.8250   29.1280   13.3320 C.3      12 GLL5        0.0000 
     66 CA         38.5250   29.7750   11.2660 C.3       8 GLP5        0.0000 
     67 CA         34.2860   30.9270   13.8895 C.3       4 GLC5        0.0000 
     68 CA         33.7470   32.7260   14.4470 C.3       8 GLP5        0.0000 
     69 CA         32.7240   29.2395   13.5060 C.3       4 GLC5        0.0000 
     70 CA         30.6230   29.3510   13.6800 C.3       8 GLP5        0.0000 
     71 N          36.5395   30.9720   14.3240 N.am      2 SEC2        0.0000 
     72 N          35.7690   30.1930   13.4180 N.am     10 SEL2        0.0000 
     73 N          37.3100   31.7510   15.2300 N.am      6 SEP2        0.0000 
     74 O          36.5000   30.2130   12.2935 O.2       1 ALC1        0.0000 
     75 O          35.7690   30.1930   13.4180 O.2       9 ALL1        0.0000 
     76 O          37.2310   30.2330   11.1690 O.2       5 ALP1        0.0000 
     77 CA         27.9008   24.3472   16.7245 C.3       4 GLC5        0.0000 
     78 CA         28.3140   24.7520   14.6540 C.3      12 GLL5        0.0000 
     79 CA         26.9678   19.8433   16.8023 C.3       4 GLC5        0.0000 
     80 CA         28.0360   20.6080   15.1020 C.3      12 GLL5        0.0000 
     81 CA         26.0700   19.7470   18.3990 C.3       8 GLP5        0.0000 
     82 CA         25.7512   20.4498   15.4023 C.3       4 GLC5        0.0000 
     83 CA         23.6370   20.9600   15.5990 C.3       8 GLP5        0.0000 
     84 CA         39.2357   26.1472   15.7652 C.3       4 GLC5        0.0000 
     85 CA         36.9880   26.3740   15.7800 C.3      12 GLL5        0.0000 
     86 CA         41.2310   26.3990   15.2950 C.3       8 GLP5        0.0000 
@<TRIPOS>BOND
@<TRIPOS>SUBSTRUCTURE
     1 ALC1       30 GROUP        1 X    ALC  0     ROOT ALC X 1
     2 SEC2        4 GROUP        1 X    SEC  0     **** SEC X 2
     3 LYC4        1 GROUP        1 X    LYC  0     **** LYC X 4
     4 GLC5       24 GROUP        1 X    GLC  0     **** GLC X 6
     5 ALP1       32 GROUP        1 Y    ALP  0     ROOT ALP Y 8
     6 SEP2        6 GROUP        1 Y    SEP  0     **** SEP Y 9
     7 LYP4        3 GROUP        1 Y    LYP  0     **** LYP Y 11
     8 GLP5       26 GROUP        1 Y    GLP  0     **** GLP Y 13
     9 ALL1       31 GROUP        1 Z    ALL  0     ROOT ALL Z 15
    10 SEL2        5 GROUP        1 Z    SEL  0     **** SEL Z 16
    11 LYL4        2 GROUP        1 Z    LYL  0     **** LYL Z 18
    12 GLL5       25 GROUP        1 Z    GLL  0     **** GLL Z 20
@<TRIPOS>SET

