#    Name: 1uqt_U2F_1_ligand
#    Modification time : Tue Mar 25 07:01:54 2014

@<TRIPOS>MOLECULE
1uqt_U2F_1_ligand
   57    59     1     0     0
SMALL
NO_CHARGES


@<TRIPOS>ATOM
      1 C1         36.3790   25.6720   14.6270 C.3       1 U2F900      0.0000 
      2 O1         35.0070   24.8690   14.5370 O.3       1 U2F900      0.0000 
      3 PB         34.2710   24.1210   15.7440 P.3       1 U2F900      0.0000 
      4 O1B        33.8640   22.7530   15.2620 O.co2     1 U2F900      0.0000 
      5 O2B        35.5120   23.7680   16.5300 O.co2     1 U2F900      0.0000 
      6 O3A        33.2060   24.5970   16.7910 O.3       1 U2F900      0.0000 
      7 PA         32.0100   25.6020   16.5180 P.3       1 U2F900      0.0000 
      8 O1A        32.5400   26.9050   16.2430 O.co2     1 U2F900      0.0000 
      9 O2A        31.1450   25.5100   17.7570 O.co2     1 U2F900      0.0000 
     10 O5'        31.2750   25.1130   15.1830 O.3       1 U2F900      0.0000 
     11 C5'        30.5580   23.9010   15.2580 C.3       1 U2F900      0.0000 
     12 C4'        29.5410   24.0330   14.1200 C.3       1 U2F900      0.0000 
     13 O4'        29.0720   22.7500   13.7180 O.3       1 U2F900      0.0000 
     14 C1'        27.6500   22.7250   13.8680 C.3       1 U2F900      0.0000 
     15 C2'        27.3390   23.6490   14.9940 C.3       1 U2F900      0.0000 
     16 C3'        28.3140   24.7520   14.6540 C.3       1 U2F900      0.0000 
     17 O3'        27.7790   25.6050   13.6730 O.3       1 U2F900      0.0000 
     18 O2'        26.0240   24.0710   14.9480 O.3       1 U2F900      0.0000 
     19 N1         27.3570   21.3290   14.1360 N.am      1 U2F900      0.0000 
     20 C6'        26.3200   20.7410   13.4190 C.2       1 U2F900      0.0000 
     21 O6'        25.7690   21.3380   12.5390 O.2       1 U2F900      0.0000 
     22 N3         26.0380   19.3940   13.6030 N.am      1 U2F900      0.0000 
     23 C7'        26.7130   18.6600   14.5340 C.2       1 U2F900      0.0000 
     24 O7'        26.4160   17.6030   14.6790 O.2       1 U2F900      0.0000 
     25 C8'        27.6950   19.2710   15.3090 C.2       1 U2F900      0.0000 
     26 C9'        28.0360   20.6080   15.1020 C.2       1 U2F900      0.0000 
     27 C2         36.9880   26.3740   15.7800 C.3       1 U2F900      0.0000 
     28 F1         37.4930   25.4170   16.6910 F         1 U2F900      0.0000 
     29 C3         35.9360   27.2310   16.6700 C.3       1 U2F900      0.0000 
     30 O3         36.2990   27.7270   18.1130 O.3       1 U2F900      0.0000 
     31 C4         35.4360   28.4380   15.8090 C.3       1 U2F900      0.0000 
     32 O4         34.1760   29.0060   16.4980 O.3       1 U2F900      0.0000 
     33 C5         35.0680   27.8640   14.2630 C.3       1 U2F900      0.0000 
     34 C6         34.8250   29.1280   13.3320 C.3       1 U2F900      0.0000 
     35 O6         35.7690   30.1930   13.4180 O.3       1 U2F900      0.0000 
     36 O5         36.1830   27.0190   13.8600 O.3       1 U2F900      0.0000 
     37 H          37.1517   25.1888   14.0411 H         1 U2F900      0.0000 
     38 H          30.0144   23.7934   16.1750 H         1 U2F900      0.0000 
     39 H          31.1669   23.0425   15.0579 H         1 U2F900      0.0000 
     40 H          29.9495   24.5876   13.3299 H         1 U2F900      0.0000 
     41 H          27.1878   23.0535   12.9733 H         1 U2F900      0.0000 
     42 H          27.6565   23.1984   15.8910 H         1 U2F900      0.0000 
     43 H          28.5870   25.2509   15.5538 H         1 U2F900      0.0000 
     44 H          25.3025   18.9497   13.0196 H         1 U2F900      0.0000 
     45 H          28.1765   18.7305   16.0446 H         1 U2F900      0.0000 
     46 H          28.7749   21.0420   15.6568 H         1 U2F900      0.0000 
     47 H          37.7461   27.0581   15.4802 H         1 U2F900      0.0000 
     48 H          35.0218   26.5727   16.7639 H         1 U2F900      0.0000 
     49 H          36.1811   29.1482   15.7099 H         1 U2F900      0.0000 
     50 H          34.1585   27.3380   14.3896 H         1 U2F900      0.0000 
     51 H          33.7823   29.4756   13.5653 H         1 U2F900      0.0000 
     52 H          34.7505   28.7206   12.2876 H         1 U2F900      0.0000 
     53 H          26.8817   25.8725   14.0242 H         1 U2F900      0.0000 
     54 H          26.0103   24.9309   15.4583 H         1 U2F900      0.0000 
     55 H          36.8288   26.9814   18.5172 H         1 U2F900      0.0000 
     56 H          33.7172   28.2107   16.8943 H         1 U2F900      0.0000 
     57 H          36.3902   30.0508   12.6474 H         1 U2F900      0.0000 
@<TRIPOS>BOND
     1    2    1 1    
     2   27    1 1    
     3   36    1 1    
     4   37    1 1    
     5    3    2 1    
     6    4    3 ar   
     7    5    3 ar   
     8    6    3 1    
     9    7    6 1    
    10    8    7 ar   
    11    9    7 ar   
    12   10    7 1    
    13   11   10 1    
    14   12   11 1    
    15   38   11 1    
    16   39   11 1    
    17   13   12 1    
    18   16   12 1    
    19   40   12 1    
    20   14   13 1    
    21   15   14 1    
    22   19   14 1    
    23   41   14 1    
    24   16   15 1    
    25   18   15 1    
    26   42   15 1    
    27   17   16 1    
    28   43   16 1    
    29   53   17 1    
    30   54   18 1    
    31   20   19 1    
    32   26   19 1    
    33   21   20 2    
    34   22   20 1    
    35   23   22 1    
    36   44   22 1    
    37   24   23 2    
    38   25   23 1    
    39   26   25 2    
    40   45   25 1    
    41   46   26 1    
    42   28   27 1    
    43   29   27 1    
    44   47   27 1    
    45   30   29 1    
    46   31   29 1    
    47   48   29 1    
    48   55   30 1    
    49   32   31 1    
    50   33   31 1    
    51   49   31 1    
    52   56   32 1    
    53   34   33 1    
    54   36   33 1    
    55   50   33 1    
    56   35   34 1    
    57   51   34 1    
    58   52   34 1    
    59   57   35 1    
@<TRIPOS>SUBSTRUCTURE
     1 U2F900      1 GROUP   
@<TRIPOS>SET

