#    Name: 1h74_AGS_1_INTS_M
#    Modification time : Tue Mar 25 05:01:17 2014

@<TRIPOS>MOLECULE
1h74_AGS_1_INTS_M
   57     0    12     0     0
SMALL
NO_CHARGES


@<TRIPOS>ATOM
      1 CA         45.7805   18.5490  103.9010 C.3       4 GLC5        0.0000 
      2 CA         46.8610   17.8190  102.9290 C.3      12 GLL5        0.0000 
      3 CA         44.7000   19.2790  104.8730 C.3       8 GLP5        0.0000 
      4 CA         45.4620   18.9960  101.6225 C.3       4 GLC5        0.0000 
      5 CA         44.0630   20.1730  100.3160 C.3       8 GLP5        0.0000 
      6 CA         47.3070   18.5750  101.4030 C.3       4 GLC5        0.0000 
      7 CA         47.7530   19.3310   99.8770 C.3       8 GLP5        0.0000 
      8 N          49.7070   19.7200  107.4700 N.am      2 SEC2        0.0000 
      9 N          48.9430   18.3520  107.5440 N.am     10 SEL2        0.0000 
     10 N          50.4710   21.0880  107.3960 N.am      6 SEP2        0.0000 
     11 Zn         51.5065   18.0185  104.8745 Zn        3 ZIC7        0.0000 
     12 Zn         50.8880   17.9410  105.9050 Zn       11 ZIL7        0.0000 
     13 Zn         52.1250   18.0960  103.8440 Zn        7 ZIP7        0.0000 
     14 N          51.8515   18.7810  106.7560 N.am      2 SEC2        0.0000 
     15 N          50.8880   17.9410  105.9050 N.am     10 SEL2        0.0000 
     16 N          52.8150   19.6210  107.6070 N.am      6 SEP2        0.0000 
     17 N          48.5205   15.8895  107.8550 N.am      2 SEC2        0.0000 
     18 N          49.5050   16.0070  106.7260 N.am     10 SEL2        0.0000 
     19 N          47.5360   15.7720  108.9840 N.am      6 SEP2        0.0000 
     20 CA         50.8155   15.2650  109.6520 C.3       4 GLC5        0.0000 
     21 CA         51.8870   14.5460  108.3240 C.3      12 GLL5        0.0000 
     22 CA         49.7440   15.9840  110.9800 C.3       8 GLP5        0.0000 
     23 CA         52.9255   16.2250  107.3345 C.3       4 GLC5        0.0000 
     24 CA         53.9640   17.9040  106.3450 C.3       8 GLP5        0.0000 
     25 N          54.7310   13.6635  107.3410 N.am      2 SEC2        0.0000 
     26 N          54.1300   13.4930  108.5600 N.am     10 SEL2        0.0000 
     27 N          55.3320   13.8340  106.1220 N.am      6 SEP2        0.0000 
     28 CA         54.9425   12.5235  112.3470 C.3       4 GLC5        0.0000 
     29 CA         53.4960   12.9910  110.7760 C.3      12 GLL5        0.0000 
     30 CA         56.3890   12.0560  113.9180 C.3       8 GLP5        0.0000 
     31 N          58.7345   15.6775  110.0435 N.am      2 SEC2        0.0000 
     32 N          57.3810   15.6960  110.7280 N.am     10 SEL2        0.0000 
     33 N          60.0880   15.6590  109.3590 N.am      6 SEP2        0.0000 
     34 CA         56.9655   19.5880  110.7475 C.3       4 GLC5        0.0000 
     35 CA         56.2290   17.9270  111.3410 C.3      12 GLL5        0.0000 
     36 CA         57.7020   21.2490  110.1540 C.3       8 GLP5        0.0000 
     37 O          57.0925   20.0565  111.4730 O.2       1 ALC1        0.0000 
     38 O          57.3020   18.6920  111.6390 O.2       9 ALL1        0.0000 
     39 O          56.8830   21.4210  111.3070 O.2       5 ALP1        0.0000 
     40 N          54.4040   19.7740  111.7300 N.am      2 SEC2        0.0000 
     41 N          54.9720   18.4790  111.4400 N.am     10 SEL2        0.0000 
     42 N          53.8360   21.0690  112.0200 N.am      6 SEP2        0.0000 
     43 CA         54.0875   17.0050  113.1125 C.3       4 GLC5        0.0000 
     44 CA         53.8700   17.7250  111.1470 C.3      12 GLL5        0.0000 
     45 CA         54.3050   16.2850  115.0780 C.3       8 GLP5        0.0000 
     46 CA         53.5155   19.2950  112.2395 C.3       4 GLC5        0.0000 
     47 CA         53.1610   20.8650  113.3320 C.3       8 GLP5        0.0000 
     48 CA         51.8070   16.8545  111.0635 C.3       4 GLC5        0.0000 
     49 CA         52.2090   18.9735  110.4265 C.3       4 GLC5        0.0000 
     50 CA         50.5480   20.2220  109.7060 C.3       8 GLP5        0.0000 
     51 CA         53.9965   18.4090  109.2125 C.3       4 GLC5        0.0000 
     52 CA         54.1230   19.0930  107.2780 C.3       8 GLP5        0.0000 
     53 CA         57.4400   17.6777  109.7365 C.3       4 GLC5        0.0000 
     54 CA         56.3190   16.5420  110.9290 C.3      12 GLL5        0.0000 
     55 CA         58.6060   18.1210  108.3380 C.3       8 GLP5        0.0000 
     56 CA         56.1890   16.1634  112.7472 C.3       4 GLC5        0.0000 
     57 CA         56.6940   15.7750  114.6000 C.3       8 GLP5        0.0000 
@<TRIPOS>BOND
@<TRIPOS>SUBSTRUCTURE
     1 ALC1       37 GROUP        1 X    ALC  0     ROOT ALC X 1
     2 SEC2        8 GROUP        1 X    SEC  0     **** SEC X 2
     3 ZIC7       11 GROUP        1 X    ZIC  0     **** ZIC X 5
     4 GLC5        1 GROUP        1 X    GLC  0     **** GLC X 6
     5 ALP1       39 GROUP        1 Y    ALP  0     ROOT ALP Y 8
     6 SEP2       10 GROUP        1 Y    SEP  0     **** SEP Y 9
     7 ZIP7       13 GROUP        1 Y    ZIP  0     **** ZIP Y 12
     8 GLP5        3 GROUP        1 Y    GLP  0     **** GLP Y 13
     9 ALL1       38 GROUP        1 Z    ALL  0     ROOT ALL Z 15
    10 SEL2        9 GROUP        1 Z    SEL  0     **** SEL Z 16
    11 ZIL7       12 GROUP        1 Z    ZIL  0     **** ZIL Z 19
    12 GLL5        2 GROUP        1 Z    GLL  0     **** GLL Z 20
@<TRIPOS>SET

