#    Name: 1h74_AGS_1_ligand
#    Modification time : Tue Mar 25 05:01:17 2014

@<TRIPOS>MOLECULE
1h74_AGS_1_ligand
   43    45     1     0     0
SMALL
NO_CHARGES


@<TRIPOS>ATOM
      1 PG         48.7100   17.7980  103.6020 P.3       1 AGS400      0.0000 
      2 S1G        46.8610   17.8190  102.9290 S.3       1 AGS400      0.0000 
      3 O2G        49.5910   16.6690  102.9500 O.co2     1 AGS400      0.0000 
      4 O3G        49.3950   19.1070  103.3110 O.co2     1 AGS400      0.0000 
      5 PB         49.5320   17.5710  106.3920 P.3       1 AGS400      0.0000 
      6 O1B        48.9430   18.3520  107.5440 O.co2     1 AGS400      0.0000 
      7 O2B        50.8880   17.9410  105.9050 O.co2     1 AGS400      0.0000 
      8 O3B        48.5680   17.6460  105.2320 O.3       1 AGS400      0.0000 
      9 PA         50.3140   14.6780  106.2010 P.3       1 AGS400      0.0000 
     10 O1A        49.5700   13.4690  106.7130 O.co2     1 AGS400      0.0000 
     11 O2A        50.4710   14.7130  104.7050 O.co2     1 AGS400      0.0000 
     12 O3A        49.5050   16.0070  106.7260 O.3       1 AGS400      0.0000 
     13 O5'        51.7850   14.9300  106.9280 O.3       1 AGS400      0.0000 
     14 C5'        51.8870   14.5460  108.3240 C.3       1 AGS400      0.0000 
     15 C4'        52.6750   13.2400  108.5230 C.3       1 AGS400      0.0000 
     16 O4'        54.1300   13.4930  108.5600 O.3       1 AGS400      0.0000 
     17 C3'        52.4130   12.4530  109.8090 C.3       1 AGS400      0.0000 
     18 O3'        52.4080   11.0470  109.6020 O.3       1 AGS400      0.0000 
     19 C2'        53.4960   12.9910  110.7760 C.3       1 AGS400      0.0000 
     20 O2'        53.8450   12.1270  111.8470 O.3       1 AGS400      0.0000 
     21 C1'        54.6650   13.3270  109.8860 C.3       1 AGS400      0.0000 
     22 N9         55.4310   14.5720  110.2920 N.pl3     1 AGS400      0.0000 
     23 C8         56.8060   14.5510  110.3570 C.2       1 AGS400      0.0000 
     24 N7         57.3810   15.6960  110.7280 N.2       1 AGS400      0.0000 
     25 C5         56.3190   16.5420  110.9290 C.ar      1 AGS400      0.0000 
     26 C6         56.2290   17.9270  111.3410 C.ar      1 AGS400      0.0000 
     27 N6         57.3020   18.6920  111.6390 N.pl3     1 AGS400      0.0000 
     28 N1         54.9720   18.4790  111.4400 N.ar      1 AGS400      0.0000 
     29 C2         53.8700   17.7250  111.1470 C.ar      1 AGS400      0.0000 
     30 N3         53.8330   16.4110  110.7500 N.ar      1 AGS400      0.0000 
     31 C4         55.0940   15.8690  110.6540 C.ar      1 AGS400      0.0000 
     32 H          50.8868   14.4034  108.7700 H         1 AGS400      0.0000 
     33 H          52.3890   15.3319  108.9157 H         1 AGS400      0.0000 
     34 H          52.4805   12.5689  107.6824 H         1 AGS400      0.0000 
     35 H          51.4556   12.8269  110.1937 H         1 AGS400      0.0000 
     36 H          53.1061   13.9598  111.1429 H         1 AGS400      0.0000 
     37 H          55.3486   12.4782  109.8884 H         1 AGS400      0.0000 
     38 H          57.3251   13.7138  110.1344 H         1 AGS400      0.0000 
     39 H          57.1071   19.6271  111.9351 H         1 AGS400      0.0000 
     40 H          58.1958   18.2552  111.5370 H         1 AGS400      0.0000 
     41 H          52.9059   18.2236  111.2386 H         1 AGS400      0.0000 
     42 H          51.4764   10.7567  109.8205 H         1 AGS400      0.0000 
     43 H          53.6581   11.2052  111.5072 H         1 AGS400      0.0000 
@<TRIPOS>BOND
     1    2    1 1    
     2    3    1 ar   
     3    4    1 ar   
     4    8    1 1    
     5    6    5 ar   
     6    7    5 ar   
     7    8    5 1    
     8   12    5 1    
     9   10    9 ar   
    10   11    9 ar   
    11   12    9 1    
    12   13    9 1    
    13   14   13 1    
    14   15   14 1    
    15   32   14 1    
    16   33   14 1    
    17   16   15 1    
    18   17   15 1    
    19   34   15 1    
    20   21   16 1    
    21   18   17 1    
    22   19   17 1    
    23   35   17 1    
    24   42   18 1    
    25   20   19 1    
    26   21   19 1    
    27   36   19 1    
    28   43   20 1    
    29   22   21 1    
    30   37   21 1    
    31   23   22 1    
    32   31   22 1    
    33   24   23 2    
    34   38   23 1    
    35   25   24 1    
    36   26   25 ar   
    37   31   25 ar   
    38   27   26 1    
    39   28   26 ar   
    40   39   27 1    
    41   40   27 1    
    42   29   28 ar   
    43   30   29 ar   
    44   41   29 1    
    45   31   30 ar   
@<TRIPOS>SUBSTRUCTURE
     1 AGS400      1 GROUP   
@<TRIPOS>SET

