#    Name: 3v97_SAH_4_INTS_M
#    Modification time : Tue Mar 25 00:11:33 2014

@<TRIPOS>MOLECULE
3v97_SAH_4_INTS_M
   72     0    12     0     0
SMALL
NO_CHARGES


@<TRIPOS>ATOM
      1 OD1        -8.3200  -33.1545   -4.1150 O.co2     3 ASC3        0.0000 
      2 OD1        -9.1740  -32.0560   -3.6390 O.co2    11 ASL3        0.0000 
      3 OD1        -7.4660  -34.2530   -4.5910 O.co2     7 ASP3        0.0000 
      4 O         -10.0090  -33.1595   -3.8995 O.2       1 ALC1        0.0000 
      5 O          -9.1740  -32.0560   -3.6390 O.2       9 ALL1        0.0000 
      6 O         -10.8440  -34.2630   -4.1600 O.2       5 ALP1        0.0000 
      7 O          -8.3200  -33.1545   -4.1150 O.2       1 ALC1        0.0000 
      8 O          -7.4660  -34.2530   -4.5910 O.2       5 ALP1        0.0000 
      9 O          -9.8020  -31.4690   -4.8200 O.2       1 ALC1        0.0000 
     10 O         -10.4300  -30.8820   -6.0010 O.2       5 ALP1        0.0000 
     11 CA         -7.3375  -33.0160    0.1010 C.3       4 GLC5        0.0000 
     12 CA         -8.6270  -32.6640   -1.3990 C.3      12 GLL5        0.0000 
     13 CA         -6.0480  -33.3680    1.6010 C.3       8 GLP5        0.0000 
     14 CA         -8.1400  -33.3120    1.0865 C.3       4 GLC5        0.0000 
     15 CA        -10.2320  -33.2560    0.5720 C.3      12 GLL5        0.0000 
     16 CA        -13.0325  -34.5980   -0.1440 C.3       4 GLC5        0.0000 
     17 CA        -11.9260  -33.3700    0.9510 C.3      12 GLL5        0.0000 
     18 CA        -14.1390  -35.8260   -1.2390 C.3       8 GLP5        0.0000 
     19 CA        -13.2170  -31.9780   -1.2460 C.3       4 GLC5        0.0000 
     20 CA        -12.4490  -31.9790    0.7630 C.3      12 GLL5        0.0000 
     21 CA        -13.9850  -31.9770   -3.2550 C.3       8 GLP5        0.0000 
     22 CA        -10.7295  -30.6370    0.5645 C.3       4 GLC5        0.0000 
     23 CA         -9.0100  -29.2950    0.3660 C.3       8 GLP5        0.0000 
     24 CA        -10.6575  -30.4375    2.4960 C.3       4 GLC5        0.0000 
     25 CA        -12.5300  -31.3140    2.1230 C.3      12 GLL5        0.0000 
     26 CA         -8.7850  -29.5610    2.8690 C.3       8 GLP5        0.0000 
     27 CA        -12.1280  -29.7420    3.6355 C.3       4 GLC5        0.0000 
     28 CA        -11.7260  -28.1700    5.1480 C.3       8 GLP5        0.0000 
     29 O         -12.7930  -29.2305    1.0675 O.2       1 ALC1        0.0000 
     30 O         -12.1370  -29.9210    2.0570 O.2       9 ALL1        0.0000 
     31 O         -13.4490  -28.5400    0.0780 O.2       5 ALP1        0.0000 
     32 O         -13.4240  -28.9845    1.9365 O.2       1 ALC1        0.0000 
     33 O         -14.7110  -28.0480    1.8160 O.2       5 ALP1        0.0000 
     34 O         -14.5970  -29.1340    2.4215 O.2       1 ALC1        0.0000 
     35 O         -14.4830  -30.2200    3.0270 O.2       9 ALL1        0.0000 
     36 CA        -15.3560  -32.3190   -0.6790 C.3       4 GLC5        0.0000 
     37 CA        -14.6160  -31.5160    1.1110 C.3      12 GLL5        0.0000 
     38 CA        -16.0960  -33.1220   -2.4690 C.3       8 GLP5        0.0000 
     39 N         -18.1460  -34.9085    1.3070 N.am      2 SEC2        0.0000 
     40 N         -17.6170  -33.5770    1.0480 N.am     10 SEL2        0.0000 
     41 N         -18.6750  -36.2400    1.5660 N.am      6 SEP2        0.0000 
     42 CA        -20.8815  -30.7190   -0.6725 C.3       4 GLC5        0.0000 
     43 CA        -19.2690  -32.1260   -0.3380 C.3      12 GLL5        0.0000 
     44 CA        -22.4940  -29.3120   -1.0070 C.3       8 GLP5        0.0000 
     45 CA        -19.3640  -31.4605   -2.4190 C.3       4 GLC5        0.0000 
     46 CA        -19.4590  -30.7950   -4.5000 C.3       8 GLP5        0.0000 
     47 O         -21.9080  -32.7130   -0.2045 O.2       1 ALC1        0.0000 
     48 O         -20.3300  -32.9630   -0.3060 O.2       9 ALL1        0.0000 
     49 O         -23.4860  -32.4630   -0.1030 O.2       5 ALP1        0.0000 
     50 N         -20.2795  -30.5235   -1.9560 N.am      2 SEC2        0.0000 
     51 N         -19.3100  -30.9300   -0.9630 N.am     10 SEL2        0.0000 
     52 N         -21.2490  -30.1170   -2.9490 N.am      6 SEP2        0.0000 
     53 CA        -17.1820  -28.4865   -0.8915 C.3       4 GLC5        0.0000 
     54 CA        -18.2350  -30.1120   -0.9870 C.3      12 GLL5        0.0000 
     55 CA        -16.1290  -26.8610   -0.7960 C.3       8 GLP5        0.0000 
     56 CA        -18.7645  -29.4580    0.6100 C.3       4 GLC5        0.0000 
     57 CA        -19.2940  -28.8040    2.2070 C.3       8 GLP5        0.0000 
     58 CA        -20.3645  -29.7120   -0.9970 C.3       4 GLC5        0.0000 
     59 CA        -18.1535  -29.8650   -2.5960 C.3       4 GLC5        0.0000 
     60 CA        -18.0720  -29.6180   -4.2050 C.3       8 GLP5        0.0000 
     61 N         -17.2900  -29.0265    0.3035 N.am      2 SEC2        0.0000 
     62 N         -17.0670  -30.4120   -0.3880 N.am     10 SEL2        0.0000 
     63 N         -17.5130  -27.6410    0.9950 N.am      6 SEP2        0.0000 
     64 CA         -8.8085  -30.6823   -0.7610 C.3       4 GLC5        0.0000 
     65 CA         -9.5983  -31.2450    0.0307 C.3       4 GLC5        0.0000 
     66 CA        -10.1410  -33.1340   -1.1810 C.3      12 GLL5        0.0000 
     67 CA        -16.0100  -31.7280    3.0295 C.3       4 GLC5        0.0000 
     68 CA        -13.9980  -31.4300    2.4930 C.3      12 GLL5        0.0000 
     69 CA        -17.7130  -31.9830    4.2570 C.3       8 GLP5        0.0000 
     70 CA        -18.4668  -31.6170    1.7545 C.3       4 GLC5        0.0000 
     71 CA        -18.0290  -32.5140    0.3420 C.3      12 GLL5        0.0000 
     72 CA        -19.1490  -31.2910    3.3660 C.3       8 GLP5        0.0000 
@<TRIPOS>BOND
@<TRIPOS>SUBSTRUCTURE
     1 ALC1        4 GROUP        1 X    ALC  0     ROOT ALC X 1
     2 SEC2       39 GROUP        1 X    SEC  0     **** SEC X 2
     3 ASC3        1 GROUP        1 X    ASC  0     **** ASC X 3
     4 GLC5       11 GROUP        1 X    GLC  0     **** GLC X 6
     5 ALP1        6 GROUP        1 Y    ALP  0     ROOT ALP Y 8
     6 SEP2       41 GROUP        1 Y    SEP  0     **** SEP Y 9
     7 ASP3        3 GROUP        1 Y    ASP  0     **** ASP Y 10
     8 GLP5       13 GROUP        1 Y    GLP  0     **** GLP Y 13
     9 ALL1        5 GROUP        1 Z    ALL  0     ROOT ALL Z 15
    10 SEL2       40 GROUP        1 Z    SEL  0     **** SEL Z 16
    11 ASL3        2 GROUP        1 Z    ASL  0     **** ASL Z 17
    12 GLL5       12 GROUP        1 Z    GLL  0     **** GLL Z 20
@<TRIPOS>SET

