#    Name: 3v97_SAH_4_ligand
#    Modification time : Tue Mar 25 00:11:33 2014

@<TRIPOS>MOLECULE
3v97_SAH_4_ligand
   46    48     1     0     0
SMALL
NO_CHARGES


@<TRIPOS>ATOM
      1 N          -9.1740  -32.0560   -3.6390 N.4       1 SAH802      0.0000 
      2 CA         -8.5870  -31.4750   -2.3770 C.3       1 SAH802      0.0000 
      3 CB         -8.6270  -32.6640   -1.3990 C.3       1 SAH802      0.0000 
      4 CG        -10.1410  -33.1340   -1.1810 C.3       1 SAH802      0.0000 
      5 SD        -10.2320  -33.2560    0.5720 S.3       1 SAH802      0.0000 
      6 C          -7.2110  -30.8560   -2.7120 C.2       1 SAH802      0.0000 
      7 O          -6.8130  -30.7480   -3.9210 O.co2     1 SAH802      0.0000 
      8 OXT        -6.4080  -30.4110   -1.8120 O.co2     1 SAH802      0.0000 
      9 C5'       -11.9260  -33.3700    0.9510 C.3       1 SAH802      0.0000 
     10 C4'       -12.4490  -31.9790    0.7630 C.3       1 SAH802      0.0000 
     11 O4'       -13.7520  -32.3350    0.3760 O.3       1 SAH802      0.0000 
     12 C3'       -12.5300  -31.3140    2.1230 C.3       1 SAH802      0.0000 
     13 O3'       -12.1370  -29.9210    2.0570 O.3       1 SAH802      0.0000 
     14 C2'       -13.9980  -31.4300    2.4930 C.3       1 SAH802      0.0000 
     15 O2'       -14.4830  -30.2200    3.0270 O.3       1 SAH802      0.0000 
     16 C1'       -14.6160  -31.5160    1.1110 C.3       1 SAH802      0.0000 
     17 N9        -15.9420  -32.1250    0.9810 N.pl3     1 SAH802      0.0000 
     18 C8        -16.3330  -33.3360    1.4070 C.2       1 SAH802      0.0000 
     19 N7        -17.6170  -33.5770    1.0480 N.2       1 SAH802      0.0000 
     20 C5        -18.0290  -32.5140    0.3420 C.ar      1 SAH802      0.0000 
     21 C6        -19.2690  -32.1260   -0.3380 C.ar      1 SAH802      0.0000 
     22 N6        -20.3300  -32.9630   -0.3060 N.pl3     1 SAH802      0.0000 
     23 N1        -19.3100  -30.9300   -0.9630 N.ar      1 SAH802      0.0000 
     24 C2        -18.2350  -30.1120   -0.9870 C.ar      1 SAH802      0.0000 
     25 N3        -17.0670  -30.4120   -0.3880 N.ar      1 SAH802      0.0000 
     26 C4        -16.9200  -31.5660    0.2840 C.ar      1 SAH802      0.0000 
     27 H          -9.2635  -30.7167   -2.0301 H         1 SAH802      0.0000 
     28 H          -8.2325  -32.3717   -0.4425 H         1 SAH802      0.0000 
     29 H          -8.0793  -33.4962   -1.8033 H         1 SAH802      0.0000 
     30 H         -10.2875  -34.0870   -1.5196 H         1 SAH802      0.0000 
     31 H         -10.8002  -32.3933   -1.4284 H         1 SAH802      0.0000 
     32 H         -11.9403  -33.6935    1.9480 H         1 SAH802      0.0000 
     33 H         -12.2957  -34.0566    0.2504 H         1 SAH802      0.0000 
     34 H         -11.9245  -31.4712    0.0842 H         1 SAH802      0.0000 
     35 H         -11.9621  -31.8758    2.8153 H         1 SAH802      0.0000 
     36 H         -14.1870  -32.2773    3.0096 H         1 SAH802      0.0000 
     37 H         -14.6143  -30.5219    0.6720 H         1 SAH802      0.0000 
     38 H         -15.7726  -33.9646    1.9090 H         1 SAH802      0.0000 
     39 H         -21.1533  -32.6481   -0.7782 H         1 SAH802      0.0000 
     40 H         -20.1974  -33.8228    0.1871 H         1 SAH802      0.0000 
     41 H         -18.3173  -29.1861   -1.5049 H         1 SAH802      0.0000 
     42 H          -9.3479  -31.3510   -4.3265 H         1 SAH802      0.0000 
     43 H          -8.5636  -32.7288   -4.0570 H         1 SAH802      0.0000 
     44 H         -10.0440  -32.5175   -3.4657 H         1 SAH802      0.0000 
     45 H         -12.7063  -29.5255    1.3363 H         1 SAH802      0.0000 
     46 H         -14.4441  -29.5688    2.2691 H         1 SAH802      0.0000 
@<TRIPOS>BOND
     1    2    1 1    
     2   42    1 1    
     3   43    1 1    
     4   44    1 1    
     5    3    2 1    
     6    6    2 1    
     7   27    2 1    
     8    4    3 1    
     9   28    3 1    
    10   29    3 1    
    11    5    4 1    
    12   30    4 1    
    13   31    4 1    
    14    9    5 1    
    15    7    6 ar   
    16    8    6 ar   
    17   10    9 1    
    18   32    9 1    
    19   33    9 1    
    20   11   10 1    
    21   12   10 1    
    22   34   10 1    
    23   16   11 1    
    24   13   12 1    
    25   14   12 1    
    26   35   12 1    
    27   45   13 1    
    28   15   14 1    
    29   16   14 1    
    30   36   14 1    
    31   46   15 1    
    32   17   16 1    
    33   37   16 1    
    34   18   17 1    
    35   26   17 1    
    36   19   18 2    
    37   38   18 1    
    38   20   19 1    
    39   21   20 ar   
    40   26   20 ar   
    41   22   21 1    
    42   23   21 ar   
    43   39   22 1    
    44   40   22 1    
    45   24   23 ar   
    46   25   24 ar   
    47   41   24 1    
    48   26   25 ar   
@<TRIPOS>SUBSTRUCTURE
     1 SAH802      1 GROUP   
@<TRIPOS>SET

