#    Name: 3lsh_FAD_4_INTS_M
#    Modification time : Mon Mar 24 22:12:47 2014

@<TRIPOS>MOLECULE
3lsh_FAD_4_INTS_M
  125     0     9     0     0
SMALL
NO_CHARGES


@<TRIPOS>ATOM
      1 N          34.4695   30.9620   74.8395 N.am      2 SEC2        0.0000 
      2 N          35.8170   30.7960   74.3670 N.am      8 SEL2        0.0000 
      3 N          33.1220   31.1280   75.3120 N.am      5 SEP2        0.0000 
      4 CA         36.1175   28.7385   72.0260 C.3       3 GLC5        0.0000 
      5 CA         36.6240   27.2380   73.5020 C.3       9 GLL5        0.0000 
      6 CA         35.6110   30.2390   70.5500 C.3       6 GLP5        0.0000 
      7 CA         38.5120   27.0740   74.6965 C.3       3 GLC5        0.0000 
      8 CA         40.4000   26.9100   75.8910 C.3       6 GLP5        0.0000 
      9 CA         36.2105   25.4935   71.1395 C.3       3 GLC5        0.0000 
     10 CA         35.6730   26.1920   72.9660 C.3       9 GLL5        0.0000 
     11 CA         36.7480   24.7950   69.3130 C.3       6 GLP5        0.0000 
     12 CA         33.3540   27.8165   73.4585 C.3       3 GLC5        0.0000 
     13 CA         34.1950   26.1490   73.2610 C.3       9 GLL5        0.0000 
     14 CA         32.5130   29.4840   73.6560 C.3       6 GLP5        0.0000 
     15 O          33.1095   25.9400   71.3665 O.2       1 ALC1        0.0000 
     16 O          33.2320   26.7580   72.4620 O.2       7 ALL1        0.0000 
     17 O          32.9870   25.1220   70.2710 O.2       4 ALP1        0.0000 
     18 CA         32.2470   24.5870   74.8680 C.3       3 GLC5        0.0000 
     19 CA         34.0080   24.7580   73.7650 C.3       9 GLL5        0.0000 
     20 CA         30.4860   24.4160   75.9710 C.3       6 GLP5        0.0000 
     21 O          32.2680   23.8470   72.4635 O.2       1 ALC1        0.0000 
     22 O          32.7950   24.1420   73.8240 O.2       7 ALL1        0.0000 
     23 O          31.7410   23.5520   71.1030 O.2       4 ALP1        0.0000 
     24 CA         35.9635   24.3940   71.2590 C.3       3 GLC5        0.0000 
     25 CA         35.1790   23.9930   73.2050 C.3       9 GLL5        0.0000 
     26 CA         37.3360   24.2075   73.1620 C.3       3 GLC5        0.0000 
     27 CA         39.4930   24.4220   73.1190 C.3       6 GLP5        0.0000 
     28 CA         37.7425   20.0845   71.2440 C.3       3 GLC5        0.0000 
     29 CA         36.6140   19.4610   72.8660 C.3       9 GLL5        0.0000 
     30 CA         38.8710   20.7080   69.6220 C.3       6 GLP5        0.0000 
     31 CA         34.5150   19.5430   72.8140 C.3       3 GLC5        0.0000 
     32 CA         32.4160   19.6250   72.7620 C.3       6 GLP5        0.0000 
     33 CA         37.3285   18.2795   71.1330 C.3       3 GLC5        0.0000 
     34 CA         38.0430   17.0980   69.4000 C.3       6 GLP5        0.0000 
     35 O          37.7485   17.1605   72.8480 O.2       1 ALC1        0.0000 
     36 O          37.1900   18.4820   73.5330 O.2       7 ALL1        0.0000 
     37 O          38.3070   15.8390   72.1630 O.2       4 ALP1        0.0000 
     38 N          36.1160   17.8160   71.1090 N.am      2 SEC2        0.0000 
     39 N          36.1870   19.2560   71.5860 N.am      8 SEL2        0.0000 
     40 N          36.0450   16.3760   70.6320 N.am      5 SEP2        0.0000 
     41 CA         37.2095   20.4645   70.2400 C.3       3 GLC5        0.0000 
     42 CA         35.5480   20.2210   70.8580 C.3       9 GLL5        0.0000 
     43 CA         34.1675   21.1650   69.8125 C.3       3 GLC5        0.0000 
     44 CA         32.7870   22.1090   68.7670 C.3       6 GLP5        0.0000 
     45 CA         33.9820   19.9230   71.8100 C.3       3 GLC5        0.0000 
     46 CA         36.3435   19.0265   69.4730 C.3       3 GLC5        0.0000 
     47 CA         37.1390   17.8320   68.0880 C.3       6 GLP5        0.0000 
     48 N          33.7900   21.1940   71.1235 N.am      2 SEC2        0.0000 
     49 N          35.3160   21.4380   71.4280 N.am      8 SEL2        0.0000 
     50 N          32.2640   20.9500   70.8190 N.am      5 SEP2        0.0000 
     51 CA         37.3110   21.1850   71.1465 C.3       3 GLC5        0.0000 
     52 CA         35.7510   21.6620   72.6710 C.3       9 GLL5        0.0000 
     53 N          40.9260   38.6470   76.9805 N.am      2 SEC2        0.0000 
     54 N          39.5950   39.2730   77.6150 N.am      8 SEL2        0.0000 
     55 N          42.2570   38.0210   76.3460 N.am      5 SEP2        0.0000 
     56 N          39.6425   38.1195   76.9240 N.am      2 SEC2        0.0000 
     57 N          39.6900   36.9660   76.2330 N.am      5 SEP2        0.0000 
     58 O          38.2435   41.4000   77.7105 O.2       1 ALC1        0.0000 
     59 O          37.7660   40.2900   78.3330 O.2       7 ALL1        0.0000 
     60 O          38.7210   42.5100   77.0880 O.2       4 ALP1        0.0000 
     61 N          35.9090   42.2825   78.3290 N.am      2 SEC2        0.0000 
     62 N          35.8240   41.2360   79.3210 N.am      8 SEL2        0.0000 
     63 N          35.9940   43.3290   77.3370 N.am      5 SEP2        0.0000 
     64 N          33.7035   39.4960   79.4925 N.am      2 SEC2        0.0000 
     65 N          35.0030   38.9910   80.3080 N.am      8 SEL2        0.0000 
     66 N          32.4040   40.0010   78.6770 N.am      5 SEP2        0.0000 
     67 CA         29.4195   36.5495   82.3725 C.3       3 GLC5        0.0000 
     68 CA         31.2540   36.4340   82.0790 C.3       9 GLL5        0.0000 
     69 CA         27.5850   36.6650   82.6660 C.3       6 GLP5        0.0000 
     70 CA         30.4950   34.9590   80.6475 C.3       3 GLC5        0.0000 
     71 CA         29.7360   33.4840   79.2160 C.3       6 GLP5        0.0000 
     72 CA         31.8345   37.8305   83.4120 C.3       3 GLC5        0.0000 
     73 CA         32.4150   39.2270   84.7450 C.3       6 GLP5        0.0000 
     74 CA         32.5480   36.4745   79.4910 C.3       3 GLC5        0.0000 
     75 CA         33.2210   35.2370   80.9480 C.3       9 GLL5        0.0000 
     76 CA         31.8750   37.7120   78.0340 C.3       6 GLP5        0.0000 
     77 CA         31.9790   32.0640   81.7635 C.3       3 GLC5        0.0000 
     78 CA         32.5770   33.8610   81.0160 C.3       9 GLL5        0.0000 
     79 CA         31.3810   30.2670   82.5110 C.3       6 GLP5        0.0000 
     80 CA         34.0040   32.6115   80.2335 C.3       3 GLC5        0.0000 
     81 CA         35.4310   31.3620   79.4510 C.3       6 GLP5        0.0000 
     82 CA         34.9765   33.3545   79.9300 C.3       3 GLC5        0.0000 
     83 CA         34.5220   35.3470   80.4090 C.3       9 GLL5        0.0000 
     84 CA         36.2665   33.4090   79.2845 C.3       3 GLC5        0.0000 
     85 CA         37.1020   35.4560   79.1180 C.3       9 GLL5        0.0000 
     86 CA         38.5035   36.1050   80.7280 C.3       3 GLC5        0.0000 
     87 CA         39.9050   36.7540   82.3380 C.3       6 GLP5        0.0000 
     88 CA         35.5260   33.6960   77.4670 C.3       3 GLC5        0.0000 
     89 CA         37.0920   35.1600   77.6400 C.3       9 GLL5        0.0000 
     90 CA         33.9600   32.2320   77.2940 C.3       6 GLP5        0.0000 
     91 CA         36.3995   37.0505   76.7460 C.3       3 GLC5        0.0000 
     92 CA         35.7070   38.9410   75.8520 C.3       6 GLP5        0.0000 
     93 CA         36.7155   32.6830   78.3430 C.3       3 GLC5        0.0000 
     94 CA         38.0000   34.0040   77.2350 C.3       9 GLL5        0.0000 
     95 O          39.5070   35.6490   76.8830 O.2       1 ALC1        0.0000 
     96 O          39.3240   34.3320   77.5330 O.2       7 ALL1        0.0000 
     97 O          39.6900   36.9660   76.2330 O.2       4 ALP1        0.0000 
     98 CA         37.2785   34.0620   73.7075 C.3       3 GLC5        0.0000 
     99 CA         37.8800   33.7170   75.7460 C.3       9 GLL5        0.0000 
    100 CA         36.6770   34.4070   71.6690 C.3       6 GLP5        0.0000 
    101 CA         35.9200   32.9745   76.5200 C.3       3 GLC5        0.0000 
    102 CA         38.7925   35.2640   74.7955 C.3       3 GLC5        0.0000 
    103 CA         39.7050   36.8110   73.8450 C.3       6 GLP5        0.0000 
    104 CA         37.5710   32.7535   73.4960 C.3       3 GLC5        0.0000 
    105 CA         38.8300   32.5710   75.3210 C.3       9 GLL5        0.0000 
    106 CA         36.3120   32.9360   71.6710 C.3       6 GLP5        0.0000 
    107 N          38.7425   31.6590   70.8625 N.am      2 SEC2        0.0000 
    108 N          38.3100   30.7450   72.0910 N.am      8 SEL2        0.0000 
    109 N          39.1750   32.5730   69.6340 N.am      5 SEP2        0.0000 
    110 CA         37.8208   25.5685   73.1765 C.3       3 GLC5        0.0000 
    111 CA         33.5678   22.6352   73.5560 C.3       3 GLC5        0.0000 
    112 CA         32.5420   20.8950   73.6270 C.3       6 GLP5        0.0000 
    113 CA         34.3055   21.0370   73.3380 C.3       3 GLC5        0.0000 
    114 CA         37.8405   22.0385   73.1620 C.3       3 GLC5        0.0000 
    115 CA         39.6120   22.8980   73.2750 C.3       6 GLP5        0.0000 
    116 CA         33.1728   39.7300   80.7092 C.3       3 GLC5        0.0000 
    117 CA         34.4810   37.7630   80.6290 C.3       9 GLL5        0.0000 
    118 CA         32.4830   41.7540   80.4330 C.3       6 GLP5        0.0000 
    119 CA         31.9893   37.2204   79.9006 C.3       3 GLC5        0.0000 
    120 CA         33.2440   37.6490   81.3420 C.3       9 GLL5        0.0000 
    121 CA         31.3175   34.0165   80.0990 C.3       3 GLC5        0.0000 
    122 CA         33.9030   36.8660   78.8190 C.3       3 GLC5        0.0000 
    123 CA         33.1520   37.4720   77.2370 C.3       6 GLP5        0.0000 
    124 CA         34.0987   33.7695   82.2873 C.3       3 GLC5        0.0000 
    125 CA         34.4870   32.5910   83.8790 C.3       6 GLP5        0.0000 
@<TRIPOS>BOND
@<TRIPOS>SUBSTRUCTURE
     1 ALC1       15 GROUP        1 X    ALC  0     ROOT ALC X 1
     2 SEC2        1 GROUP        1 X    SEC  0     **** SEC X 2
     3 GLC5        4 GROUP        1 X    GLC  0     **** GLC X 6
     4 ALP1       17 GROUP        1 Y    ALP  0     ROOT ALP Y 8
     5 SEP2        3 GROUP        1 Y    SEP  0     **** SEP Y 9
     6 GLP5        6 GROUP        1 Y    GLP  0     **** GLP Y 13
     7 ALL1       16 GROUP        1 Z    ALL  0     ROOT ALL Z 15
     8 SEL2        2 GROUP        1 Z    SEL  0     **** SEL Z 16
     9 GLL5        5 GROUP        1 Z    GLL  0     **** GLL Z 20
@<TRIPOS>SET

