#    Name: 3lsh_FAD_4_ligand
#    Modification time : Mon Mar 24 22:12:47 2014

@<TRIPOS>MOLECULE
3lsh_FAD_4_ligand
   84    89     1     0     0
SMALL
NO_CHARGES


@<TRIPOS>ATOM
      1 PA         36.6020   29.5250   74.6510 P.3       1 FAD801      0.0000 
      2 O1A        36.5860   28.8510   76.0060 O.co2     1 FAD801      0.0000 
      3 O2A        35.8170   30.7960   74.3670 O.co2     1 FAD801      0.0000 
      4 O5B        36.0120   28.4970   73.5590 O.3       1 FAD801      0.0000 
      5 C5B        36.6240   27.2380   73.5020 C.3       1 FAD801      0.0000 
      6 C4B        35.6730   26.1920   72.9660 C.3       1 FAD801      0.0000 
      7 O4B        36.1220   24.8960   72.6430 O.3       1 FAD801      0.0000 
      8 C3B        34.1950   26.1490   73.2610 C.3       1 FAD801      0.0000 
      9 O3B        33.2320   26.7580   72.4620 O.3       1 FAD801      0.0000 
     10 C2B        34.0080   24.7580   73.7650 C.3       1 FAD801      0.0000 
     11 O2B        32.7950   24.1420   73.8240 O.3       1 FAD801      0.0000 
     12 C1B        35.1790   23.9930   73.2050 C.3       1 FAD801      0.0000 
     13 N9A        35.6550   22.6930   73.5270 N.pl3     1 FAD801      0.0000 
     14 C8A        36.2580   22.4840   74.6860 C.2       1 FAD801      0.0000 
     15 N7A        36.6830   21.2230   74.6650 N.2       1 FAD801      0.0000 
     16 C5A        36.3870   20.6960   73.4270 C.ar      1 FAD801      0.0000 
     17 C6A        36.6140   19.4610   72.8660 C.ar      1 FAD801      0.0000 
     18 N6A        37.1900   18.4820   73.5330 N.pl3     1 FAD801      0.0000 
     19 N1A        36.1870   19.2560   71.5860 N.ar      1 FAD801      0.0000 
     20 C2A        35.5480   20.2210   70.8580 C.ar      1 FAD801      0.0000 
     21 N3A        35.3160   21.4380   71.4280 N.ar      1 FAD801      0.0000 
     22 C4A        35.7510   21.6620   72.6710 C.ar      1 FAD801      0.0000 
     23 N1         38.0920   38.0110   78.6740 N.2       1 FAD801      0.0000 
     24 C2         38.4460   39.1650   78.0640 C.2       1 FAD801      0.0000 
     25 O2         39.5950   39.2730   77.6150 O.2       1 FAD801      0.0000 
     26 N3         37.7660   40.2900   78.3330 N.am      1 FAD801      0.0000 
     27 C4         36.7760   40.4100   79.3030 C.2       1 FAD801      0.0000 
     28 O4         35.8240   41.2360   79.3210 O.2       1 FAD801      0.0000 
     29 C4X        36.2170   39.0980   79.7450 C.2       1 FAD801      0.0000 
     30 N5         35.0030   38.9910   80.3080 N.2       1 FAD801      0.0000 
     31 C5X        34.4810   37.7630   80.6290 C.ar      1 FAD801      0.0000 
     32 C6         33.2440   37.6490   81.3420 C.ar      1 FAD801      0.0000 
     33 C7         32.6620   36.3980   81.5690 C.ar      1 FAD801      0.0000 
     34 C7M        31.2540   36.4340   82.0790 C.3       1 FAD801      0.0000 
     35 C8         33.2210   35.2370   80.9480 C.ar      1 FAD801      0.0000 
     36 C8M        32.5770   33.8610   81.0160 C.3       1 FAD801      0.0000 
     37 C9         34.5220   35.3470   80.4090 C.ar      1 FAD801      0.0000 
     38 C9A        35.0910   36.5830   80.1570 C.ar      1 FAD801      0.0000 
     39 N10        36.3380   36.6860   79.5090 N.pl3     1 FAD801      0.0000 
     40 C10        36.8600   37.9380   79.2360 C.2       1 FAD801      0.0000 
     41 C1'        37.1020   35.4560   79.1180 C.3       1 FAD801      0.0000 
     42 C2'        37.0920   35.1600   77.6400 C.3       1 FAD801      0.0000 
     43 O2'        35.7700   34.8440   77.2920 O.3       1 FAD801      0.0000 
     44 C3'        38.0000   34.0040   77.2350 C.3       1 FAD801      0.0000 
     45 O3'        39.3240   34.3320   77.5330 O.3       1 FAD801      0.0000 
     46 C4'        37.8800   33.7170   75.7460 C.3       1 FAD801      0.0000 
     47 O4'        36.5470   33.3780   75.4000 O.3       1 FAD801      0.0000 
     48 C5'        38.8300   32.5710   75.3210 C.3       1 FAD801      0.0000 
     49 O5'        38.5200   32.2260   73.9740 O.3       1 FAD801      0.0000 
     50 P          38.9530   30.7670   73.4140 P.3       1 FAD801      0.0000 
     51 O1P        38.3100   30.7450   72.0910 O.co2     1 FAD801      0.0000 
     52 O2P        40.3950   30.4270   73.7340 O.co2     1 FAD801      0.0000 
     53 O3P        38.1620   29.7220   74.4140 O.3       1 FAD801      0.0000 
     54 H          36.9667   26.8981   74.4984 H         1 FAD801      0.0000 
     55 H          37.5187   27.2410   72.8498 H         1 FAD801      0.0000 
     56 H          35.5618   26.6383   71.7463 H         1 FAD801      0.0000 
     57 H          34.1889   26.7452   74.3278 H         1 FAD801      0.0000 
     58 H          34.3944   24.8887   74.9113 H         1 FAD801      0.0000 
     59 H          34.6008   23.7073   72.0442 H         1 FAD801      0.0000 
     60 H          36.3694   23.1143   75.4035 H         1 FAD801      0.0000 
     61 H          37.0814   18.5032   74.5269 H         1 FAD801      0.0000 
     62 H          37.6834   17.8068   72.9847 H         1 FAD801      0.0000 
     63 H          35.2463   20.0296   69.8913 H         1 FAD801      0.0000 
     64 H          37.9877   41.1731   77.7691 H         1 FAD801      0.0000 
     65 H          32.7915   38.5035   81.6840 H         1 FAD801      0.0000 
     66 H          35.0486   34.4810   80.2033 H         1 FAD801      0.0000 
     67 H          36.6886   34.5818   79.6621 H         1 FAD801      0.0000 
     68 H          38.1538   35.5571   79.4568 H         1 FAD801      0.0000 
     69 H          37.4181   36.0511   77.1105 H         1 FAD801      0.0000 
     70 H          37.6770   33.1222   77.7730 H         1 FAD801      0.0000 
     71 H          38.2037   34.6097   75.2050 H         1 FAD801      0.0000 
     72 H          38.6691   31.7443   76.0076 H         1 FAD801      0.0000 
     73 H          39.8479   32.9352   75.4313 H         1 FAD801      0.0000 
     74 H          31.1876   36.9165   82.9524 H         1 FAD801      0.0000 
     75 H          30.6395   36.8975   81.4406 H         1 FAD801      0.0000 
     76 H          30.8877   35.5148   82.2234 H         1 FAD801      0.0000 
     77 H          33.1136   33.1751   80.5244 H         1 FAD801      0.0000 
     78 H          32.4846   33.5404   81.9587 H         1 FAD801      0.0000 
     79 H          31.6610   33.8594   80.6147 H         1 FAD801      0.0000 
     80 H          33.1514   26.1678   71.6588 H         1 FAD801      0.0000 
     81 H          32.5281   24.0044   72.8702 H         1 FAD801      0.0000 
     82 H          35.8491   34.2260   76.5098 H         1 FAD801      0.0000 
     83 H          39.4963   35.1851   77.0405 H         1 FAD801      0.0000 
     84 H          36.5887   32.4194   75.1184 H         1 FAD801      0.0000 
@<TRIPOS>BOND
     1    2    1 ar   
     2    3    1 ar   
     3    4    1 1    
     4   53    1 1    
     5    5    4 1    
     6    6    5 1    
     7   54    5 1    
     8   55    5 1    
     9    7    6 1    
    10    8    6 1    
    11   56    6 1    
    12   12    7 1    
    13    9    8 1    
    14   10    8 1    
    15   57    8 1    
    16   80    9 1    
    17   11   10 1    
    18   12   10 1    
    19   58   10 1    
    20   81   11 1    
    21   13   12 1    
    22   59   12 1    
    23   14   13 1    
    24   22   13 1    
    25   15   14 2    
    26   60   14 1    
    27   16   15 1    
    28   17   16 ar   
    29   22   16 ar   
    30   18   17 1    
    31   19   17 ar   
    32   61   18 1    
    33   62   18 1    
    34   20   19 ar   
    35   21   20 ar   
    36   63   20 1    
    37   22   21 ar   
    38   24   23 1    
    39   40   23 2    
    40   25   24 2    
    41   26   24 am   
    42   27   26 am   
    43   64   26 1    
    44   28   27 2    
    45   29   27 1    
    46   30   29 2    
    47   40   29 1    
    48   31   30 1    
    49   32   31 ar   
    50   38   31 ar   
    51   33   32 ar   
    52   65   32 1    
    53   34   33 1    
    54   35   33 ar   
    55   74   34 1    
    56   75   34 1    
    57   76   34 1    
    58   36   35 1    
    59   37   35 ar   
    60   77   36 1    
    61   78   36 1    
    62   79   36 1    
    63   38   37 ar   
    64   66   37 1    
    65   39   38 1    
    66   40   39 1    
    67   41   39 1    
    68   42   41 1    
    69   67   41 1    
    70   68   41 1    
    71   43   42 1    
    72   44   42 1    
    73   69   42 1    
    74   82   43 1    
    75   45   44 1    
    76   46   44 1    
    77   70   44 1    
    78   83   45 1    
    79   47   46 1    
    80   48   46 1    
    81   71   46 1    
    82   84   47 1    
    83   49   48 1    
    84   72   48 1    
    85   73   48 1    
    86   50   49 1    
    87   51   50 ar   
    88   52   50 ar   
    89   53   50 1    
@<TRIPOS>SUBSTRUCTURE
     1 FAD801      1 GROUP   
@<TRIPOS>SET

