#    Name: 1ISJ_1_CAVITY_N1_ALL.mol2
#    Modification time : Tue Mar 11 08:58:54 2014

@<TRIPOS>MOLECULE
1ISJ_1_CAVITY_N1_ALL.mol2
  136     0     6     0     0
SMALL
NO_CHARGES


@<TRIPOS>ATOM
      1 DU          7.8514   61.0040  143.2847 H         6 CUB7        0.0000 
      2 DU          8.9638   60.7479  142.3116 H         6 CUB7        0.0000 
      3 NZ         10.0763   60.4918  141.3386 N.2       3 LYS4        0.0000 
      4 CA          6.9978   61.5320  142.1699 C.3       5 GLY6        0.0000 
      5 CA          8.1103   61.2759  141.1969 C.3       5 GLY6        0.0000 
      6 N           9.2228   61.0198  140.2238 N.2       2 ALA2        0.0000 
      7 N          10.3352   60.7637  139.2507 N.2       2 ALA2        0.0000 
      8 O           5.0319   62.3161  142.0282 O.2       2 ALA2        0.0000 
      9 CA          6.1443   62.0600  141.0552 C.3       5 GLY6        0.0000 
     10 CA          7.2568   61.8039  140.0821 C.3       5 GLY6        0.0000 
     11 N           8.3692   61.5477  139.1090 N.2       2 ALA2        0.0000 
     12 CZ         13.7643   59.4884  148.1313 C.ar      4 PHE5        0.0000 
     13 NZ         10.3502   61.6004  143.6722 N.2       3 LYS4        0.0000 
     14 DU          8.3842   62.3845  143.5305 H         6 CUB7        0.0000 
     15 CA          9.4967   62.1283  142.5575 C.3       5 GLY6        0.0000 
     16 CA         10.6091   61.8722  141.5844 C.3       5 GLY6        0.0000 
     17 DU          6.4182   63.1686  143.3888 H         6 CUB7        0.0000 
     18 DU          7.5307   62.9124  142.4158 H         6 CUB7        0.0000 
     19 CA          8.6431   62.6563  141.4427 C.3       5 GLY6        0.0000 
     20 CA          9.7556   62.4002  140.4696 C.3       5 GLY6        0.0000 
     21 CA          5.5647   63.6965  142.2741 C.3       5 GLY6        0.0000 
     22 OG          6.6772   63.4404  141.3010 O.2       1 SER1        0.0000 
     23 OG          7.7896   63.1843  140.3279 O.2       1 SER1        0.0000 
     24 CA          8.9021   62.9282  139.3549 C.3       5 GLY6        0.0000 
     25 CZ         15.1507   60.3409  149.4919 C.ar      4 PHE5        0.0000 
     26 CZ         13.1847   61.1250  149.3502 C.ar      4 PHE5        0.0000 
     27 CZ         12.3312   61.6530  148.2355 C.ar      4 PHE5        0.0000 
     28 DU         11.4777   62.1810  147.1207 H         6 CUB7        0.0000 
     29 CZ         12.5901   61.9248  146.1476 C.ar      4 PHE5        0.0000 
     30 DU         11.7366   62.4528  145.0329 H         6 CUB7        0.0000 
     31 NZ         12.8490   62.1967  144.0598 N.2       3 LYS4        0.0000 
     32 CA         10.8831   62.9808  143.9181 C.3       5 GLY6        0.0000 
     33 CA         11.9955   62.7247  142.9450 C.3       5 GLY6        0.0000 
     34 NZ         10.3970   58.5834  142.2075 N.2       3 LYS4        0.0000 
     35 CA          9.5434   59.1113  141.0927 C.3       5 GLY6        0.0000 
     36 CA          6.4650   60.1515  141.9241 C.3       5 GLY6        0.0000 
     37 CA          7.5775   59.8954  140.9510 C.3       5 GLY6        0.0000 
     38 N           8.6899   59.6393  139.9780 N.2       2 ALA2        0.0000 
     39 DU          8.9171   63.7649  143.7764 H         6 CUB7        0.0000 
     40 CA         10.0295   63.5088  142.8033 C.3       5 GLY6        0.0000 
     41 DU          6.9511   64.5490  143.6347 H         6 CUB7        0.0000 
     42 DU          8.0635   64.2929  142.6616 H         6 CUB7        0.0000 
     43 CA          9.1760   64.0368  141.6885 C.3       5 GLY6        0.0000 
     44 NZ          6.0975   65.0770  142.5199 N.2       3 LYS4        0.0000 
     45 OG          7.2100   64.8209  141.5468 O.2       1 SER1        0.0000 
     46 OG          8.3225   64.5648  140.5738 O.2       1 SER1        0.0000 
     47 NZ         14.5711   61.9775  150.7108 N.2       3 LYS4        0.0000 
     48 CA         15.6836   61.7213  149.7378 C.3       5 GLY6        0.0000 
     49 CZ         12.6051   62.7616  150.5691 C.ar      4 PHE5        0.0000 
     50 NZ         13.7176   62.5054  149.5961 N.2       3 LYS4        0.0000 
     51 CZ         14.8300   62.2493  148.6230 C.ar      4 PHE5        0.0000 
     52 CZ         11.7516   63.2895  149.4544 C.ar      4 PHE5        0.0000 
     53 DU         12.8640   63.0334  148.4813 H         6 CUB7        0.0000 
     54 CZ         13.9765   62.7773  147.5082 C.ar      4 PHE5        0.0000 
     55 DU         10.8981   63.8175  148.3396 H         6 CUB7        0.0000 
     56 DU         12.0105   63.5614  147.3665 H         6 CUB7        0.0000 
     57 CZ         13.1230   63.3053  146.3935 C.ar      4 PHE5        0.0000 
     58 CZ         14.2354   63.0492  145.4204 C.ar      4 PHE5        0.0000 
     59 DU         10.0445   64.3455  147.2248 H         6 CUB7        0.0000 
     60 CA         12.2694   63.8333  145.2787 C.3       5 GLY6        0.0000 
     61 CA         13.3819   63.5772  144.3056 C.3       5 GLY6        0.0000 
     62 DU         10.3034   64.6174  145.1370 H         6 CUB7        0.0000 
     63 O          11.4159   64.3613  144.1639 O.2       2 ALA2        0.0000 
     64 DU          9.4499   65.1454  144.0222 H         6 CUB7        0.0000 
     65 CA         10.5624   64.8892  143.0492 C.3       5 GLY6        0.0000 
     66 DU          7.4839   65.9295  143.8805 H         6 CUB7        0.0000 
     67 N           8.5964   65.6733  142.9074 N.2       2 ALA2        0.0000 
     68 CA          9.7088   65.4172  141.9344 C.3       5 GLY6        0.0000 
     69 NZ          6.6304   66.4574  142.7657 N.2       3 LYS4        0.0000 
     70 N           7.7428   66.2013  141.7927 N.2       2 ALA2        0.0000 
     71 N          15.1040   63.3579  150.9567 N.2       2 ALA2        0.0000 
     72 CA         16.2164   63.1018  149.9836 C.3       5 GLY6        0.0000 
     73 CZ         14.2504   63.8859  149.8419 C.ar      4 PHE5        0.0000 
     74 CZ         15.3629   63.6298  148.8688 C.ar      4 PHE5        0.0000 
     75 CZ         16.4753   63.3737  147.8958 C.ar      4 PHE5        0.0000 
     76 CZ         12.2844   64.6700  149.7002 C.ar      4 PHE5        0.0000 
     77 CZ         13.3969   64.4139  148.7271 C.ar      4 PHE5        0.0000 
     78 DU         14.5093   64.1578  147.7541 H         6 CUB7        0.0000 
     79 CZ         15.6218   63.9016  146.7810 C.ar      4 PHE5        0.0000 
     80 O          10.3184   65.4541  149.5585 O.2       2 ALA2        0.0000 
     81 CZ         11.4309   65.1980  148.5854 C.ar      4 PHE5        0.0000 
     82 DU         12.5434   64.9419  147.6124 H         6 CUB7        0.0000 
     83 DU         13.6558   64.6857  146.6393 H         6 CUB7        0.0000 
     84 CA         14.7683   64.4296  145.6662 C.3       5 GLY6        0.0000 
     85 O           9.4649   65.9821  148.4437 O.2       2 ALA2        0.0000 
     86 O          10.5774   65.7260  147.4707 O.2       2 ALA2        0.0000 
     87 DU         11.6898   65.4698  146.4976 H         6 CUB7        0.0000 
     88 O          12.8023   65.2137  145.5245 O.2       2 ALA2        0.0000 
     89 O           9.7238   66.2539  146.3559 O.2       2 ALA2        0.0000 
     90 DU         10.8363   65.9978  145.3828 H         6 CUB7        0.0000 
     91 O          11.9487   65.7417  144.4098 O.2       2 ALA2        0.0000 
     92 CA          8.8703   66.7819  145.2411 C.3       5 GLY6        0.0000 
     93 N           9.9828   66.5258  144.2681 N.2       2 ALA2        0.0000 
     94 O          11.0952   66.2697  143.2950 O.2       2 ALA2        0.0000 
     95 N           8.0168   67.3099  144.1263 N.2       2 ALA2        0.0000 
     96 N           9.1292   67.0538  143.1533 N.2       2 ALA2        0.0000 
     97 N          17.6028   63.9543  151.3442 N.2       2 ALA2        0.0000 
     98 CZ         15.6368   64.7384  151.2025 C.ar      4 PHE5        0.0000 
     99 N          16.7493   64.4822  150.2295 N.2       2 ALA2        0.0000 
    100 NZ         17.8617   64.2261  149.2564 N.2       3 LYS4        0.0000 
    101 CZ         15.8957   65.0102  149.1147 C.ar      4 PHE5        0.0000 
    102 DU         17.0082   64.7541  148.1416 H         6 CUB7        0.0000 
    103 CZ         13.9297   65.7943  148.9730 C.ar      4 PHE5        0.0000 
    104 CZ         15.0422   65.5382  147.9999 C.ar      4 PHE5        0.0000 
    105 CZ         16.1546   65.2821  147.0268 C.ar      4 PHE5        0.0000 
    106 CZ         17.2671   65.0260  146.0538 C.ar      4 PHE5        0.0000 
    107 O          11.9637   66.5784  148.8313 O.2       2 ALA2        0.0000 
    108 CZ         13.0762   66.3223  147.8582 C.ar      4 PHE5        0.0000 
    109 CZ         14.1887   66.0662  146.8851 C.ar      4 PHE5        0.0000 
    110 O          12.2227   66.8503  146.7434 O.2       2 ALA2        0.0000 
    111 CZ         13.3351   66.5942  145.7704 C.ar      4 PHE5        0.0000 
    112 O          10.2567   67.6344  146.6017 O.2       2 ALA2        0.0000 
    113 O          11.3691   67.3783  145.6287 O.2       2 ALA2        0.0000 
    114 O          12.4816   67.1222  144.6556 O.2       2 ALA2        0.0000 
    115 CA          9.4031   68.1624  145.4870 C.3       5 GLY6        0.0000 
    116 O          10.5156   67.9063  144.5139 O.2       2 ALA2        0.0000 
    117 NZ         18.1356   65.3347  151.5901 N.2       3 LYS4        0.0000 
    118 CZ         17.2821   65.8627  150.4753 C.ar      4 PHE5        0.0000 
    119 NZ         18.3946   65.6066  149.5022 N.2       3 LYS4        0.0000 
    120 CZ         16.4286   66.3907  149.3605 C.ar      4 PHE5        0.0000 
    121 CA         17.5410   66.1346  148.3875 C.3       5 GLY6        0.0000 
    122 CZ         15.5750   66.9187  148.2457 C.ar      4 PHE5        0.0000 
    123 CZ         16.6875   66.6625  147.2727 C.ar      4 PHE5        0.0000 
    124 CZ         13.6090   67.7028  148.1040 C.ar      4 PHE5        0.0000 
    125 CZ         14.7215   67.4466  147.1310 C.ar      4 PHE5        0.0000 
    126 NZ         12.7555   68.2307  146.9893 N.2       3 LYS4        0.0000 
    127 CZ         13.8680   67.9746  146.0162 C.ar      4 PHE5        0.0000 
    128 O          11.9020   68.7587  145.8745 O.2       2 ALA2        0.0000 
    129 O          18.6685   66.7152  151.8359 O.2       2 ALA2        0.0000 
    130 NZ         19.7809   66.4590  150.8628 N.2       3 LYS4        0.0000 
    131 O          17.8150   67.2431  150.7211 O.2       2 ALA2        0.0000 
    132 CA         18.9274   66.9870  149.7481 C.3       5 GLY6        0.0000 
    133 CZ         16.9614   67.7711  149.6064 C.ar      4 PHE5        0.0000 
    134 CZ         16.1079   68.2991  148.4916 C.ar      4 PHE5        0.0000 
    135 N          14.1419   69.0832  148.3499 N.2       2 ALA2        0.0000 
    136 CZ         15.2543   68.8271  147.3768 C.ar      4 PHE5        0.0000 
@<TRIPOS>BOND
@<TRIPOS>SUBSTRUCTURE
     1 SER1       22 GROUP   
     2 ALA2        6 GROUP   
     3 LYS4        3 GROUP   
     4 PHE5       12 GROUP   
     5 GLY6        4 GROUP   
     6 CUB7        1 GROUP   
@<TRIPOS>SET

