#    Name: 1isj_NMN_1_INTS_M
#    Modification time : Tue Mar 25 07:18:27 2014

@<TRIPOS>MOLECULE
1isj_NMN_1_INTS_M
   40     0     9     0     0
SMALL
NO_CHARGES


@<TRIPOS>ATOM
      1 N          14.3645   60.6735  151.5925 N.am      2 SEC2        0.0000 
      2 N          14.2510   60.8350  150.2630 N.am      8 SEL2        0.0000 
      3 N          14.4780   60.5120  152.9220 N.am      5 SEP2        0.0000 
      4 CA         16.1690   61.7070  152.9535 C.3       3 GLC5        0.0000 
      5 CA         16.3960   62.7830  151.1040 C.3       9 GLL5        0.0000 
      6 CA         15.9420   60.6310  154.8030 C.3       6 GLP5        0.0000 
      7 CA         18.6405   61.9195  152.1115 C.3       3 GLC5        0.0000 
      8 CA         17.7880   63.5120  150.8210 C.3       9 GLL5        0.0000 
      9 CA         19.4930   60.3270  153.4020 C.3       6 GLP5        0.0000 
     10 N          18.5085   65.2420  153.8210 N.am      2 SEC2        0.0000 
     11 N          18.9070   65.0270  152.4110 N.am      8 SEL2        0.0000 
     12 N          18.1100   65.4570  155.2310 N.am      5 SEP2        0.0000 
     13 O          19.8320   64.0380  152.0290 O.2       1 ALC1        0.0000 
     14 O          18.9070   65.0270  152.4110 O.2       7 ALL1        0.0000 
     15 O          20.7570   63.0490  151.6470 O.2       4 ALP1        0.0000 
     16 O          19.9935   64.7520  151.2085 O.2       1 ALC1        0.0000 
     17 O          21.0800   64.4770  150.0060 O.2       4 ALP1        0.0000 
     18 O          20.1925   65.5330  150.1700 O.2       1 ALC1        0.0000 
     19 O          19.3050   66.5890  150.3340 O.2       7 ALL1        0.0000 
     20 CA         19.6430   64.5850  147.8095 C.3       3 GLC5        0.0000 
     21 CA         17.9670   65.0780  148.9580 C.3       9 GLL5        0.0000 
     22 CA         21.3190   64.0920  146.6610 C.3       6 GLP5        0.0000 
     23 CA         17.9770   62.9010  148.6130 C.3       3 GLC5        0.0000 
     24 CA         17.9870   60.7240  148.2680 C.3       6 GLP5        0.0000 
     25 CA         17.8395   67.3565  147.5675 C.3       3 GLC5        0.0000 
     26 CA         16.1640   66.7720  148.1680 C.3       9 GLL5        0.0000 
     27 CA         19.5150   67.9410  146.9670 C.3       6 GLP5        0.0000 
     28 O          12.8680   70.0605  147.0180 O.2       1 ALC1        0.0000 
     29 O          13.3160   68.7770  146.7330 O.2       7 ALL1        0.0000 
     30 O          12.4200   71.3440  147.3030 O.2       4 ALP1        0.0000 
     31 CA         17.0030   62.5910  147.8085 C.3       3 GLC5        0.0000 
     32 CA         16.0190   64.4580  147.3490 C.3       9 GLL5        0.0000 
     33 CA         17.5395   61.9357  149.6153 C.3       3 GLC5        0.0000 
     34 CA         16.4930   66.4420  151.6558 C.3       3 GLC5        0.0000 
     35 CA         17.9210   64.9390  151.4650 C.3       9 GLL5        0.0000 
     36 CA         14.9600   67.4510  152.4370 C.3       6 GLP5        0.0000 
     37 CA         18.7820   66.7218  148.2940 C.3       3 GLC5        0.0000 
     38 CA         18.1310   65.9270  150.2840 C.3       9 GLL5        0.0000 
     39 CA         16.0855   64.3575  145.1480 C.3       3 GLC5        0.0000 
     40 CA         16.7460   64.1210  143.3320 C.3       6 GLP5        0.0000 
@<TRIPOS>BOND
@<TRIPOS>SUBSTRUCTURE
     1 ALC1       13 GROUP        1 X    ALC  0     ROOT ALC X 1
     2 SEC2        1 GROUP        1 X    SEC  0     **** SEC X 2
     3 GLC5        4 GROUP        1 X    GLC  0     **** GLC X 6
     4 ALP1       15 GROUP        1 Y    ALP  0     ROOT ALP Y 8
     5 SEP2        3 GROUP        1 Y    SEP  0     **** SEP Y 9
     6 GLP5        6 GROUP        1 Y    GLP  0     **** GLP Y 13
     7 ALL1       14 GROUP        1 Z    ALL  0     ROOT ALL Z 15
     8 SEL2        2 GROUP        1 Z    SEL  0     **** SEL Z 16
     9 GLL5        5 GROUP        1 Z    GLL  0     **** GLL Z 20
@<TRIPOS>SET

