#    Name: 1isj_NMN_1_ligand
#    Modification time : Tue Mar 25 07:18:28 2014

@<TRIPOS>MOLECULE
1isj_NMN_1_ligand
   36    37     1     0     0
SMALL
NO_CHARGES


@<TRIPOS>ATOM
      1 O3P        12.5710   62.7280  150.4650 O.co2     1 NMN1001     0.0000 
      2 P          13.9400   62.2730  149.8510 P.3       1 NMN1001     0.0000 
      3 O1P        13.7870   62.3160  148.3190 O.co2     1 NMN1001     0.0000 
      4 O2P        14.2510   60.8350  150.2630 O.co2     1 NMN1001     0.0000 
      5 O5R        15.1840   63.2450  150.3100 O.3       1 NMN1001     0.0000 
      6 C5R        16.3960   62.7830  151.1040 C.3       1 NMN1001     0.0000 
      7 C4R        17.7880   63.5120  150.8210 C.3       1 NMN1001     0.0000 
      8 O4R        17.8660   63.6870  149.3730 O.3       1 NMN1001     0.0000 
      9 C3R        17.9210   64.9390  151.4650 C.3       1 NMN1001     0.0000 
     10 O3R        18.9070   65.0270  152.4110 O.3       1 NMN1001     0.0000 
     11 C2R        18.1310   65.9270  150.2840 C.3       1 NMN1001     0.0000 
     12 O2R        19.3050   66.5890  150.3340 O.3       1 NMN1001     0.0000 
     13 C1R        17.9670   65.0780  148.9580 C.3       1 NMN1001     0.0000 
     14 N1         16.6680   65.4490  148.1260 N.pl3     1 NMN1001     0.0000 
     15 C2         16.1640   66.7720  148.1680 C.ar      1 NMN1001     0.0000 
     16 C3         14.9560   67.1380  147.4130 C.ar      1 NMN1001     0.0000 
     17 C7         14.4310   68.4540  147.4360 C.2       1 NMN1001     0.0000 
     18 O7         14.9940   69.4220  148.1350 O.2       1 NMN1001     0.0000 
     19 N7         13.3160   68.7770  146.7330 N.am      1 NMN1001     0.0000 
     20 C4         14.3130   66.0860  146.6260 C.ar      1 NMN1001     0.0000 
     21 C5         14.8310   64.7300  146.5790 C.ar      1 NMN1001     0.0000 
     22 C6         16.0190   64.4580  147.3490 C.ar      1 NMN1001     0.0000 
     23 H          16.5627   61.6956  150.9359 H         1 NMN1001     0.0000 
     24 H          16.1937   62.8884  152.1933 H         1 NMN1001     0.0000 
     25 H          18.5703   62.8907  151.1663 H         1 NMN1001     0.0000 
     26 H          16.9168   65.1685  151.8606 H         1 NMN1001     0.0000 
     27 H          17.2467   66.5899  150.2956 H         1 NMN1001     0.0000 
     28 H          18.8222   65.2344  148.3503 H         1 NMN1001     0.0000 
     29 H          16.6239   67.4916  148.7175 H         1 NMN1001     0.0000 
     30 H          12.8991   68.0372  146.2049 H         1 NMN1001     0.0000 
     31 H          13.0099   69.7262  146.8052 H         1 NMN1001     0.0000 
     32 H          13.4721   66.3170  146.0934 H         1 NMN1001     0.0000 
     33 H          14.3864   64.0303  146.0429 H         1 NMN1001     0.0000 
     34 H          16.4045   63.4986  147.3265 H         1 NMN1001     0.0000 
     35 H          19.5741   64.3273  152.1552 H         1 NMN1001     0.0000 
     36 H          20.0047   65.8838  150.2188 H         1 NMN1001     0.0000 
@<TRIPOS>BOND
     1    2    1 ar   
     2    3    2 ar   
     3    4    2 ar   
     4    5    2 1    
     5    6    5 1    
     6    7    6 1    
     7   23    6 1    
     8   24    6 1    
     9    8    7 1    
    10    9    7 1    
    11   25    7 1    
    12   13    8 1    
    13   10    9 1    
    14   11    9 1    
    15   26    9 1    
    16   35   10 1    
    17   12   11 1    
    18   13   11 1    
    19   27   11 1    
    20   36   12 1    
    21   14   13 1    
    22   28   13 1    
    23   15   14 ar   
    24   22   14 ar   
    25   16   15 ar   
    26   29   15 1    
    27   17   16 1    
    28   20   16 ar   
    29   18   17 2    
    30   19   17 am   
    31   30   19 1    
    32   31   19 1    
    33   21   20 ar   
    34   32   20 1    
    35   22   21 ar   
    36   33   21 1    
    37   34   22 1    
@<TRIPOS>SUBSTRUCTURE
     1 NMN1001     1 GROUP   
@<TRIPOS>SET

