#    Name: 3VJK_1_CAVITY_N1_ALL.mol2
#    Modification time : Tue Mar 11 11:25:09 2014

@<TRIPOS>MOLECULE
3VJK_1_CAVITY_N1_ALL.mol2
   76     0     6     0     0
SMALL
NO_CHARGES


@<TRIPOS>ATOM
      1 CA         47.7590   65.1220   28.7850 C.3       5 GLY6        0.0000 
      2 NZ         56.5107   63.3081   35.0594 N.2       3 LYS4        0.0000 
      3 O          55.7887   63.0287   36.3442 O.2       2 ALA2        0.0000 
      4 OG         55.0668   62.7494   37.6290 O.2       1 SER1        0.0000 
      5 NZ         55.4472   64.2941   34.6762 N.2       3 LYS4        0.0000 
      6 DU         54.7252   64.0147   35.9610 H         6 CUB7        0.0000 
      7 OG         54.0033   63.7354   37.2458 O.2       1 SER1        0.0000 
      8 NZ         54.3837   65.2801   34.2930 N.2       3 LYS4        0.0000 
      9 CZ         53.6618   65.0007   35.5778 C.ar      4 PHE5        0.0000 
     10 CZ         52.9398   64.7214   36.8626 C.ar      4 PHE5        0.0000 
     11 O          55.3571   60.6680   37.3396 O.2       2 ALA2        0.0000 
     12 CZ         54.6351   60.3887   38.6244 C.ar      4 PHE5        0.0000 
     13 O          55.0155   61.9334   35.6716 O.2       2 ALA2        0.0000 
     14 OG         54.2936   61.6540   36.9564 O.2       1 SER1        0.0000 
     15 OG         53.5717   61.3747   38.2412 O.2       1 SER1        0.0000 
     16 NZ         54.6740   63.1987   34.0036 N.2       3 LYS4        0.0000 
     17 O          53.9521   62.9194   35.2884 O.2       2 ALA2        0.0000 
     18 OG         53.2301   62.6400   36.5732 O.2       1 SER1        0.0000 
     19 OG         52.5082   62.3607   37.8580 O.2       1 SER1        0.0000 
     20 N          53.6105   64.1847   33.6204 N.2       2 ALA2        0.0000 
     21 DU         52.8886   63.9054   34.9052 H         6 CUB7        0.0000 
     22 DU         52.1666   63.6260   36.1900 H         6 CUB7        0.0000 
     23 OG         51.4447   63.3467   37.4749 O.2       1 SER1        0.0000 
     24 N          52.5470   65.1707   33.2372 N.2       2 ALA2        0.0000 
     25 DU         51.8251   64.8914   34.5220 H         6 CUB7        0.0000 
     26 CZ         51.1032   64.6120   35.8069 C.ar      4 PHE5        0.0000 
     27 N          52.2055   66.4361   31.5692 N.2       2 ALA2        0.0000 
     28 N          51.4836   66.1567   32.8540 N.2       2 ALA2        0.0000 
     29 CZ         50.7616   65.8774   34.1389 C.ar      4 PHE5        0.0000 
     30 CZ         50.0397   65.5980   35.4237 C.ar      4 PHE5        0.0000 
     31 OG         56.8522   62.0427   36.7274 O.2       1 SER1        0.0000 
     32 OG         56.1303   61.7634   38.0122 O.2       1 SER1        0.0000 
     33 N          50.3688   66.3267   30.5134 N.2       2 ALA2        0.0000 
     34 CA         49.6469   66.0474   31.7982 C.3       5 GLY6        0.0000 
     35 CA         48.9250   65.7680   33.0831 C.3       5 GLY6        0.0000 
     36 CZ         48.2030   65.4887   34.3679 C.ar      4 PHE5        0.0000 
     37 N          49.3053   67.3127   30.1302 N.2       2 ALA2        0.0000 
     38 CA         48.5834   67.0334   31.4151 C.3       5 GLY6        0.0000 
     39 CA         47.8615   66.7540   32.6999 C.3       5 GLY6        0.0000 
     40 OG         57.3351   65.2194   37.6894 O.2       1 SER1        0.0000 
     41 NZ         53.3202   66.2661   33.9098 N.2       3 LYS4        0.0000 
     42 CZ         52.5983   65.9867   35.1946 C.ar      4 PHE5        0.0000 
     43 CZ         51.8764   65.7074   36.4795 C.ar      4 PHE5        0.0000 
     44 NZ         52.2567   67.2521   33.5266 N.2       3 LYS4        0.0000 
     45 CZ         51.5348   66.9727   34.8115 C.ar      4 PHE5        0.0000 
     46 N          51.1933   68.2381   33.1435 N.2       2 ALA2        0.0000 
     47 CZ         50.4713   67.9587   34.4283 C.ar      4 PHE5        0.0000 
     48 OG         56.5619   64.1241   37.0168 O.2       1 SER1        0.0000 
     49 OG         55.8400   63.8447   38.3016 O.2       1 SER1        0.0000 
     50 OG         56.2204   65.3894   35.3488 O.2       1 SER1        0.0000 
     51 CZ         55.4984   65.1101   36.6336 C.ar      4 PHE5        0.0000 
     52 OG         54.7765   64.8307   37.9184 O.2       1 SER1        0.0000 
     53 O          53.1789   61.8240   34.6158 O.2       2 ALA2        0.0000 
     54 DU         52.4569   61.5447   35.9006 H         6 CUB7        0.0000 
     55 N          52.8373   63.0894   32.9478 N.2       2 ALA2        0.0000 
     56 DU         52.1154   62.8100   34.2326 H         6 CUB7        0.0000 
     57 N          51.7738   64.0754   32.5646 N.2       2 ALA2        0.0000 
     58 DU         51.0519   63.7960   33.8494 H         6 CUB7        0.0000 
     59 DU         50.3300   63.5167   35.1342 H         6 CUB7        0.0000 
     60 CA         51.4323   65.3407   30.8966 C.3       5 GLY6        0.0000 
     61 CA         50.7104   65.0614   32.1814 C.3       5 GLY6        0.0000 
     62 DU         49.9884   64.7820   33.4662 H         6 CUB7        0.0000 
     63 CZ         49.2665   64.5027   34.7511 C.ar      4 PHE5        0.0000 
     64 OG         51.0007   62.9800   31.8920 O.2       1 SER1        0.0000 
     65 OG         50.2787   62.7007   33.1768 O.2       1 SER1        0.0000 
     66 OG         49.9372   63.9660   31.5088 O.2       1 SER1        0.0000 
     67 OG         49.2152   63.6867   32.7936 O.2       1 SER1        0.0000 
     68 CA         48.8737   64.9520   31.1256 C.3       5 GLY6        0.0000 
     69 DU         48.1518   64.6727   32.4105 H         6 CUB7        0.0000 
     70 CA         48.5322   66.2174   29.4576 C.3       5 GLY6        0.0000 
     71 CA         47.8102   65.9380   30.7425 C.3       5 GLY6        0.0000 
     72 O          47.4687   67.2034   29.0744 O.2       2 ALA2        0.0000 
     73 CA         46.7467   66.9240   30.3593 C.3       5 GLY6        0.0000 
     74 N          50.4201   67.1427   32.4708 N.2       2 ALA2        0.0000 
     75 CA         49.6981   66.8634   33.7557 C.3       5 GLY6        0.0000 
     76 CA         49.3566   68.1287   32.0877 C.3       5 GLY6        0.0000 
@<TRIPOS>BOND
@<TRIPOS>SUBSTRUCTURE
     1 SER1        4 GROUP   
     2 ALA2        3 GROUP   
     3 LYS4        2 GROUP   
     4 PHE5        9 GROUP   
     5 GLY6        1 GROUP   
     6 CUB7        6 GROUP   
@<TRIPOS>SET

