#    Name: 3vjk_M51_1_INTS_M
#    Modification time : Tue Mar 25 01:07:15 2014

@<TRIPOS>MOLECULE
3vjk_M51_1_INTS_M
   62     0     6     0     0
SMALL
NO_CHARGES


@<TRIPOS>ATOM
      1 CA         49.3445   67.2220   27.6755 C.3       2 GLC5        0.0000 
      2 CA         48.4430   67.1560   29.7190 C.3       6 GLL5        0.0000 
      3 CA         50.2460   67.2880   25.6320 C.3       4 GLP5        0.0000 
      4 CA         45.9075   64.6720   36.1510 C.3       2 GLC5        0.0000 
      5 CA         44.9470   63.0710   34.9650 C.3       6 GLL5        0.0000 
      6 CA         46.8680   66.2730   37.3370 C.3       4 GLP5        0.0000 
      7 CA         50.4445   63.9520   30.9750 C.3       2 GLC5        0.0000 
      8 CA         50.5650   63.9250   33.0970 C.3       6 GLL5        0.0000 
      9 CA         50.3240   63.9790   28.8530 C.3       4 GLP5        0.0000 
     10 CA         54.2635   66.8690   35.6850 C.3       2 GLC5        0.0000 
     11 CA         53.7330   65.1320   34.7730 C.3       6 GLL5        0.0000 
     12 CA         54.7940   68.6060   36.5970 C.3       4 GLP5        0.0000 
     13 CA         56.0090   64.8110   32.2850 C.3       2 GLC5        0.0000 
     14 CA         54.6760   64.8000   33.6180 C.3       6 GLL5        0.0000 
     15 CA         57.3420   64.8220   30.9520 C.3       4 GLP5        0.0000 
     16 CA         57.8800   65.8475   35.6750 C.3       2 GLC5        0.0000 
     17 CA         55.9440   65.1260   35.6740 C.3       6 GLL5        0.0000 
     18 CA         59.8160   66.5690   35.6760 C.3       4 GLP5        0.0000 
     19 CA         55.3690   66.8660   36.1355 C.3       2 GLC5        0.0000 
     20 CA         54.3975   66.3395   36.8715 C.3       2 GLC5        0.0000 
     21 CA         54.5320   64.6540   35.9950 C.3       6 GLL5        0.0000 
     22 CA         54.2630   68.0250   37.7480 C.3       4 GLP5        0.0000 
     23 CA         55.9565   67.1435   38.5660 C.3       2 GLC5        0.0000 
     24 CA         57.0340   66.0430   38.1590 C.3       6 GLL5        0.0000 
     25 CA         54.8790   68.2440   38.9730 C.3       4 GLP5        0.0000 
     26 CA         56.9800   66.4500   41.1240 C.3       2 GLC5        0.0000 
     27 CA         57.8110   66.3710   39.4410 C.3       6 GLL5        0.0000 
     28 CA         56.1490   66.5290   42.8070 C.3       4 GLP5        0.0000 
     29 CA         58.4150   67.6495   40.6950 C.3       2 GLC5        0.0000 
     30 CA         59.0190   68.9280   41.9490 C.3       4 GLP5        0.0000 
     31 CA         56.9155   67.7075   39.2475 C.3       2 GLC5        0.0000 
     32 CA         56.0200   69.0440   39.0540 C.3       4 GLP5        0.0000 
     33 CA         58.0985   64.1190   41.5610 C.3       2 GLC5        0.0000 
     34 CA         58.6030   64.8690   39.8520 C.3       6 GLL5        0.0000 
     35 CA         57.5940   63.3690   43.2700 C.3       4 GLP5        0.0000 
     36 CA         58.4620   62.2225   39.3610 C.3       2 GLC5        0.0000 
     37 CA         58.6270   64.1530   38.2310 C.3       6 GLL5        0.0000 
     38 CA         58.2970   60.2920   40.4910 C.3       4 GLP5        0.0000 
     39 CA         59.2215   65.3610   36.9535 C.3       2 GLC5        0.0000 
     40 N          58.5365   62.6135   35.1045 N.am      1 SEC2        0.0000 
     41 N          57.4740   63.3280   35.8710 N.am      5 SEL2        0.0000 
     42 N          59.5990   61.8990   34.3380 N.am      3 SEP2        0.0000 
     43 CA         49.3353   65.0185   30.4310 C.3       2 GLC5        0.0000 
     44 CA         48.8040   66.5880   32.0340 C.3       6 GLL5        0.0000 
     45 CA         47.6520   68.4330   30.9883 C.3       2 GLC5        0.0000 
     46 CA         46.3530   69.8820   30.4970 C.3       4 GLP5        0.0000 
     47 CA         49.5472   65.6235   29.5875 C.3       2 GLC5        0.0000 
     48 CA         49.0980   67.3800   30.9250 C.3       6 GLL5        0.0000 
     49 CA         48.3301   67.7420   33.0645 C.3       2 GLC5        0.0000 
     50 CA         47.9380   68.7650   34.6620 C.3       4 GLP5        0.0000 
     51 CA         47.1630   68.2635   30.0868 C.3       2 GLC5        0.0000 
     52 CA         48.8485   64.8607   29.5235 C.3       2 GLC5        0.0000 
     53 CA         47.5030   66.1340   29.6340 C.3       6 GLL5        0.0000 
     54 CA         50.0105   65.6818   36.7108 C.3       2 GLC5        0.0000 
     55 CA         50.2000   64.0680   35.5820 C.3       6 GLL5        0.0000 
     56 CA         49.1580   66.9120   37.7540 C.3       4 GLP5        0.0000 
     57 CA         58.3567   67.0080   37.4045 C.3       2 GLC5        0.0000 
     58 CA         59.2910   67.8090   36.0090 C.3       4 GLP5        0.0000 
     59 CA         60.0270   65.9300   40.2092 C.3       2 GLC5        0.0000 
     60 CA         61.8470   66.2400   40.7720 C.3       4 GLP5        0.0000 
     61 CA         60.4530   63.8860   38.4827 C.3       2 GLC5        0.0000 
     62 CA         62.2910   63.2610   37.9240 C.3       4 GLP5        0.0000 
@<TRIPOS>BOND
@<TRIPOS>SUBSTRUCTURE
     1 SEC2       40 GROUP        1 X    SEC  0     ROOT SEC X 2
     2 GLC5        1 GROUP        1 X    GLC  0     **** GLC X 6
     3 SEP2       42 GROUP        1 Y    SEP  0     ROOT SEP Y 9
     4 GLP5        3 GROUP        1 Y    GLP  0     **** GLP Y 13
     5 SEL2       41 GROUP        1 Z    SEL  0     ROOT SEL Z 16
     6 GLL5        2 GROUP        1 Z    GLL  0     **** GLL Z 20
@<TRIPOS>SET

