#    Name: 3vjk_M51_1_ligand
#    Modification time : Tue Mar 25 01:07:15 2014

@<TRIPOS>MOLECULE
3vjk_M51_1_ligand
   60    64     1     0     0
SMALL
NO_CHARGES


@<TRIPOS>ATOM
      1 C1         47.4140   63.4950   34.8590 C.2       1 M511000     0.0000 
      2 C2         46.1380   63.7000   34.2900 C.2       1 M511000     0.0000 
      3 N3         46.1830   64.4610   33.1790 N.2       1 M511000     0.0000 
      4 N4         47.5520   64.7540   33.0230 N.pl3     1 M511000     0.0000 
      5 C5         48.2860   64.2030   34.0170 C.2       1 M511000     0.0000 
      6 C6         47.8890   65.5280   31.9840 C.ar      1 M511000     0.0000 
      7 C7         48.8040   66.5880   32.0340 C.ar      1 M511000     0.0000 
      8 C8         49.0980   67.3800   30.9250 C.ar      1 M511000     0.0000 
      9 C9         48.4430   67.1560   29.7190 C.ar      1 M511000     0.0000 
     10 C10        47.5030   66.1340   29.6340 C.ar      1 M511000     0.0000 
     11 C11        47.2430   65.3510   30.7540 C.ar      1 M511000     0.0000 
     12 C12        44.9470   63.0710   34.9650 C.3       1 M511000     0.0000 
     13 N13        49.6700   64.2700   34.2150 N.3       1 M511000     0.0000 
     14 C14        50.5650   63.9250   33.0970 C.3       1 M511000     0.0000 
     15 C15        51.8790   64.6990   33.2740 C.3       1 M511000     0.0000 
     16 N16        52.4160   64.4870   34.6320 N.4       1 M511000     0.0000 
     17 C17        51.5260   64.8350   35.7530 C.3       1 M511000     0.0000 
     18 C18        50.2000   64.0680   35.5820 C.3       1 M511000     0.0000 
     19 C19        53.7330   65.1320   34.7730 C.3       1 M511000     0.0000 
     20 C20        54.6760   64.8000   33.6180 C.3       1 M511000     0.0000 
     21 N21        55.9850   64.9930   34.2190 N.3       1 M511000     0.0000 
     22 C22        55.9440   65.1260   35.6740 C.3       1 M511000     0.0000 
     23 C23        54.5320   64.6540   35.9950 C.3       1 M511000     0.0000 
     24 C24        57.0390   64.3510   36.3760 C.2       1 M511000     0.0000 
     25 N25        57.5390   64.8160   37.5160 N.am      1 M511000     0.0000 
     26 C26        57.0340   66.0430   38.1590 C.3       1 M511000     0.0000 
     27 C27        57.8110   66.3710   39.4410 C.3       1 M511000     0.0000 
     28 S28        58.6030   64.8690   39.8520 S.3       1 M511000     0.0000 
     29 C29        58.6270   64.1530   38.2310 C.3       1 M511000     0.0000 
     30 O30        57.4740   63.3280   35.8710 O.2       1 M511000     0.0000 
     31 H          47.6204   63.0096   35.6074 H         1 M511000     0.0000 
     32 H          49.2834   66.7905   32.9396 H         1 M511000     0.0000 
     33 H          49.7981   68.1280   31.0003 H         1 M511000     0.0000 
     34 H          48.6501   67.7368   28.9022 H         1 M511000     0.0000 
     35 H          47.0072   65.9598   28.7554 H         1 M511000     0.0000 
     36 H          46.5263   64.5871   30.6773 H         1 M511000     0.0000 
     37 H          50.1257   64.2079   32.1473 H         1 M511000     0.0000 
     38 H          50.7896   62.8646   33.0933 H         1 M511000     0.0000 
     39 H          51.6796   65.7575   33.0990 H         1 M511000     0.0000 
     40 H          52.5868   64.3496   32.5204 H         1 M511000     0.0000 
     41 H          52.6249   63.3657   34.7204 H         1 M511000     0.0000 
     42 H          51.3061   65.8966   35.7601 H         1 M511000     0.0000 
     43 H          51.9648   64.5478   36.7018 H         1 M511000     0.0000 
     44 H          50.3904   63.0117   35.7692 H         1 M511000     0.0000 
     45 H          49.4949   64.4355   36.3268 H         1 M511000     0.0000 
     46 H          53.6630   66.2017   34.8325 H         1 M511000     0.0000 
     47 H          54.5001   65.4869   32.8247 H         1 M511000     0.0000 
     48 H          54.5192   63.7882   33.3286 H         1 M511000     0.0000 
     49 H          55.9969   66.1758   35.9291 H         1 M511000     0.0000 
     50 H          54.5041   63.6003   36.0458 H         1 M511000     0.0000 
     51 H          54.1756   65.1383   36.8622 H         1 M511000     0.0000 
     52 H          55.9737   65.9327   38.4205 H         1 M511000     0.0000 
     53 H          57.1213   66.8991   37.4776 H         1 M511000     0.0000 
     54 H          57.1891   66.5640   40.2522 H         1 M511000     0.0000 
     55 H          58.5927   67.0382   39.2802 H         1 M511000     0.0000 
     56 H          59.5940   64.3914   37.8903 H         1 M511000     0.0000 
     57 H          58.4713   63.1313   38.4303 H         1 M511000     0.0000 
     58 H          45.0283   62.0753   35.0096 H         1 M511000     0.0000 
     59 H          44.8361   63.3984   35.9034 H         1 M511000     0.0000 
     60 H          44.0957   63.2742   34.4812 H         1 M511000     0.0000 
@<TRIPOS>BOND
     1    2    1 1    
     2    5    1 2    
     3   31    1 1    
     4    3    2 2    
     5   12    2 1    
     6    4    3 1    
     7    5    4 1    
     8    6    4 1    
     9   13    5 1    
    10    7    6 ar   
    11   11    6 ar   
    12    8    7 ar   
    13   32    7 1    
    14    9    8 ar   
    15   33    8 1    
    16   10    9 ar   
    17   34    9 1    
    18   11   10 ar   
    19   35   10 1    
    20   36   11 1    
    21   58   12 1    
    22   59   12 1    
    23   60   12 1    
    24   14   13 1    
    25   18   13 1    
    26   15   14 1    
    27   37   14 1    
    28   38   14 1    
    29   16   15 1    
    30   39   15 1    
    31   40   15 1    
    32   17   16 1    
    33   19   16 1    
    34   41   16 1    
    35   18   17 1    
    36   42   17 1    
    37   43   17 1    
    38   44   18 1    
    39   45   18 1    
    40   20   19 1    
    41   23   19 1    
    42   46   19 1    
    43   21   20 1    
    44   47   20 1    
    45   48   20 1    
    46   22   21 1    
    47   23   22 1    
    48   24   22 1    
    49   49   22 1    
    50   50   23 1    
    51   51   23 1    
    52   25   24 am   
    53   30   24 2    
    54   26   25 1    
    55   29   25 1    
    56   27   26 1    
    57   52   26 1    
    58   53   26 1    
    59   28   27 1    
    60   54   27 1    
    61   55   27 1    
    62   29   28 1    
    63   56   29 1    
    64   57   29 1    
@<TRIPOS>SUBSTRUCTURE
     1 M511000     1 GROUP   
@<TRIPOS>SET

