#    Name: 4dfl_0K0_1_INTS_M
#    Modification time : Tue Mar 25 09:40:02 2014

@<TRIPOS>MOLECULE
4dfl_0K0_1_INTS_M
   55     0    12     0     0
SMALL
NO_CHARGES


@<TRIPOS>ATOM
      1 CA          3.0170   -3.3740   15.7800 C.3       4 GLC5        0.0000 
      2 CA          2.7550   -1.6360   15.7810 C.3      12 GLL5        0.0000 
      3 CA          3.2790   -5.1120   15.7790 C.3       8 GLP5        0.0000 
      4 CA          3.1290   -2.0580   17.7500 C.3       4 GLC5        0.0000 
      5 CA          3.5030   -2.4800   19.7190 C.3       8 GLP5        0.0000 
      6 N           4.2400   -2.1175   17.3385 N.am      2 SEC2        0.0000 
      7 N           4.0770   -1.3830   16.0350 N.am     10 SEL2        0.0000 
      8 N           4.4030   -2.8520   18.6420 N.am      6 SEP2        0.0000 
      9 CA          6.1635    2.3435   12.0115 C.3       4 GLC5        0.0000 
     10 CA          4.1950    3.3130   11.9700 C.3      12 GLL5        0.0000 
     11 CA          8.1320    1.3740   12.0530 C.3       8 GLP5        0.0000 
     12 CA          2.0020    4.0565   15.3610 C.3       4 GLC5        0.0000 
     13 CA          2.8270    4.8460   13.4450 C.3      12 GLL5        0.0000 
     14 CA          1.1770    3.2670   17.2770 C.3       8 GLP5        0.0000 
     15 CA          4.0510    5.0480   15.2125 C.3       4 GLC5        0.0000 
     16 CA          5.2750    5.2500   16.9800 C.3       8 GLP5        0.0000 
     17 CA          3.9365    6.6975   13.7010 C.3       4 GLC5        0.0000 
     18 CA          5.0460    8.5490   13.9570 C.3       8 GLP5        0.0000 
     19 OD1         2.5490    7.6785   12.2240 O.co2     3 ASC3        0.0000 
     20 OD1         1.4660    6.6540   12.3710 O.co2    11 ASL3        0.0000 
     21 OD1         3.6320    8.7030   12.0770 O.co2     7 ASP3        0.0000 
     22 CA         -2.0310    3.1260   14.2120 C.3       4 GLC5        0.0000 
     23 CA         -1.3290    3.1870   12.5510 C.3      12 GLL5        0.0000 
     24 CA         -2.7330    3.0650   15.8730 C.3       8 GLP5        0.0000 
     25 O           6.9240   -1.1050   16.2920 O.2       1 ALC1        0.0000 
     26 O           6.0840   -0.1510   15.6830 O.2       9 ALL1        0.0000 
     27 O           7.7640   -2.0590   16.9010 O.2       5 ALP1        0.0000 
     28 CA          1.4225    6.9405   15.3200 C.3       4 GLC5        0.0000 
     29 CA          1.5450    5.6930   13.4980 C.3      12 GLL5        0.0000 
     30 CA          1.3000    8.1880   17.1420 C.3       8 GLP5        0.0000 
     31 CA          1.5945   -2.4025   13.2920 C.3       4 GLC5        0.0000 
     32 CA          2.0800   -0.8490   14.8630 C.3      12 GLL5        0.0000 
     33 CA          1.8090   -3.8710   11.8930 C.3       8 GLP5        0.0000 
     34 CA         -0.7142   -0.9333   16.5168 C.3       4 GLC5        0.0000 
     35 CA          0.6800   -1.0190   14.5190 C.3      12 GLL5        0.0000 
     36 CA         -1.6980   -0.3890   18.1920 C.3       8 GLP5        0.0000 
     37 CA         -0.6040   -3.4293   13.7100 C.3       4 GLC5        0.0000 
     38 CA         -1.4630   -2.0350   14.7880 C.3      12 GLL5        0.0000 
     39 CA         -0.4060   -4.8730   12.4440 C.3       8 GLP5        0.0000 
     40 CA         -1.7065   -1.0105   16.2395 C.3       4 GLC5        0.0000 
     41 CA         -1.9670   -1.2290   13.7860 C.3      12 GLL5        0.0000 
     42 CA         -2.1389    0.1486   15.2907 C.3       4 GLC5        0.0000 
     43 CA         -2.7670    1.7010   16.4590 C.3       8 GLP5        0.0000 
     44 CA         -0.7412   -1.9198   12.1149 C.3       4 GLC5        0.0000 
     45 CA         -0.2560   -3.0950   10.6760 C.3       8 GLP5        0.0000 
     46 CA          4.1203   -1.9852   14.3635 C.3       4 GLC5        0.0000 
     47 CA          5.8230   -2.7280   13.4050 C.3       8 GLP5        0.0000 
     48 CA          2.9013    0.4577   16.1955 C.3       4 GLC5        0.0000 
     49 CA          3.3850    2.1580   17.0690 C.3       8 GLP5        0.0000 
     50 CA          5.1150   -1.3498   14.1543 C.3       4 GLC5        0.0000 
     51 CA          4.0730    0.4120   14.4360 C.3      12 GLL5        0.0000 
     52 CA          3.8960    1.0932   15.9862 C.3       4 GLC5        0.0000 
     53 CA          4.7410   -0.3550   15.3710 C.3      12 GLL5        0.0000 
     54 CA          3.4530    2.4620   10.4813 C.3       4 GLC5        0.0000 
     55 CA          3.3140    1.1410    8.9620 C.3       8 GLP5        0.0000 
@<TRIPOS>BOND
@<TRIPOS>SUBSTRUCTURE
     1 ALC1       25 GROUP        1 X    ALC  0     ROOT ALC X 1
     2 SEC2        6 GROUP        1 X    SEC  0     **** SEC X 2
     3 ASC3       19 GROUP        1 X    ASC  0     **** ASC X 3
     4 GLC5        1 GROUP        1 X    GLC  0     **** GLC X 6
     5 ALP1       27 GROUP        1 Y    ALP  0     ROOT ALP Y 8
     6 SEP2        8 GROUP        1 Y    SEP  0     **** SEP Y 9
     7 ASP3       21 GROUP        1 Y    ASP  0     **** ASP Y 10
     8 GLP5        3 GROUP        1 Y    GLP  0     **** GLP Y 13
     9 ALL1       26 GROUP        1 Z    ALL  0     ROOT ALL Z 15
    10 SEL2        7 GROUP        1 Z    SEL  0     **** SEL Z 16
    11 ASL3       20 GROUP        1 Z    ASL  0     **** ASL Z 17
    12 GLL5        2 GROUP        1 Z    GLL  0     **** GLL Z 20
@<TRIPOS>SET

