#    Name: 4dfl_0K0_1_ligand
#    Modification time : Tue Mar 25 09:40:02 2014

@<TRIPOS>MOLECULE
4dfl_0K0_1_ligand
   51    53     1     0     0
SMALL
NO_CHARGES


@<TRIPOS>ATOM
      1 C1          0.6800   -1.0190   14.5190 C.ar      1 0K0701      0.0000 
      2 C2          0.1780   -0.2040   13.5150 C.ar      1 0K0701      0.0000 
      3 C3         -0.1410   -1.9360   15.1640 C.ar      1 0K0701      0.0000 
      4 C4         -1.1500   -0.3160   13.1280 C.ar      1 0K0701      0.0000 
      5 C5         -1.4630   -2.0350   14.7880 C.ar      1 0K0701      0.0000 
      6 C6         -1.9670   -1.2290   13.7860 C.ar      1 0K0701      0.0000 
      7 C7          2.0800   -0.8490   14.8630 C.ar      1 0K0701      0.0000 
      8 C8          2.7550   -1.6360   15.7810 C.ar      1 0K0701      0.0000 
      9 N10         4.0770   -1.3830   16.0350 N.ar      1 0K0701      0.0000 
     10 C11         4.0730    0.4120   14.4360 C.ar      1 0K0701      0.0000 
     11 C12         4.7410   -0.3550   15.3710 C.ar      1 0K0701      0.0000 
     12 O14         5.7620    1.9600   13.9340 O.2       1 0K0701      0.0000 
     13 C16         4.1950    3.3130   11.9700 C.3       1 0K0701      0.0000 
     14 C17         2.9890    4.2530   12.0310 C.3       1 0K0701      0.0000 
     15 C18         2.8270    4.8460   13.4450 C.3       1 0K0701      0.0000 
     16 C19         3.1330    5.4050   11.0290 C.3       1 0K0701      0.0000 
     17 C21         1.8000    6.1630   11.0190 C.3       1 0K0701      0.0000 
     18 N22         1.4660    6.6540   12.3710 N.4       1 0K0701      0.0000 
     19 O26         0.4130    1.6000   11.2630 O.2       1 0K0701      0.0000 
     20 C27        -1.3290    3.1870   12.5510 C.3       1 0K0701      0.0000 
     21 O28        -1.6070    2.0940   10.1510 O.2       1 0K0701      0.0000 
     22 S25        -1.0030    1.8100   11.4370 S.o2      1 0K0701      0.0000 
     23 N24        -1.7250    0.5080   12.1270 N.pl3     1 0K0701      0.0000 
     24 N9          2.7420    0.1530   14.2040 N.ar      1 0K0701      0.0000 
     25 N23         6.0840   -0.1510   15.6830 N.pl3     1 0K0701      0.0000 
     26 C13         4.6450    1.5490   13.6920 C.2       1 0K0701      0.0000 
     27 N15         3.8220    2.1360   12.7660 N.am      1 0K0701      0.0000 
     28 C20         1.5450    5.6930   13.4980 C.3       1 0K0701      0.0000 
     29 H           0.7909    0.4846   13.0564 H         1 0K0701      0.0000 
     30 H           0.2371   -2.5290   15.9095 H         1 0K0701      0.0000 
     31 H          -2.0831   -2.7169   15.2583 H         1 0K0701      0.0000 
     32 H          -2.9646   -1.3023   13.5185 H         1 0K0701      0.0000 
     33 H           2.2637   -2.3992   16.2624 H         1 0K0701      0.0000 
     34 H           5.0451    3.8151   12.3936 H         1 0K0701      0.0000 
     35 H           4.3737    3.0478   10.9443 H         1 0K0701      0.0000 
     36 H           2.0951    3.7009   11.7929 H         1 0K0701      0.0000 
     37 H           3.6790    5.4708   13.6682 H         1 0K0701      0.0000 
     38 H           2.7551    4.0415   14.1617 H         1 0K0701      0.0000 
     39 H           3.3273    5.0084   10.0522 H         1 0K0701      0.0000 
     40 H           3.9170    6.0625   11.3488 H         1 0K0701      0.0000 
     41 H           1.0226    5.4862   10.6528 H         1 0K0701      0.0000 
     42 H           1.8845    6.9975   10.3168 H         1 0K0701      0.0000 
     43 H          -2.6668    0.3465   11.7465 H         1 0K0701      0.0000 
     44 H           6.4741   -0.7638   16.3702 H         1 0K0701      0.0000 
     45 H           6.5419    0.5906   15.1928 H         1 0K0701      0.0000 
     46 H           2.8643    1.7529   12.5867 H         1 0K0701      0.0000 
     47 H           1.5265    6.2271   14.4572 H         1 0K0701      0.0000 
     48 H           0.6836    5.0124   13.4805 H         1 0K0701      0.0000 
     49 H          -0.9346    3.0332   13.4570 H         1 0K0701      0.0000 
     50 H          -0.9447    4.0432   12.2056 H         1 0K0701      0.0000 
     51 H          -2.3093    3.3366   12.6796 H         1 0K0701      0.0000 
@<TRIPOS>BOND
     1    2    1 ar   
     2    3    1 ar   
     3    7    1 1    
     4    4    2 ar   
     5   29    2 1    
     6    5    3 ar   
     7   30    3 1    
     8    6    4 ar   
     9   23    4 1    
    10    6    5 ar   
    11   31    5 1    
    12   32    6 1    
    13    8    7 ar   
    14   24    7 ar   
    15    9    8 ar   
    16   33    8 1    
    17   11    9 ar   
    18   11   10 ar   
    19   24   10 ar   
    20   26   10 1    
    21   25   11 1    
    22   26   12 2    
    23   14   13 1    
    24   27   13 1    
    25   34   13 1    
    26   35   13 1    
    27   15   14 1    
    28   16   14 1    
    29   36   14 1    
    30   28   15 1    
    31   37   15 1    
    32   38   15 1    
    33   17   16 1    
    34   39   16 1    
    35   40   16 1    
    36   18   17 1    
    37   41   17 1    
    38   42   17 1    
    39   28   18 1    
    40   22   19 2    
    41   22   20 1    
    42   49   20 1    
    43   50   20 1    
    44   51   20 1    
    45   22   21 2    
    46   23   22 1    
    47   43   23 1    
    48   44   25 1    
    49   45   25 1    
    50   27   26 am   
    51   46   27 1    
    52   47   28 1    
    53   48   28 1    
@<TRIPOS>SUBSTRUCTURE
     1 0K0701      1 GROUP   
@<TRIPOS>SET

