#    Name: 1c3e_NHR_1_INTS_M
#    Modification time : Mon Mar 24 20:12:10 2014

@<TRIPOS>MOLECULE
1c3e_NHR_1_INTS_M
   76     0    12     0     0
SMALL
NO_CHARGES


@<TRIPOS>ATOM
      1 N          22.6105    0.6595   24.0615 N.am      2 SEC2        0.0000 
      2 N          22.3420    1.3780   22.7850 N.am     10 SEL2        0.0000 
      3 N          22.8790   -0.0590   25.3380 N.am      6 SEP2        0.0000 
      4 CA         23.8185    2.2410   24.1225 C.3       4 GLC5        0.0000 
      5 CA         23.3440    1.7360   22.0220 C.3      12 GLL5        0.0000 
      6 CA         24.2930    2.7460   26.2230 C.3       8 GLP5        0.0000 
      7 CA         23.0740   -0.0990   22.9130 C.3       4 GLC5        0.0000 
      8 CA         22.8040   -1.9340   23.8040 C.3       8 GLP5        0.0000 
      9 CA         24.4480    0.2135   21.1710 C.3       4 GLC5        0.0000 
     10 CA         25.5520   -1.3090   20.3200 C.3       8 GLP5        0.0000 
     11 CA         22.7415    1.2335   20.2735 C.3       4 GLC5        0.0000 
     12 CA         22.1390    0.7310   18.5250 C.3       8 GLP5        0.0000 
     13 O          25.0055    0.4225   23.2015 O.2       1 ALC1        0.0000 
     14 O          24.5300    1.0800   22.1240 O.2       9 ALL1        0.0000 
     15 O          25.4810   -0.2350   24.2790 O.2       5 ALP1        0.0000 
     16 CA         22.8285    5.2770   21.1935 C.3       4 GLC5        0.0000 
     17 CA         22.0500    3.5340   20.8930 C.3      12 GLL5        0.0000 
     18 CA         23.6070    7.0200   21.4940 C.3       8 GLP5        0.0000 
     19 N          21.9060    5.7700   19.9685 N.am      2 SEC2        0.0000 
     20 N          22.0170    4.4390   20.0610 N.am     10 SEL2        0.0000 
     21 N          21.7950    7.1010   19.8760 N.am      6 SEP2        0.0000 
     22 CA         21.9660    4.5480   22.8445 C.3       4 GLC5        0.0000 
     23 CA         20.8520    3.1520   21.7670 C.3      12 GLL5        0.0000 
     24 CA         23.0800    5.9440   23.9220 C.3       8 GLP5        0.0000 
     25 N          16.5275    5.7360   20.3275 N.am      2 SEC2        0.0000 
     26 N          16.2870    6.9380   21.3410 N.am     10 SEL2        0.0000 
     27 N          16.7680    4.5340   19.3140 N.am      6 SEP2        0.0000 
     28 CA         18.5640    2.9955   27.6285 C.3       4 GLC5        0.0000 
     29 CA         18.3750    5.0170   26.7230 C.3      12 GLL5        0.0000 
     30 CA         18.7530    0.9740   28.5340 C.3       8 GLP5        0.0000 
     31 CA         20.8770    7.7570   25.6740 C.3       4 GLC5        0.0000 
     32 CA         18.9910    7.3270   26.2420 C.3      12 GLL5        0.0000 
     33 CA         22.7630    8.1870   25.1060 C.3       8 GLP5        0.0000 
     34 CA         20.5780    7.2835   24.3380 C.3       4 GLC5        0.0000 
     35 CA         18.4800    7.1920   24.9160 C.3      12 GLL5        0.0000 
     36 CA         22.6760    7.3750   23.7600 C.3       8 GLP5        0.0000 
     37 CA         19.9560    4.8410   26.0255 C.3       4 GLC5        0.0000 
     38 CA         17.8670    4.8710   25.4280 C.3      12 GLL5        0.0000 
     39 CA         22.0450    4.8110   26.6230 C.3       8 GLP5        0.0000 
     40 O          18.1970    3.9385   29.6750 O.2       1 ALC1        0.0000 
     41 O          19.2860    5.2610   29.4670 O.2       9 ALL1        0.0000 
     42 O          17.1080    2.6160   29.8830 O.2       5 ALP1        0.0000 
     43 CA         22.4335    3.9870   29.5175 C.3       4 GLC5        0.0000 
     44 CA         22.1950    4.0120   31.3310 C.3      12 GLL5        0.0000 
     45 CA         22.6720    3.9620   27.7040 C.3       8 GLP5        0.0000 
     46 N          22.2905    1.4355   30.2390 N.am      2 SEC2        0.0000 
     47 N          20.9130    2.1760   30.3660 N.am     10 SEL2        0.0000 
     48 N          23.6680    0.6950   30.1120 N.am      6 SEP2        0.0000 
     49 N          20.9160    1.9230   29.0210 N.am      2 SEC2        0.0000 
     50 N          20.9190    1.6700   27.6760 N.am      6 SEP2        0.0000 
     51 NZ         22.9950    1.4995   32.4065 N.4       3 LYC4        0.0000 
     52 NZ         21.5060    2.0640   32.5790 N.4      11 LYL4        0.0000 
     53 NZ         24.6400    0.5150   30.9850 N.4       7 LYP4        0.0000 
     54 N          22.9950    1.4995   32.4065 N.am      2 SEC2        0.0000 
     55 N          21.5060    2.0640   32.5790 N.am     10 SEL2        0.0000 
     56 N          24.4840    0.9350   32.2340 N.am      6 SEP2        0.0000 
     57 CA         21.7950    2.0370   19.9275 C.3       4 GLC5        0.0000 
     58 CA         19.2732    0.7550   21.9012 C.3       4 GLC5        0.0000 
     59 CA         21.0480    2.0520   22.7090 C.3      12 GLL5        0.0000 
     60 CA         18.0340   -0.3400   20.6820 C.3       8 GLP5        0.0000 
     61 CA         21.2802    1.7910   24.9333 C.3       4 GLC5        0.0000 
     62 CA         19.9770    1.6480   23.5320 C.3      12 GLL5        0.0000 
     63 CA         22.0480    1.7320   26.7460 C.3       8 GLP5        0.0000 
     64 CA         20.9057   -0.1225   23.5703 C.3       4 GLC5        0.0000 
     65 CA         21.2990   -2.0950   24.0200 C.3       8 GLP5        0.0000 
     66 CA         18.3432    1.2600   21.8445 C.3       4 GLC5        0.0000 
     67 CA         18.7440    2.3200   23.4570 C.3      12 GLL5        0.0000 
     68 CA         16.7535    3.7860   27.1498 C.3       4 GLC5        0.0000 
     69 CA         15.3860    2.6280   28.2240 C.3       8 GLP5        0.0000 
     70 CA         20.4344    5.6434   26.6091 C.3       4 GLC5        0.0000 
     71 CA         18.8428    9.1472   25.0450 C.3       4 GLC5        0.0000 
     72 CA         18.9500   11.0350   24.5110 C.3       8 GLP5        0.0000 
     73 CA         17.4046    7.8544   26.8800 C.3       4 GLC5        0.0000 
     74 CA         16.0870    8.7230   27.9480 C.3       8 GLP5        0.0000 
     75 CA         21.5853    4.5650   29.3238 C.3       4 GLC5        0.0000 
     76 CA         19.7220    5.0840   30.8870 C.3      12 GLL5        0.0000 
@<TRIPOS>BOND
@<TRIPOS>SUBSTRUCTURE
     1 ALC1       13 GROUP        1 X    ALC  0     ROOT ALC X 1
     2 SEC2        1 GROUP        1 X    SEC  0     **** SEC X 2
     3 LYC4       51 GROUP        1 X    LYC  0     **** LYC X 4
     4 GLC5        4 GROUP        1 X    GLC  0     **** GLC X 6
     5 ALP1       15 GROUP        1 Y    ALP  0     ROOT ALP Y 8
     6 SEP2        3 GROUP        1 Y    SEP  0     **** SEP Y 9
     7 LYP4       53 GROUP        1 Y    LYP  0     **** LYP Y 11
     8 GLP5        6 GROUP        1 Y    GLP  0     **** GLP Y 13
     9 ALL1       14 GROUP        1 Z    ALL  0     ROOT ALL Z 15
    10 SEL2        2 GROUP        1 Z    SEL  0     **** SEL Z 16
    11 LYL4       52 GROUP        1 Z    LYL  0     **** LYL Z 18
    12 GLL5        5 GROUP        1 Z    GLL  0     **** GLL Z 20
@<TRIPOS>SET

