#    Name: 1c3e_NHR_1_ligand
#    Modification time : Mon Mar 24 20:12:10 2014

@<TRIPOS>MOLECULE
1c3e_NHR_1_ligand
   54    56     1     0     0
SMALL
NO_CHARGES


@<TRIPOS>ATOM
      1 N1         22.3420    1.3780   22.7850 N.ar      1 NHR220      0.0000 
      2 C2         23.3440    1.7360   22.0220 C.ar      1 NHR220      0.0000 
      3 NA2        24.5300    1.0800   22.1240 N.pl3     1 NHR220      0.0000 
      4 N3         23.2170    2.8230   21.0530 N.ar      1 NHR220      0.0000 
      5 C4         22.0500    3.5340   20.8930 C.ar      1 NHR220      0.0000 
      6 O4         22.0170    4.4390   20.0610 O.3       1 NHR220      0.0000 
      7 C4A        20.8520    3.1520   21.7670 C.ar      1 NHR220      0.0000 
      8 C8A        21.0480    2.0520   22.7090 C.ar      1 NHR220      0.0000 
      9 C8         19.9770    1.6480   23.5320 C.ar      1 NHR220      0.0000 
     10 C7         18.7440    2.3200   23.4570 C.ar      1 NHR220      0.0000 
     11 C9         17.2450    4.1620   22.5490 C.3       1 NHR220      0.0000 
     12 C10        17.3890    5.7150   22.9720 C.3       1 NHR220      0.0000 
     13 CA1        16.2410    6.6090   22.5320 C.2       1 NHR220      0.0000 
     14 OA1        16.2870    6.9380   21.3410 O.co2     1 NHR220      0.0000 
     15 C6         18.5610    3.4000   22.5570 C.ar      1 NHR220      0.0000 
     16 C5         19.6130    3.8110   21.7110 C.ar      1 NHR220      0.0000 
     17 C16        18.3750    5.0170   26.7230 C.ar      1 NHR220      0.0000 
     18 C11        18.9380    6.2320   27.1740 C.ar      1 NHR220      0.0000 
     19 C17        19.5100    6.3100   28.6050 C.2       1 NHR220      0.0000 
     20 O17        20.1750    7.2940   28.9810 O.2       1 NHR220      0.0000 
     21 C12        18.9910    7.3270   26.2420 C.ar      1 NHR220      0.0000 
     22 C13        18.4800    7.1920   24.9160 C.ar      1 NHR220      0.0000 
     23 C14        17.9220    5.9320   24.4800 C.ar      1 NHR220      0.0000 
     24 C15        17.8670    4.8710   25.4280 C.ar      1 NHR220      0.0000 
     25 N          19.2860    5.2610   29.4670 N.am      1 NHR220      0.0000 
     26 CA         19.7220    5.0840   30.8870 C.3       1 NHR220      0.0000 
     27 C          18.9890    5.8600   32.0650 C.2       1 NHR220      0.0000 
     28 O          18.4910    5.2830   33.0680 O.co2     1 NHR220      0.0000 
     29 CB         21.2750    5.2520   31.0000 C.3       1 NHR220      0.0000 
     30 CG         22.1950    4.0120   31.3310 C.3       1 NHR220      0.0000 
     31 CD         21.4570    2.6750   31.3500 C.2       1 NHR220      0.0000 
     32 OE1        20.9130    2.1760   30.3660 O.co2     1 NHR220      0.0000 
     33 OE2        21.5060    2.0640   32.5790 O.co2     1 NHR220      0.0000 
     34 OT         18.9310    7.2150   31.9110 O.co2     1 NHR220      0.0000 
     35 OA2        15.8190    7.4850   23.2710 O.co2     1 NHR220      0.0000 
     36 H          25.0581    0.9918   21.2794 H         1 NHR220      0.0000 
     37 H          24.7698    0.7435   23.0346 H         1 NHR220      0.0000 
     38 H          20.0980    0.8685   24.1810 H         1 NHR220      0.0000 
     39 H          17.9648    2.0292   24.0584 H         1 NHR220      0.0000 
     40 H          16.7994    4.1469   21.5505 H         1 NHR220      0.0000 
     41 H          16.5356    3.7092   23.2472 H         1 NHR220      0.0000 
     42 H          18.3097    6.0610   22.3267 H         1 NHR220      0.0000 
     43 H          19.4708    4.5856   21.0610 H         1 NHR220      0.0000 
     44 H          18.3402    4.2123   27.3769 H         1 NHR220      0.0000 
     45 H          19.4023    8.2142   26.5391 H         1 NHR220      0.0000 
     46 H          18.5049    7.9756   24.2738 H         1 NHR220      0.0000 
     47 H          17.4391    3.9753   25.1418 H         1 NHR220      0.0000 
     48 H          18.7115    4.4159   29.1014 H         1 NHR220      0.0000 
     49 H          19.5742    3.9683   31.1445 H         1 NHR220      0.0000 
     50 H          21.4836    6.0429   31.7706 H         1 NHR220      0.0000 
     51 H          21.6464    5.7016   30.0394 H         1 NHR220      0.0000 
     52 H          22.6598    4.1928   32.3089 H         1 NHR220      0.0000 
     53 H          22.9971    3.9821   30.5821 H         1 NHR220      0.0000 
     54 H          22.4227    4.0465   19.2356 H         1 NHR220      0.0000 
@<TRIPOS>BOND
     1    2    1 ar   
     2    8    1 ar   
     3    3    2 1    
     4    4    2 ar   
     5   36    3 1    
     6   37    3 1    
     7    5    4 ar   
     8    6    5 1    
     9    7    5 ar   
    10   54    6 1    
    11    8    7 ar   
    12   16    7 ar   
    13    9    8 ar   
    14   10    9 ar   
    15   38    9 1    
    16   15   10 ar   
    17   39   10 1    
    18   12   11 1    
    19   15   11 1    
    20   40   11 1    
    21   41   11 1    
    22   13   12 1    
    23   23   12 1    
    24   42   12 1    
    25   14   13 ar   
    26   35   13 ar   
    27   16   15 ar   
    28   43   16 1    
    29   18   17 ar   
    30   24   17 ar   
    31   44   17 1    
    32   19   18 1    
    33   21   18 ar   
    34   20   19 2    
    35   25   19 am   
    36   22   21 ar   
    37   45   21 1    
    38   23   22 ar   
    39   46   22 1    
    40   24   23 ar   
    41   47   24 1    
    42   26   25 1    
    43   48   25 1    
    44   27   26 1    
    45   29   26 1    
    46   49   26 1    
    47   28   27 ar   
    48   34   27 ar   
    49   30   29 1    
    50   50   29 1    
    51   51   29 1    
    52   31   30 1    
    53   52   30 1    
    54   53   30 1    
    55   32   31 ar   
    56   33   31 ar   
@<TRIPOS>SUBSTRUCTURE
     1 NHR220      1 GROUP   
@<TRIPOS>SET

