#    Name: 3n87_N87_11_INTS_M
#    Modification time : Tue Mar 25 00:58:14 2014

@<TRIPOS>MOLECULE
3n87_N87_11_INTS_M
   58     0     9     0     0
SMALL
NO_CHARGES


@<TRIPOS>ATOM
      1 N          13.6275    3.2205   28.9835 N.am      2 SEC2        0.0000 
      2 N          14.7690    3.3380   28.1020 N.am      8 SEL2        0.0000 
      3 N          12.4860    3.1030   29.8650 N.am      5 SEP2        0.0000 
      4 N          14.8690    3.7050   29.3540 N.am      2 SEC2        0.0000 
      5 N          14.9690    4.0720   30.6060 N.am      5 SEP2        0.0000 
      6 N          14.7395    1.3770   25.1605 N.am      2 SEC2        0.0000 
      7 N          14.8950    1.8940   26.4910 N.am      8 SEL2        0.0000 
      8 N          14.5840    0.8600   23.8300 N.am      5 SEP2        0.0000 
      9 N          13.4940    2.3150   26.7405 N.am      2 SEC2        0.0000 
     10 N          12.0930    2.7360   26.9900 N.am      5 SEP2        0.0000 
     11 CA         15.0820    4.3975   26.3730 C.3       3 GLC5        0.0000 
     12 CA         16.8330    3.2440   26.8900 C.3       9 GLL5        0.0000 
     13 CA         13.3310    5.5510   25.8560 C.3       6 GLP5        0.0000 
     14 O          16.1905    5.0275   25.2450 O.2       1 ALC1        0.0000 
     15 O          16.8240    3.7210   25.5110 O.2       7 ALL1        0.0000 
     16 O          15.5570    6.3340   24.9790 O.2       4 ALP1        0.0000 
     17 O          21.9225    3.2505   28.2080 O.2       1 ALC1        0.0000 
     18 O          20.9150    3.4990   27.6680 O.2       7 ALL1        0.0000 
     19 O          22.9300    3.0020   28.7480 O.2       4 ALP1        0.0000 
     20 N          19.7590    6.8955   27.4145 N.am      2 SEC2        0.0000 
     21 N          19.2770    5.7010   28.3210 N.am      8 SEL2        0.0000 
     22 N          20.2410    8.0900   26.5080 N.am      5 SEP2        0.0000 
     23 N          20.4195    5.6225   29.1135 N.am      2 SEC2        0.0000 
     24 N          21.5620    5.5440   29.9060 N.am      5 SEP2        0.0000 
     25 CA         16.5015    6.2105   28.0900 C.3       3 GLC5        0.0000 
     26 CA         17.3120    4.3620   27.8290 C.3       9 GLL5        0.0000 
     27 CA         15.6910    8.0590   28.3510 C.3       6 GLP5        0.0000 
     28 CA         23.6925   -0.4030   34.2955 C.3       3 GLC5        0.0000 
     29 CA         21.6930   -1.1740   33.6550 C.3       9 GLL5        0.0000 
     30 CA         25.6920    0.3680   34.9360 C.3       6 GLP5        0.0000 
     31 CA         23.6560   -3.1605   34.8255 C.3       3 GLC5        0.0000 
     32 CA         21.7010   -2.0940   34.7160 C.3       9 GLL5        0.0000 
     33 CA         25.6110   -4.2270   34.9350 C.3       6 GLP5        0.0000 
     34 CA         18.6558    2.6772   25.4252 C.3       3 GLC5        0.0000 
     35 CA         17.7700    2.0430   27.0790 C.3       9 GLL5        0.0000 
     36 CA         20.0100    2.7110   23.8660 C.3       6 GLP5        0.0000 
     37 CA         18.1243    2.0397   29.3995 C.3       3 GLC5        0.0000 
     38 CA         18.9490    2.0460   27.7560 C.3       9 GLL5        0.0000 
     39 CA         16.9780    1.3770   30.8360 C.3       6 GLP5        0.0000 
     40 CA         19.5261    3.1679   25.8332 C.3       3 GLC5        0.0000 
     41 CA         17.1424    2.4399   29.1214 C.3       3 GLC5        0.0000 
     42 CA         22.4407    0.6758   29.6245 C.3       3 GLC5        0.0000 
     43 CA         20.1710    0.6330   29.4190 C.3       9 GLL5        0.0000 
     44 CA         24.4290    1.3120   29.5940 C.3       6 GLP5        0.0000 
     45 CA         19.7785   -2.8475   35.8697 C.3       3 GLC5        0.0000 
     46 CA         18.0340   -2.9410   37.1600 C.3       6 GLP5        0.0000 
     47 CA         22.7812   -4.7255   33.5467 C.3       3 GLC5        0.0000 
     48 CA         21.3450   -3.4140   34.4430 C.3       9 GLL5        0.0000 
     49 CA         24.3920   -5.8390   33.3060 C.3       6 GLP5        0.0000 
     50 CA         20.9222   -5.1065   34.6852 C.3       3 GLC5        0.0000 
     51 CA         20.9960   -3.8100   33.1320 C.3       9 GLL5        0.0000 
     52 CA         20.6740   -6.6010   35.5830 C.3       6 GLP5        0.0000 
     53 CA         18.9282   -1.5235   26.0270 C.3       3 GLC5        0.0000 
     54 CA         20.1220   -1.6140   27.8080 C.3       9 GLL5        0.0000 
     55 CA         18.0210   -2.0330   24.4740 C.3       6 GLP5        0.0000 
     56 CA         21.4875   -1.9136   27.2769 C.3       3 GLC5        0.0000 
     57 CA         19.5490   -0.4140   27.3520 C.3       9 GLL5        0.0000 
     58 CA         22.9880   -2.7930   26.6580 C.3       6 GLP5        0.0000 
@<TRIPOS>BOND
@<TRIPOS>SUBSTRUCTURE
     1 ALC1       14 GROUP        1 X    ALC  0     ROOT ALC X 1
     2 SEC2        1 GROUP        1 X    SEC  0     **** SEC X 2
     3 GLC5       11 GROUP        1 X    GLC  0     **** GLC X 6
     4 ALP1       16 GROUP        1 Y    ALP  0     ROOT ALP Y 8
     5 SEP2        3 GROUP        1 Y    SEP  0     **** SEP Y 9
     6 GLP5       13 GROUP        1 Y    GLP  0     **** GLP Y 13
     7 ALL1       15 GROUP        1 Z    ALL  0     ROOT ALL Z 15
     8 SEL2        2 GROUP        1 Z    SEL  0     **** SEL Z 16
     9 GLL5       12 GROUP        1 Z    GLL  0     **** GLL Z 20
@<TRIPOS>SET

