#    Name: 3n87_N87_11_ligand
#    Modification time : Tue Mar 25 00:58:14 2014

@<TRIPOS>MOLECULE
3n87_N87_11_ligand
   43    45     1     0     0
SMALL
NO_CHARGES


@<TRIPOS>ATOM
      1 O1         14.7690    3.3380   28.1020 O.co2     1 N87147      0.0000 
      2 C2         15.4110    2.8010   27.1910 C.2       1 N87147      0.0000 
      3 O3         14.8950    1.8940   26.4910 O.co2     1 N87147      0.0000 
      4 C4         16.8330    3.2440   26.8900 C.3       1 N87147      0.0000 
      5 O5         16.8240    3.7210   25.5110 O.3       1 N87147      0.0000 
      6 C6         17.7700    2.0430   27.0790 C.2       1 N87147      0.0000 
      7 C7         18.9490    2.0460   27.7560 C.2       1 N87147      0.0000 
      8 C8         19.5920    3.3590   28.1700 C.3       1 N87147      0.0000 
      9 O9         20.9150    3.4990   27.6680 O.3       1 N87147      0.0000 
     10 C10        18.8140    4.5470   27.6380 C.3       1 N87147      0.0000 
     11 O11        19.2770    5.7010   28.3210 O.3       1 N87147      0.0000 
     12 C12        17.3120    4.3620   27.8290 C.3       1 N87147      0.0000 
     13 C13        19.5750    0.7240   28.1600 C.ar      1 N87147      0.0000 
     14 C14        20.1710    0.6330   29.4190 C.ar      1 N87147      0.0000 
     15 C15        20.7340   -0.5540   29.8910 C.ar      1 N87147      0.0000 
     16 C16        21.3720   -0.4880   31.2570 C.2       1 N87147      0.0000 
     17 C17        21.3370   -1.5530   32.3330 C.ar      1 N87147      0.0000 
     18 C18        21.6930   -1.1740   33.6550 C.ar      1 N87147      0.0000 
     19 C19        21.7010   -2.0940   34.7160 C.ar      1 N87147      0.0000 
     20 C20        21.3450   -3.4140   34.4430 C.ar      1 N87147      0.0000 
     21 C21        20.9960   -3.8100   33.1320 C.ar      1 N87147      0.0000 
     22 C22        20.9860   -2.8930   32.0640 C.ar      1 N87147      0.0000 
     23 C23        20.7280   -1.6950   29.0710 C.ar      1 N87147      0.0000 
     24 C24        20.1220   -1.6140   27.8080 C.ar      1 N87147      0.0000 
     25 C25        19.5490   -0.4140   27.3520 C.ar      1 N87147      0.0000 
     26 O26        21.9760    0.5330   31.5070 O.2       1 N87147      0.0000 
     27 H          17.4067    1.1649   26.6160 H         1 N87147      0.0000 
     28 H          19.5858    3.4274   29.2528 H         1 N87147      0.0000 
     29 H          19.0162    4.6244   26.5742 H         1 N87147      0.0000 
     30 H          17.1078    4.0800   28.8499 H         1 N87147      0.0000 
     31 H          16.7990    5.2779   27.5812 H         1 N87147      0.0000 
     32 H          20.1965    1.4790   30.0266 H         1 N87147      0.0000 
     33 H          21.9533   -0.1883   33.8346 H         1 N87147      0.0000 
     34 H          21.9585   -1.8025   35.6503 H         1 N87147      0.0000 
     35 H          21.3337   -4.1130   35.1976 H         1 N87147      0.0000 
     36 H          20.7428   -4.7955   32.9559 H         1 N87147      0.0000 
     37 H          20.7349   -3.1844   31.1311 H         1 N87147      0.0000 
     38 H          21.1537   -2.5601   29.3867 H         1 N87147      0.0000 
     39 H          20.0959   -2.4491   27.2026 H         1 N87147      0.0000 
     40 H          19.1129   -0.3792   26.4249 H         1 N87147      0.0000 
     41 H          16.4775    4.6576   25.5635 H         1 N87147      0.0000 
     42 H          21.4826    3.6591   28.4756 H         1 N87147      0.0000 
     43 H          18.4774    6.0511   28.8089 H         1 N87147      0.0000 
@<TRIPOS>BOND
     1    2    1 ar   
     2    3    2 ar   
     3    4    2 1    
     4    5    4 1    
     5    6    4 1    
     6   12    4 1    
     7   41    5 1    
     8    7    6 2    
     9   27    6 1    
    10    8    7 1    
    11   13    7 1    
    12    9    8 1    
    13   10    8 1    
    14   28    8 1    
    15   42    9 1    
    16   11   10 1    
    17   12   10 1    
    18   29   10 1    
    19   43   11 1    
    20   30   12 1    
    21   31   12 1    
    22   14   13 ar   
    23   25   13 ar   
    24   15   14 ar   
    25   32   14 1    
    26   16   15 1    
    27   23   15 ar   
    28   17   16 1    
    29   26   16 2    
    30   18   17 ar   
    31   22   17 ar   
    32   19   18 ar   
    33   33   18 1    
    34   20   19 ar   
    35   34   19 1    
    36   21   20 ar   
    37   35   20 1    
    38   22   21 ar   
    39   36   21 1    
    40   37   22 1    
    41   24   23 ar   
    42   38   23 1    
    43   25   24 ar   
    44   39   24 1    
    45   40   25 1    
@<TRIPOS>SUBSTRUCTURE
     1 N87147      1 GROUP   
@<TRIPOS>SET

