#    Name: 1kvk_ATP_1_INTS_M
#    Modification time : Tue Mar 25 10:37:22 2014

@<TRIPOS>MOLECULE
1kvk_ATP_1_INTS_M
   50     0    15     0     0
SMALL
NO_CHARGES


@<TRIPOS>ATOM
      1 NZ         43.7060   36.0235   10.7195 N.4       3 LYC4        0.0000 
      2 NZ         42.6740   35.6330   11.5770 N.4      13 LYL4        0.0000 
      3 NZ         44.7380   36.4140    9.8620 N.4       8 LYP4        0.0000 
      4 N          44.1955   35.0925   12.2360 N.am      2 SEC2        0.0000 
      5 N          42.6740   35.6330   11.5770 N.am     12 SEL2        0.0000 
      6 N          45.7170   34.5520   12.8950 N.am      7 SEP2        0.0000 
      7 NZ         43.8450   34.8610   10.3770 N.4       3 LYC4        0.0000 
      8 NZ         42.9520   33.3080   10.8920 N.4      13 LYL4        0.0000 
      9 Zn         43.5345   32.1000   10.5355 Zn        4 ZIC7        0.0000 
     10 Zn         42.9520   33.3080   10.8920 Zn       14 ZIL7        0.0000 
     11 Zn         44.1170   30.8920   10.1790 Zn        9 ZIP7        0.0000 
     12 N          44.5015   30.1265   13.2270 N.am      2 SEC2        0.0000 
     13 N          43.4540   31.0420   12.9480 N.am     12 SEL2        0.0000 
     14 N          45.5490   29.2110   13.5060 N.am      7 SEP2        0.0000 
     15 N          43.5185   29.7305   12.1065 N.am      2 SEC2        0.0000 
     16 N          43.5830   28.4190   11.2650 N.am      7 SEP2        0.0000 
     17 N          41.9095   32.3705   16.4415 N.am      2 SEC2        0.0000 
     18 N          42.3160   32.0080   15.1440 N.am     12 SEL2        0.0000 
     19 N          41.5030   32.7330   17.7390 N.am      7 SEP2        0.0000 
     20 N          40.8770   30.7150   11.4190 N.am      2 SEC2        0.0000 
     21 N          41.1500   31.4380   12.9130 N.am     12 SEL2        0.0000 
     22 N          40.6040   29.9920    9.9250 N.am      7 SEP2        0.0000 
     23 CA         39.4475   25.1345   16.8175 C.3       5 GLC5        0.0000 
     24 CA         40.2790   27.0230   15.9840 C.3      15 GLL5        0.0000 
     25 CA         38.6160   23.2460   17.6510 C.3      10 GLP5        0.0000 
     26 CA         40.3840   24.8470   17.7745 C.3       5 GLC5        0.0000 
     27 CA         41.3630   26.0820   16.6460 C.3      15 GLL5        0.0000 
     28 CA         39.4050   23.6120   18.9030 C.3      10 GLP5        0.0000 
     29 N          41.4840   23.8035   15.9190 N.am      2 SEC2        0.0000 
     30 N          40.9060   24.6920   16.6250 N.am     12 SEL2        0.0000 
     31 N          42.0620   22.9150   15.2130 N.am      7 SEP2        0.0000 
     32 CA         43.2775   26.9590   14.1310 C.3       5 GLC5        0.0000 
     33 CA         42.7120   26.1800   15.7850 C.3      15 GLL5        0.0000 
     34 CA         43.8430   27.7380   12.4770 C.3      10 GLP5        0.0000 
     35 CA         41.9830   25.9370   13.9040 C.3       5 GLC5        0.0000 
     36 CA         41.2540   25.6940   12.0230 C.3      10 GLP5        0.0000 
     37 CA         48.4620   24.5385   18.9180 C.3       5 GLC5        0.0000 
     38 CA         46.6010   25.6930   18.9910 C.3      15 GLL5        0.0000 
     39 CA         50.3230   23.3840   18.8450 C.3      10 GLP5        0.0000 
     40 O          47.9105   26.4135   21.1660 O.2       1 ALC1        0.0000 
     41 O          47.6400   26.2140   19.7450 O.2      11 ALL1        0.0000 
     42 O          48.1810   26.6130   22.5870 O.2       6 ALP1        0.0000 
     43 O          48.5125   27.4140   19.8455 O.2       1 ALC1        0.0000 
     44 O          49.3850   28.6140   19.9460 O.2       6 ALP1        0.0000 
     45 CA         46.0790   21.9175   18.8620 C.3       5 GLC5        0.0000 
     46 CA         45.2780   23.5630   18.2770 C.3      15 GLL5        0.0000 
     47 CA         46.8800   20.2720   19.4470 C.3      10 GLP5        0.0000 
     48 CA         42.4458   28.0442   13.6342 C.3       5 GLC5        0.0000 
     49 CA         41.0370   27.6250   14.7830 C.3      15 GLL5        0.0000 
     50 CA         40.9589   26.6904   13.7054 C.3       5 GLC5        0.0000 
@<TRIPOS>BOND
@<TRIPOS>SUBSTRUCTURE
     1 ALC1       40 GROUP        1 X    ALC  0     ROOT ALC X 1
     2 SEC2        4 GROUP        1 X    SEC  0     **** SEC X 2
     3 LYC4        1 GROUP        1 X    LYC  0     **** LYC X 4
     4 ZIC7        9 GROUP        1 X    ZIC  0     **** ZIC X 5
     5 GLC5       23 GROUP        1 X    GLC  0     **** GLC X 6
     6 ALP1       42 GROUP        1 Y    ALP  0     ROOT ALP Y 8
     7 SEP2        6 GROUP        1 Y    SEP  0     **** SEP Y 9
     8 LYP4        3 GROUP        1 Y    LYP  0     **** LYP Y 11
     9 ZIP7       11 GROUP        1 Y    ZIP  0     **** ZIP Y 12
    10 GLP5       25 GROUP        1 Y    GLP  0     **** GLP Y 13
    11 ALL1       41 GROUP        1 Z    ALL  0     ROOT ALL Z 15
    12 SEL2        5 GROUP        1 Z    SEL  0     **** SEL Z 16
    13 LYL4        2 GROUP        1 Z    LYL  0     **** LYL Z 18
    14 ZIL7       10 GROUP        1 Z    ZIL  0     **** ZIL Z 19
    15 GLL5       24 GROUP        1 Z    GLL  0     **** GLL Z 20
@<TRIPOS>SET

