#    Name: 1kvk_ATP_1_ligand
#    Modification time : Tue Mar 25 10:37:22 2014

@<TRIPOS>MOLECULE
1kvk_ATP_1_ligand
   43    45     1     0     0
SMALL
NO_CHARGES


@<TRIPOS>ATOM
      1 PG         42.2130   34.0920   11.8750 P.3       1 ATP535      0.0000 
      2 O1G        40.7600   33.7140   11.7850 O.co2     1 ATP535      0.0000 
      3 O2G        42.6740   35.6330   11.5770 O.co2     1 ATP535      0.0000 
      4 O3G        42.9520   33.3080   10.8920 O.co2     1 ATP535      0.0000 
      5 PB         42.4320   31.9870   13.6640 P.3       1 ATP535      0.0000 
      6 O1B        43.4540   31.0420   12.9480 O.co2     1 ATP535      0.0000 
      7 O2B        42.3160   32.0080   15.1440 O.co2     1 ATP535      0.0000 
      8 O3B        42.8060   33.3210   13.1430 O.3       1 ATP535      0.0000 
      9 PA         39.8610   31.0100   13.6740 P.3       1 ATP535      0.0000 
     10 O1A        39.7260   31.7810   15.0710 O.co2     1 ATP535      0.0000 
     11 O2A        38.5850   31.3360   12.6900 O.co2     1 ATP535      0.0000 
     12 O3A        41.1500   31.4380   12.9130 O.3       1 ATP535      0.0000 
     13 O5'        40.0010   29.4680   13.8780 O.3       1 ATP535      0.0000 
     14 C5'        41.0600   29.0760   14.8000 C.3       1 ATP535      0.0000 
     15 C4'        41.0370   27.6250   14.7830 C.3       1 ATP535      0.0000 
     16 O4'        42.4250   27.0870   14.7460 O.3       1 ATP535      0.0000 
     17 C3'        40.2790   27.0230   15.9840 C.3       1 ATP535      0.0000 
     18 O3'        38.9830   26.3250   15.4080 O.3       1 ATP535      0.0000 
     19 C2'        41.3630   26.0820   16.6460 C.3       1 ATP535      0.0000 
     20 O2'        40.9060   24.6920   16.6250 O.3       1 ATP535      0.0000 
     21 C1'        42.7120   26.1800   15.7850 C.3       1 ATP535      0.0000 
     22 N9         43.8860   26.6030   16.6570 N.pl3     1 ATP535      0.0000 
     23 C8         44.5140   27.9580   16.9430 C.2       1 ATP535      0.0000 
     24 N7         45.5970   27.8830   17.8240 N.2       1 ATP535      0.0000 
     25 C5         45.6890   26.5280   18.1160 C.ar      1 ATP535      0.0000 
     26 C6         46.6010   25.6930   18.9910 C.ar      1 ATP535      0.0000 
     27 N6         47.6400   26.2140   19.7450 N.pl3     1 ATP535      0.0000 
     28 N1         46.3750   24.2450   19.0450 N.ar      1 ATP535      0.0000 
     29 C2         45.2780   23.5630   18.2770 C.ar      1 ATP535      0.0000 
     30 N3         44.4160   24.2460   17.4720 N.ar      1 ATP535      0.0000 
     31 C4         44.6360   25.7160   17.4050 C.ar      1 ATP535      0.0000 
     32 H          40.8511   29.4480   15.7918 H         1 ATP535      0.0000 
     33 H          42.0141   29.4453   14.4549 H         1 ATP535      0.0000 
     34 H          40.5202   27.2742   13.8758 H         1 ATP535      0.0000 
     35 H          40.0324   27.7998   16.6390 H         1 ATP535      0.0000 
     36 H          41.5741   26.4300   17.6146 H         1 ATP535      0.0000 
     37 H          42.8790   25.1802   15.4091 H         1 ATP535      0.0000 
     38 H          44.1585   28.7447   16.5313 H         1 ATP535      0.0000 
     39 H          48.3475   26.7065   19.2382 H         1 ATP535      0.0000 
     40 H          47.5924   26.0524   20.7308 H         1 ATP535      0.0000 
     41 H          45.2236   22.5385   18.4027 H         1 ATP535      0.0000 
     42 H          38.2380   26.6349   15.9988 H         1 ATP535      0.0000 
     43 H          39.9718   24.7322   16.2706 H         1 ATP535      0.0000 
@<TRIPOS>BOND
     1    2    1 ar   
     2    3    1 ar   
     3    4    1 ar   
     4    8    1 1    
     5    6    5 ar   
     6    7    5 ar   
     7    8    5 1    
     8   12    5 1    
     9   10    9 ar   
    10   11    9 ar   
    11   12    9 1    
    12   13    9 1    
    13   14   13 1    
    14   15   14 1    
    15   32   14 1    
    16   33   14 1    
    17   16   15 1    
    18   17   15 1    
    19   34   15 1    
    20   21   16 1    
    21   18   17 1    
    22   19   17 1    
    23   35   17 1    
    24   42   18 1    
    25   20   19 1    
    26   21   19 1    
    27   36   19 1    
    28   43   20 1    
    29   22   21 1    
    30   37   21 1    
    31   23   22 1    
    32   31   22 1    
    33   24   23 2    
    34   38   23 1    
    35   25   24 1    
    36   26   25 ar   
    37   31   25 ar   
    38   27   26 1    
    39   28   26 ar   
    40   39   27 1    
    41   40   27 1    
    42   29   28 ar   
    43   30   29 ar   
    44   41   29 1    
    45   31   30 ar   
@<TRIPOS>SUBSTRUCTURE
     1 ATP535      1 GROUP   
@<TRIPOS>SET

