#    Name: 3swz_TOK_3_INTS_M
#    Modification time : Mon Mar 24 18:41:56 2014

@<TRIPOS>MOLECULE
3swz_TOK_3_INTS_M
   67     0     6     0     0
SMALL
NO_CHARGES


@<TRIPOS>ATOM
      1 CA         48.6765   -6.8095   57.6975 C.3       2 GLC5        0.0000 
      2 CA         50.3880   -5.6650   58.4880 C.3       6 GLL5        0.0000 
      3 CA         46.9650   -7.9540   56.9070 C.3       4 GLP5        0.0000 
      4 CA         52.4380   -4.1055   57.4500 C.3       2 GLC5        0.0000 
      5 CA         50.5930   -5.0700   57.0850 C.3       6 GLL5        0.0000 
      6 CA         54.2830   -3.1410   57.8150 C.3       4 GLP5        0.0000 
      7 O          49.3470   -3.3300   57.2885 O.2       1 ALC1        0.0000 
      8 O          49.4820   -4.3910   56.5570 O.2       5 ALL1        0.0000 
      9 O          49.2120   -2.2690   58.0200 O.2       3 ALP1        0.0000 
     10 CA         52.8225   -9.6150   60.6115 C.3       2 GLC5        0.0000 
     11 CA         54.0020   -8.0910   59.8400 C.3       6 GLL5        0.0000 
     12 CA         51.6430  -11.1390   61.3830 C.3       4 GLP5        0.0000 
     13 CA         56.4120   -6.2370   60.0500 C.3       2 GLC5        0.0000 
     14 CA         55.4290   -8.2160   60.3840 C.3       6 GLL5        0.0000 
     15 CA         57.3950   -4.2580   59.7160 C.3       4 GLP5        0.0000 
     16 CA         57.3270   -6.7630   55.6400 C.3       2 GLC5        0.0000 
     17 CA         57.4530   -8.2690   57.2980 C.3       6 GLL5        0.0000 
     18 CA         57.2010   -5.2570   53.9820 C.3       4 GLP5        0.0000 
     19 CA         58.5415  -10.9115   59.4480 C.3       2 GLC5        0.0000 
     20 CA         57.8420   -8.7900   59.5390 C.3       6 GLL5        0.0000 
     21 CA         59.2410  -13.0330   59.3570 C.3       4 GLP5        0.0000 
     22 CA         55.5675  -11.6285   57.9580 C.3       2 GLC5        0.0000 
     23 CA         55.9850  -10.3000   59.1160 C.3       6 GLL5        0.0000 
     24 CA         55.1500  -12.9570   56.8000 C.3       4 GLP5        0.0000 
     25 CA         57.6130  -11.6665   59.2365 C.3       2 GLC5        0.0000 
     26 CA         49.9290   -8.6735   57.3040 C.3       2 GLC5        0.0000 
     27 CA         51.7980   -8.4260   58.0560 C.3       6 GLL5        0.0000 
     28 CA         48.0600   -8.9210   56.5520 C.3       4 GLP5        0.0000 
     29 CA         50.5480   -8.3240   59.8450 C.3       2 GLC5        0.0000 
     30 CA         49.2980   -8.2220   61.6340 C.3       4 GLP5        0.0000 
     31 CA         51.7205   -9.7825   59.7195 C.3       2 GLC5        0.0000 
     32 CA         50.3855   -6.4205   60.5465 C.3       2 GLC5        0.0000 
     33 CA         51.7800   -6.0410   59.0120 C.3       6 GLL5        0.0000 
     34 CA         49.6870   -6.9880   62.3430 C.3       4 GLP5        0.0000 
     35 CA         51.2835   -4.8290   60.4910 C.3       2 GLC5        0.0000 
     36 CA         51.4830   -3.8050   62.2320 C.3       4 GLP5        0.0000 
     37 CA         48.8342   -4.6022   58.5153 C.3       2 GLC5        0.0000 
     38 CA         47.1780   -3.8370   59.2440 C.3       4 GLP5        0.0000 
     39 CA         49.0995   -6.0660   55.7272 C.3       2 GLC5        0.0000 
     40 CA         47.3820   -6.5360   54.8570 C.3       4 GLP5        0.0000 
     41 CA         55.6450   -6.0305   54.9848 C.3       2 GLC5        0.0000 
     42 CA         53.4400   -6.4360   55.8590 C.3       6 GLL5        0.0000 
     43 CA         54.0531   -4.9849   57.0026 C.3       2 GLC5        0.0000 
     44 CA         54.7380   -7.1720   56.1160 C.3       6 GLL5        0.0000 
     45 CA         53.6519   -5.0185   58.1894 C.3       2 GLC5        0.0000 
     46 CA         53.9150   -7.2400   58.5740 C.3       6 GLL5        0.0000 
     47 CA         54.4898   -8.4937   62.1615 C.3       2 GLC5        0.0000 
     48 CA         54.2640   -8.8340   64.2110 C.3       4 GLP5        0.0000 
     49 CA         58.7317   -9.7373   56.8372 C.3       2 GLC5        0.0000 
     50 CA         59.5230  -10.9800   55.8510 C.3       4 GLP5        0.0000 
     51 CA         58.5115  -11.4495   60.7002 C.3       2 GLC5        0.0000 
     52 CA         58.2990   -9.4410   61.8340 C.3       6 GLL5        0.0000 
     53 CA         57.9232   -8.0589   63.1018 C.3       2 GLC5        0.0000 
     54 CA         57.2650  -10.2910   62.2530 C.3       6 GLL5        0.0000 
     55 CA         57.7940   -6.3300   63.9500 C.3       4 GLP5        0.0000 
     56 CA         58.3530   -8.1855   64.0763 C.3       2 GLC5        0.0000 
     57 CA         58.3910  -10.4470   64.4310 C.3       6 GLL5        0.0000 
     58 CA         58.1960   -9.2750   65.8512 C.3       2 GLC5        0.0000 
     59 CA         59.4330   -9.6350   63.9740 C.3       6 GLL5        0.0000 
     60 CA         57.4800   -8.5090   67.5000 C.3       4 GLP5        0.0000 
     61 CA         56.0545   -9.6644   63.9407 C.3       2 GLC5        0.0000 
     62 CA         58.7918  -11.8104   64.7477 C.3       2 GLC5        0.0000 
     63 CA         57.3330  -10.7940   63.5670 C.3       6 GLL5        0.0000 
     64 CA         58.9360  -13.4930   65.5090 C.3       4 GLP5        0.0000 
     65 CA         58.0643   -6.5835   58.6774 C.3       2 GLC5        0.0000 
     66 CA         58.4280   -8.7200   58.3490 C.3       6 GLL5        0.0000 
     67 CA         58.6390   -4.7450   59.0250 C.3       4 GLP5        0.0000 
@<TRIPOS>BOND
@<TRIPOS>SUBSTRUCTURE
     1 ALC1        7 GROUP        1 X    ALC  0     ROOT ALC X 1
     2 GLC5        1 GROUP        1 X    GLC  0     **** GLC X 6
     3 ALP1        9 GROUP        1 Y    ALP  0     ROOT ALP Y 8
     4 GLP5        3 GROUP        1 Y    GLP  0     **** GLP Y 13
     5 ALL1        8 GROUP        1 Z    ALL  0     ROOT ALL Z 15
     6 GLL5        2 GROUP        1 Z    GLL  0     **** GLL Z 20
@<TRIPOS>SET

