#    Name: 3swz_TOK_3_ligand
#    Modification time : Mon Mar 24 18:41:56 2014

@<TRIPOS>MOLECULE
3swz_TOK_3_ligand
   61    66     1     0     0
SMALL
NO_CHARGES


@<TRIPOS>ATOM
      1 C1         51.7800   -6.0410   59.0120 C.3       1 TOK601      0.0000 
      2 C2         50.3880   -5.6650   58.4880 C.3       1 TOK601      0.0000 
      3 C3         50.5930   -5.0700   57.0850 C.3       1 TOK601      0.0000 
      4 O3         49.4820   -4.3910   56.5570 O.3       1 TOK601      0.0000 
      5 C4         51.0410   -6.1220   56.1100 C.3       1 TOK601      0.0000 
      6 C5         52.3770   -6.5350   56.6700 C.2       1 TOK601      0.0000 
      7 C6         53.4400   -6.4360   55.8590 C.2       1 TOK601      0.0000 
      8 C7         54.7380   -7.1720   56.1160 C.3       1 TOK601      0.0000 
      9 C8         54.8290   -7.8390   57.5090 C.3       1 TOK601      0.0000 
     10 C9         53.9150   -7.2400   58.5740 C.3       1 TOK601      0.0000 
     11 C10        52.4730   -7.0630   58.0950 C.3       1 TOK601      0.0000 
     12 C11        54.0020   -8.0910   59.8400 C.3       1 TOK601      0.0000 
     13 C12        55.4290   -8.2160   60.3840 C.3       1 TOK601      0.0000 
     14 C13        56.3430   -8.8320   59.3460 C.3       1 TOK601      0.0000 
     15 C14        56.2350   -7.9090   58.1330 C.3       1 TOK601      0.0000 
     16 C15        57.4530   -8.2690   57.2980 C.3       1 TOK601      0.0000 
     17 C16        58.4280   -8.7200   58.3490 C.2       1 TOK601      0.0000 
     18 C17        57.8420   -8.7900   59.5390 C.2       1 TOK601      0.0000 
     19 C18        55.9850  -10.3000   59.1160 C.3       1 TOK601      0.0000 
     20 C19        51.7980   -8.4260   58.0560 C.3       1 TOK601      0.0000 
     21 N48        58.5990   -8.7940   60.7240 N.pl3     1 TOK601      0.0000 
     22 C49        58.2990   -9.4410   61.8340 C.ar      1 TOK601      0.0000 
     23 C50        59.3810   -9.1280   62.6740 C.ar      1 TOK601      0.0000 
     24 N51        60.2240   -8.3090   62.0140 N.2       1 TOK601      0.0000 
     25 C52        59.7380   -8.0920   60.8100 C.2       1 TOK601      0.0000 
     26 C53        57.2650  -10.2910   62.2530 C.ar      1 TOK601      0.0000 
     27 C54        57.3330  -10.7940   63.5670 C.ar      1 TOK601      0.0000 
     28 C55        58.3910  -10.4470   64.4310 C.ar      1 TOK601      0.0000 
     29 C56        59.4330   -9.6350   63.9740 C.ar      1 TOK601      0.0000 
     30 H          51.6840   -6.4671   60.0109 H         1 TOK601      0.0000 
     31 H          52.3950   -5.1428   59.0724 H         1 TOK601      0.0000 
     32 H          49.9504   -4.9280   59.1275 H         1 TOK601      0.0000 
     33 H          49.7813   -6.5429   58.4180 H         1 TOK601      0.0000 
     34 H          51.4565   -4.3575   57.1759 H         1 TOK601      0.0000 
     35 H          51.1660   -5.6985   55.1459 H         1 TOK601      0.0000 
     36 H          50.3710   -6.9438   56.1243 H         1 TOK601      0.0000 
     37 H          53.4453   -5.8494   55.0018 H         1 TOK601      0.0000 
     38 H          55.5851   -6.4720   56.0131 H         1 TOK601      0.0000 
     39 H          54.8759   -7.9542   55.3496 H         1 TOK601      0.0000 
     40 H          54.4990   -8.9081   57.3949 H         1 TOK601      0.0000 
     41 H          54.3155   -6.2440   58.8270 H         1 TOK601      0.0000 
     42 H          53.6138   -9.0955   59.6249 H         1 TOK601      0.0000 
     43 H          53.3631   -7.6477   60.6153 H         1 TOK601      0.0000 
     44 H          55.4140   -8.8400   61.2762 H         1 TOK601      0.0000 
     45 H          55.7934   -7.2255   60.6521 H         1 TOK601      0.0000 
     46 H          56.4674   -6.8774   58.5681 H         1 TOK601      0.0000 
     47 H          57.8148   -7.4071   56.8045 H         1 TOK601      0.0000 
     48 H          57.2162   -9.0676   56.6473 H         1 TOK601      0.0000 
     49 H          59.3349   -8.9095   58.0980 H         1 TOK601      0.0000 
     50 H          60.1150   -7.5404   60.1169 H         1 TOK601      0.0000 
     51 H          56.5048  -10.5332   61.6424 H         1 TOK601      0.0000 
     52 H          56.5934  -11.4294   63.9041 H         1 TOK601      0.0000 
     53 H          58.3917  -10.7934   65.3957 H         1 TOK601      0.0000 
     54 H          60.2215   -9.4159   64.5834 H         1 TOK601      0.0000 
     55 H          56.5762  -10.7233   58.4294 H         1 TOK601      0.0000 
     56 H          56.0749  -10.8397   59.9530 H         1 TOK601      0.0000 
     57 H          55.0430  -10.4071   58.7979 H         1 TOK601      0.0000 
     58 H          52.2798   -9.0619   57.4532 H         1 TOK601      0.0000 
     59 H          51.7635   -8.8494   58.9613 H         1 TOK601      0.0000 
     60 H          50.8564   -8.3648   57.7250 H         1 TOK601      0.0000 
     61 H          49.6689   -3.4224   56.7209 H         1 TOK601      0.0000 
@<TRIPOS>BOND
     1    2    1 1    
     2   11    1 1    
     3   30    1 1    
     4   31    1 1    
     5    3    2 1    
     6   32    2 1    
     7   33    2 1    
     8    4    3 1    
     9    5    3 1    
    10   34    3 1    
    11   61    4 1    
    12    6    5 1    
    13   35    5 1    
    14   36    5 1    
    15    7    6 2    
    16   11    6 1    
    17    8    7 1    
    18   37    7 1    
    19    9    8 1    
    20   38    8 1    
    21   39    8 1    
    22   10    9 1    
    23   15    9 1    
    24   40    9 1    
    25   11   10 1    
    26   12   10 1    
    27   41   10 1    
    28   20   11 1    
    29   13   12 1    
    30   42   12 1    
    31   43   12 1    
    32   14   13 1    
    33   44   13 1    
    34   45   13 1    
    35   15   14 1    
    36   18   14 1    
    37   19   14 1    
    38   16   15 1    
    39   46   15 1    
    40   17   16 1    
    41   47   16 1    
    42   48   16 1    
    43   18   17 2    
    44   49   17 1    
    45   21   18 1    
    46   55   19 1    
    47   56   19 1    
    48   57   19 1    
    49   58   20 1    
    50   59   20 1    
    51   60   20 1    
    52   22   21 1    
    53   25   21 1    
    54   23   22 ar   
    55   26   22 ar   
    56   24   23 1    
    57   29   23 ar   
    58   25   24 2    
    59   50   25 1    
    60   27   26 ar   
    61   51   26 1    
    62   28   27 ar   
    63   52   27 1    
    64   29   28 ar   
    65   53   28 1    
    66   54   29 1    
@<TRIPOS>SUBSTRUCTURE
     1 TOK601      1 GROUP   
@<TRIPOS>SET

