#    Name: 3qof_GDP_3_INTS_M
#    Modification time : Tue Mar 25 09:58:35 2014

@<TRIPOS>MOLECULE
3qof_GDP_3_INTS_M
   61     0    15     0     0
SMALL
NO_CHARGES


@<TRIPOS>ATOM
      1 NZ          5.9175  -27.9370   -7.1820 N.4       3 LYC4        0.0000 
      2 NZ          4.5180  -28.5170   -7.0100 N.4      13 LYL4        0.0000 
      3 NZ          7.3170  -27.3570   -7.3540 N.4       8 LYP4        0.0000 
      4 N           3.8985  -28.8945   -5.8280 N.am      2 SEC2        0.0000 
      5 N           4.5180  -28.5170   -7.0100 N.am     12 SEL2        0.0000 
      6 N           3.2790  -29.2720   -4.6460 N.am      7 SEP2        0.0000 
      7 N           4.0315  -27.5415   -6.2035 N.am      2 SEC2        0.0000 
      8 N           3.5450  -26.5660   -5.3970 N.am      7 SEP2        0.0000 
      9 N           5.9175  -27.9370   -7.1820 N.am      2 SEC2        0.0000 
     10 N           7.3170  -27.3570   -7.3540 N.am      7 SEP2        0.0000 
     11 NZ          5.5875  -27.2280   -8.1725 N.4       3 LYC4        0.0000 
     12 NZ          3.8580  -27.0990   -8.9910 N.4      13 LYL4        0.0000 
     13 Zn          4.5460  -26.3940   -9.8870 Zn        4 ZIC7        0.0000 
     14 Zn          3.8580  -27.0990   -8.9910 Zn       14 ZIL7        0.0000 
     15 Zn          5.2340  -25.6890  -10.7830 Zn        9 ZIP7        0.0000 
     16 N           3.1820  -26.0595   -8.1970 N.am      2 SEC2        0.0000 
     17 N           3.8580  -27.0990   -8.9910 N.am     12 SEL2        0.0000 
     18 N           2.5060  -25.0200   -7.4030 N.am      7 SEP2        0.0000 
     19 NZ          6.5050  -27.9860   -8.2530 N.4       3 LYC4        0.0000 
     20 NZ          5.6930  -28.6150   -9.1520 N.4      13 LYL4        0.0000 
     21 N           6.1205  -30.1035   -8.5250 N.am      2 SEC2        0.0000 
     22 N           5.6930  -28.6150   -9.1520 N.am     12 SEL2        0.0000 
     23 N           6.5480  -31.5920   -7.8980 N.am      7 SEP2        0.0000 
     24 N           2.2430  -26.7315   -7.2670 N.am      2 SEC2        0.0000 
     25 N           1.9800  -28.4430   -7.1310 N.am     12 SEL2        0.0000 
     26 CA          3.3020  -31.7525   -7.0235 C.3       5 GLC5        0.0000 
     27 CA          1.2020  -31.1670   -6.6920 C.3      15 GLL5        0.0000 
     28 CA          5.4020  -32.3380   -7.3550 C.3      10 GLP5        0.0000 
     29 CA          1.6910  -29.7545   -5.5720 C.3       5 GLC5        0.0000 
     30 CA          2.1800  -28.3420   -4.4520 C.3      10 GLP5        0.0000 
     31 O          -3.0725  -33.6560   -7.7660 O.2       1 ALC1        0.0000 
     32 O          -1.6970  -33.0640   -7.6970 O.2      11 ALL1        0.0000 
     33 O          -4.4480  -34.2480   -7.8350 O.2       6 ALP1        0.0000 
     34 O          -3.8040  -32.8060   -5.3335 O.2       1 ALC1        0.0000 
     35 O          -3.2830  -31.9640   -6.1480 O.2      11 ALL1        0.0000 
     36 O          -4.3250  -33.6480   -4.5190 O.2       6 ALP1        0.0000 
     37 CA         -2.1805  -33.6620   -3.6400 C.3       5 GLC5        0.0000 
     38 CA         -1.2710  -32.1630   -4.7570 C.3      15 GLL5        0.0000 
     39 CA         -3.0900  -35.1610   -2.5230 C.3      10 GLP5        0.0000 
     40 CA          0.8225  -29.3060   -3.0730 C.3       5 GLC5        0.0000 
     41 CA         -0.5350  -30.2700   -1.6940 C.3      15 GLL5        0.0000 
     42 N           1.0270  -28.1965    0.4645 N.am      2 SEC2        0.0000 
     43 N           0.0310  -29.3720    0.4480 N.am     12 SEL2        0.0000 
     44 N           2.0230  -27.0210    0.4810 N.am      7 SEP2        0.0000 
     45 N           0.4290  -28.0805   -0.5110 N.am      2 SEC2        0.0000 
     46 N           0.8270  -26.7890   -1.4700 N.am      7 SEP2        0.0000 
     47 O           0.4140  -31.8430    1.3445 O.2       1 ALC1        0.0000 
     48 O           0.2280  -31.5860    0.1600 O.2      11 ALL1        0.0000 
     49 O           0.6000  -32.1000    2.5290 O.2       6 ALP1        0.0000 
     50 O           1.2270  -32.4720    0.9660 O.2       1 ALC1        0.0000 
     51 O           2.2260  -33.3580    1.7720 O.2       6 ALP1        0.0000 
     52 O           0.5305  -32.9850    1.2480 O.2       1 ALC1        0.0000 
     53 O           0.4610  -33.8700   -0.0330 O.2      11 ALL1        0.0000 
     54 O           1.3435  -33.6140    0.8695 O.2       1 ALC1        0.0000 
     55 CA         -1.8565  -33.3395   -2.4925 C.3       5 GLC5        0.0000 
     56 CA         -0.6230  -31.5180   -2.4620 C.3      15 GLL5        0.0000 
     57 CA         -3.1463  -31.4465   -4.0535 C.3       5 GLC5        0.0000 
     58 CA         -4.6840  -31.0640   -2.7550 C.3      10 GLP5        0.0000 
     59 CA         -1.7645  -30.9940   -0.7710 C.3       5 GLC5        0.0000 
     60 CA         -2.9500  -31.0940    0.5360 C.3      10 GLP5        0.0000 
     61 CA         -2.6315  -30.9790   -2.4165 C.3       5 GLC5        0.0000 
@<TRIPOS>BOND
@<TRIPOS>SUBSTRUCTURE
     1 ALC1       31 GROUP        1 X    ALC  0     ROOT ALC X 1
     2 SEC2        4 GROUP        1 X    SEC  0     **** SEC X 2
     3 LYC4        1 GROUP        1 X    LYC  0     **** LYC X 4
     4 ZIC7       13 GROUP        1 X    ZIC  0     **** ZIC X 5
     5 GLC5       26 GROUP        1 X    GLC  0     **** GLC X 6
     6 ALP1       33 GROUP        1 Y    ALP  0     ROOT ALP Y 8
     7 SEP2        6 GROUP        1 Y    SEP  0     **** SEP Y 9
     8 LYP4        3 GROUP        1 Y    LYP  0     **** LYP Y 11
     9 ZIP7       15 GROUP        1 Y    ZIP  0     **** ZIP Y 12
    10 GLP5       28 GROUP        1 Y    GLP  0     **** GLP Y 13
    11 ALL1       32 GROUP        1 Z    ALL  0     ROOT ALL Z 15
    12 SEL2        5 GROUP        1 Z    SEL  0     **** SEL Z 16
    13 LYL4        2 GROUP        1 Z    LYL  0     **** LYL Z 18
    14 ZIL7       14 GROUP        1 Z    ZIL  0     **** ZIL Z 19
    15 GLL5       27 GROUP        1 Z    GLL  0     **** GLL Z 20
@<TRIPOS>SET

