#    Name: 3qof_GDP_3_ligand
#    Modification time : Tue Mar 25 09:58:35 2014

@<TRIPOS>MOLECULE
3qof_GDP_3_ligand
   40    42     1     0     0
SMALL
NO_CHARGES


@<TRIPOS>ATOM
      1 PB          4.3440  -28.4360   -8.5000 P.3       1 GDP593      0.0000 
      2 O1B         4.5180  -28.5170   -7.0100 O.co2     1 GDP593      0.0000 
      3 O2B         3.8580  -27.0990   -8.9910 O.co2     1 GDP593      0.0000 
      4 O3B         5.6930  -28.6150   -9.1520 O.co2     1 GDP593      0.0000 
      5 O3A         3.2120  -29.4470   -9.0310 O.3       1 GDP593      0.0000 
      6 PA          1.7640  -29.2680   -8.3640 P.3       1 GDP593      0.0000 
      7 O1A         1.9800  -28.4430   -7.1310 O.co2     1 GDP593      0.0000 
      8 O2A         0.8110  -28.5930   -9.3030 O.co2     1 GDP593      0.0000 
      9 O5'         1.2240  -30.7400   -8.0410 O.3       1 GDP593      0.0000 
     10 C5'         1.2020  -31.1670   -6.6920 C.3       1 GDP593      0.0000 
     11 C4'         0.2220  -32.3040   -6.5580 C.3       1 GDP593      0.0000 
     12 O4'         0.0340  -32.5320   -5.1710 O.3       1 GDP593      0.0000 
     13 C3'        -1.1100  -31.9000   -7.1310 C.3       1 GDP593      0.0000 
     14 O3'        -1.6970  -33.0640   -7.6970 O.3       1 GDP593      0.0000 
     15 C2'        -1.9460  -31.4950   -5.9470 C.3       1 GDP593      0.0000 
     16 O2'        -3.2830  -31.9640   -6.1480 O.3       1 GDP593      0.0000 
     17 C1'        -1.2710  -32.1630   -4.7570 C.3       1 GDP593      0.0000 
     18 N9         -1.0630  -31.1920   -3.6650 N.pl3     1 GDP593      0.0000 
     19 C8         -1.2330  -29.8560   -3.7140 C.2       1 GDP593      0.0000 
     20 N7         -0.9240  -29.2820   -2.5190 N.2       1 GDP593      0.0000 
     21 C5         -0.5350  -30.2700   -1.6940 C.2       1 GDP593      0.0000 
     22 C6         -0.0730  -30.3730   -0.2950 C.2       1 GDP593      0.0000 
     23 O6          0.0310  -29.3720    0.4480 O.2       1 GDP593      0.0000 
     24 N1          0.2280  -31.5860    0.1600 N.am      1 GDP593      0.0000 
     25 C2          0.1300  -32.6900   -0.5950 C.2       1 GDP593      0.0000 
     26 N2          0.4610  -33.8700   -0.0330 N.pl3     1 GDP593      0.0000 
     27 N3         -0.2850  -32.6790   -1.8820 N.2       1 GDP593      0.0000 
     28 C4         -0.6230  -31.5180   -2.4620 C.2       1 GDP593      0.0000 
     29 H           0.8882  -30.3644   -6.0148 H         1 GDP593      0.0000 
     30 H           2.1843  -31.5223   -6.3602 H         1 GDP593      0.0000 
     31 H           0.5880  -33.1558   -7.0578 H         1 GDP593      0.0000 
     32 H          -1.0004  -31.1132   -7.7890 H         1 GDP593      0.0000 
     33 H          -1.8825  -30.4434   -5.8332 H         1 GDP593      0.0000 
     34 H          -1.8325  -32.9834   -4.4346 H         1 GDP593      0.0000 
     35 H          -1.5379  -29.3575   -4.5008 H         1 GDP593      0.0000 
     36 H           0.5617  -31.6900    1.1666 H         1 GDP593      0.0000 
     37 H           0.3258  -34.6815   -0.6015 H         1 GDP593      0.0000 
     38 H           0.8123  -33.8287    0.9024 H         1 GDP593      0.0000 
     39 H          -2.6638  -33.0142   -7.4464 H         1 GDP593      0.0000 
     40 H          -3.4423  -32.6167   -5.4073 H         1 GDP593      0.0000 
@<TRIPOS>BOND
     1    2    1 ar   
     2    3    1 ar   
     3    4    1 ar   
     4    5    1 1    
     5    6    5 1    
     6    7    6 ar   
     7    8    6 ar   
     8    9    6 1    
     9   10    9 1    
    10   11   10 1    
    11   29   10 1    
    12   30   10 1    
    13   12   11 1    
    14   13   11 1    
    15   31   11 1    
    16   17   12 1    
    17   14   13 1    
    18   15   13 1    
    19   32   13 1    
    20   39   14 1    
    21   16   15 1    
    22   17   15 1    
    23   33   15 1    
    24   40   16 1    
    25   18   17 1    
    26   34   17 1    
    27   19   18 1    
    28   28   18 1    
    29   20   19 2    
    30   35   19 1    
    31   21   20 1    
    32   22   21 1    
    33   28   21 2    
    34   23   22 2    
    35   24   22 am   
    36   25   24 1    
    37   36   24 1    
    38   26   25 1    
    39   27   25 2    
    40   37   26 1    
    41   38   26 1    
    42   28   27 1    
@<TRIPOS>SUBSTRUCTURE
     1 GDP593      1 GROUP   
@<TRIPOS>SET

