#    Name: 4ftk_H9K_1_INTS_M
#    Modification time : Mon Mar 24 20:44:51 2014

@<TRIPOS>MOLECULE
4ftk_H9K_1_INTS_M
   70     0     9     0     0
SMALL
NO_CHARGES


@<TRIPOS>ATOM
      1 CA         20.6480   -5.3500   12.7455 C.3       3 GLC5        0.0000 
      2 CA         20.2510   -5.6910   10.7850 C.3       9 GLL5        0.0000 
      3 CA         21.0450   -5.0090   14.7060 C.3       6 GLP5        0.0000 
      4 CA         19.8145   -4.7295    7.2940 C.3       3 GLC5        0.0000 
      5 CA         20.5250   -3.6830    8.8990 C.3       9 GLL5        0.0000 
      6 CA         19.1040   -5.7760    5.6890 C.3       6 GLP5        0.0000 
      7 N          17.2915   -0.8810    8.2340 N.am      2 SEC2        0.0000 
      8 N          17.3520   -2.3130    8.6710 N.am      8 SEL2        0.0000 
      9 N          17.2310    0.5510    7.7970 N.am      5 SEP2        0.0000 
     10 CA         16.2305   -4.4275    7.9865 C.3       3 GLC5        0.0000 
     11 CA         15.7870   -3.4880    9.8160 C.3       9 GLL5        0.0000 
     12 CA         16.6740   -5.3670    6.1570 C.3       6 GLP5        0.0000 
     13 CA         13.0490   -6.7965   11.0195 C.3       3 GLC5        0.0000 
     14 CA         13.1320   -5.0120   12.0050 C.3       9 GLL5        0.0000 
     15 CA         12.9660   -8.5810   10.0340 C.3       6 GLP5        0.0000 
     16 CA         11.0050   -1.1800   12.3185 C.3       3 GLC5        0.0000 
     17 CA         10.2440   -2.9560   13.2670 C.3       9 GLL5        0.0000 
     18 CA         11.7660    0.5960   11.3700 C.3       6 GLP5        0.0000 
     19 CA          8.3600   -2.3610   12.1730 C.3       3 GLC5        0.0000 
     20 CA          8.9900   -3.0270   13.8440 C.3       9 GLL5        0.0000 
     21 CA          7.7300   -1.6950   10.5020 C.3       6 GLP5        0.0000 
     22 CA          7.7985   -4.0245   16.2390 C.3       3 GLC5        0.0000 
     23 CA          8.4370   -4.2620   14.1410 C.3       9 GLL5        0.0000 
     24 CA          7.1600   -3.7870   18.3370 C.3       6 GLP5        0.0000 
     25 N           6.1250   -3.4620   14.4200 N.am      2 SEC2        0.0000 
     26 N           7.2270   -4.3570   14.7630 N.am      8 SEL2        0.0000 
     27 N           5.0230   -2.5670   14.0770 N.am      5 SEP2        0.0000 
     28 N           7.7515   -4.2285   16.1110 N.am      2 SEC2        0.0000 
     29 N           8.2760   -4.1000   17.4590 N.am      5 SEP2        0.0000 
     30 O           6.8690   -5.6985   14.7575 O.2       1 ALC1        0.0000 
     31 O           7.2270   -4.3570   14.7630 O.2       7 ALL1        0.0000 
     32 O           6.5110   -7.0400   14.7520 O.2       4 ALP1        0.0000 
     33 CA         21.6845   -3.6898   10.8755 C.3       3 GLC5        0.0000 
     34 CA         22.4960   -1.8190   11.2440 C.3       6 GLP5        0.0000 
     35 CA         18.6899   -5.8758    8.7419 C.3       3 GLC5        0.0000 
     36 CA         19.2650   -3.9600    9.4340 C.3       9 GLL5        0.0000 
     37 CA         17.9020   -7.1030    7.4780 C.3       6 GLP5        0.0000 
     38 CA         21.3337   -2.9131   10.2529 C.3       3 GLC5        0.0000 
     39 CA         17.6193   -5.8812    8.9170 C.3       3 GLC5        0.0000 
     40 CA         17.6810   -5.1940   10.6990 C.3       9 GLL5        0.0000 
     41 CA         16.7987   -3.2527   11.5235 C.3       3 GLC5        0.0000 
     42 CA         16.2610   -1.8460   12.6910 C.3       6 GLP5        0.0000 
     43 CA         13.8099   -3.3221    8.4914 C.3       3 GLC5        0.0000 
     44 CA         14.4960   -3.7190   10.4930 C.3       9 GLL5        0.0000 
     45 CA         13.3050   -3.4590    6.6820 C.3       6 GLP5        0.0000 
     46 CA         12.3382   -1.1255   11.0930 C.3       3 GLC5        0.0000 
     47 CA         13.4880   -2.7670   10.4470 C.3       9 GLL5        0.0000 
     48 CA         11.2233   -2.3480    9.7800 C.3       3 GLC5        0.0000 
     49 CA         12.3330   -2.9270   11.1850 C.3       9 GLL5        0.0000 
     50 CA          9.5360   -1.8490    8.7440 C.3       6 GLP5        0.0000 
     51 CA         14.5858   -2.3465   11.7535 C.3       3 GLC5        0.0000 
     52 CA         12.8515   -2.6242   13.4115 C.3       3 GLC5        0.0000 
     53 CA         13.4710   -1.7660   15.2310 C.3       6 GLP5        0.0000 
     54 CA         14.3986   -5.7184    9.4859 C.3       3 GLC5        0.0000 
     55 CA         14.2910   -4.8600   11.2650 C.3       9 GLL5        0.0000 
     56 CA         14.0810   -7.2050    8.2620 C.3       6 GLP5        0.0000 
     57 CA         15.4886   -3.0389   11.7004 C.3       3 GLC5        0.0000 
     58 CA         12.0398   -2.6485   14.1675 C.3       3 GLC5        0.0000 
     59 CA         10.9730   -4.1060   12.9410 C.3       9 GLL5        0.0000 
     60 CA         10.5793   -4.0610   14.9800 C.3       3 GLC5        0.0000 
     61 CA         10.5500   -4.5910   16.8560 C.3       6 GLP5        0.0000 
     62 CA          9.8430   -3.7090   11.4232 C.3       3 GLC5        0.0000 
     63 CA          8.7880   -3.9040    9.9780 C.3       6 GLP5        0.0000 
     64 CA          9.6318   -4.1178   15.4243 C.3       3 GLC5        0.0000 
     65 CA          9.1952   -6.7882   12.5683 C.3       3 GLC5        0.0000 
     66 CA          9.1610   -5.4160   13.8850 C.3       9 GLL5        0.0000 
     67 CA          8.6030   -8.2020   11.5440 C.3       6 GLP5        0.0000 
     68 CA         10.1687   -4.9828   15.2243 C.3       3 GLC5        0.0000 
     69 CA         10.4140   -5.3330   13.3000 C.3       9 GLL5        0.0000 
     70 CA          8.9501   -4.3611   11.9224 C.3       3 GLC5        0.0000 
@<TRIPOS>BOND
@<TRIPOS>SUBSTRUCTURE
     1 ALC1       30 GROUP        1 X    ALC  0     ROOT ALC X 1
     2 SEC2        7 GROUP        1 X    SEC  0     **** SEC X 2
     3 GLC5        1 GROUP        1 X    GLC  0     **** GLC X 6
     4 ALP1       32 GROUP        1 Y    ALP  0     ROOT ALP Y 8
     5 SEP2        9 GROUP        1 Y    SEP  0     **** SEP Y 9
     6 GLP5        3 GROUP        1 Y    GLP  0     **** GLP Y 13
     7 ALL1       31 GROUP        1 Z    ALL  0     ROOT ALL Z 15
     8 SEL2        8 GROUP        1 Z    SEL  0     **** SEL Z 16
     9 GLL5        2 GROUP        1 Z    GLL  0     **** GLL Z 20
@<TRIPOS>SET

