#    Name: 4ftk_H9K_1_ligand
#    Modification time : Mon Mar 24 20:44:51 2014

@<TRIPOS>MOLECULE
4ftk_H9K_1_ligand
   42    46     1     0     0
SMALL
NO_CHARGES


@<TRIPOS>ATOM
      1 O2         22.5800   -6.1860   10.5860 O.3       1 H9K301      0.0000 
      2 C19        21.4950   -5.4300   10.2290 C.ar      1 H9K301      0.0000 
      3 C18        20.2510   -5.6910   10.7850 C.ar      1 H9K301      0.0000 
      4 C20        21.6310   -4.4260    9.2800 C.ar      1 H9K301      0.0000 
      5 C21        20.5250   -3.6830    8.8990 C.ar      1 H9K301      0.0000 
      6 C22        19.2650   -3.9600    9.4340 C.ar      1 H9K301      0.0000 
      7 C14        17.9490   -3.3520    9.2690 C.2       1 H9K301      0.0000 
      8 N2         17.3520   -2.3130    8.6710 N.2       1 H9K301      0.0000 
      9 N1         16.0300   -2.4230    9.0200 N.pl3     1 H9K301      0.0000 
     10 C17        19.1300   -4.9830   10.3700 C.ar      1 H9K301      0.0000 
     11 C16        17.6810   -5.1940   10.6990 C.3       1 H9K301      0.0000 
     12 C15        16.9920   -4.1250   10.0130 C.2       1 H9K301      0.0000 
     13 C13        15.7870   -3.4880    9.8160 C.2       1 H9K301      0.0000 
     14 C10        14.4960   -3.7190   10.4930 C.ar      1 H9K301      0.0000 
     15 C9         13.4880   -2.7670   10.4470 C.ar      1 H9K301      0.0000 
     16 C8         12.3330   -2.9270   11.1850 C.ar      1 H9K301      0.0000 
     17 C11        14.2910   -4.8600   11.2650 C.ar      1 H9K301      0.0000 
     18 C12        13.1320   -5.0120   12.0050 C.ar      1 H9K301      0.0000 
     19 C7         12.1310   -4.0380   11.9990 C.ar      1 H9K301      0.0000 
     20 C4         10.9730   -4.1060   12.9410 C.ar      1 H9K301      0.0000 
     21 C3         10.2440   -2.9560   13.2670 C.ar      1 H9K301      0.0000 
     22 C2          8.9900   -3.0270   13.8440 C.ar      1 H9K301      0.0000 
     23 C5         10.4140   -5.3330   13.3000 C.ar      1 H9K301      0.0000 
     24 C6          9.1610   -5.4160   13.8850 C.ar      1 H9K301      0.0000 
     25 C1          8.4370   -4.2620   14.1410 C.ar      1 H9K301      0.0000 
     26 O1          7.2270   -4.3570   14.7630 O.3       1 H9K301      0.0000 
     27 H          20.1566   -6.4172   11.5132 H         1 H9K301      0.0000 
     28 H          22.5506   -4.2349    8.8614 H         1 H9K301      0.0000 
     29 H          20.6283   -2.9176    8.2145 H         1 H9K301      0.0000 
     30 H          15.3372   -1.7859    8.7163 H         1 H9K301      0.0000 
     31 H          17.5477   -5.1278   11.7649 H         1 H9K301      0.0000 
     32 H          17.3729   -6.1585   10.3342 H         1 H9K301      0.0000 
     33 H          13.6067   -1.9282    9.8513 H         1 H9K301      0.0000 
     34 H          11.5886   -2.1991   11.1351 H         1 H9K301      0.0000 
     35 H          15.0144   -5.5981   11.2825 H         1 H9K301      0.0000 
     36 H          12.9980   -5.8669   12.5793 H         1 H9K301      0.0000 
     37 H          10.6647   -2.0252   13.0662 H         1 H9K301      0.0000 
     38 H           8.4672   -2.1653   14.0531 H         1 H9K301      0.0000 
     39 H          10.9541   -6.2032   13.1225 H         1 H9K301      0.0000 
     40 H           8.7668   -6.3356   14.1300 H         1 H9K301      0.0000 
     41 H          23.0369   -5.6602   11.3035 H         1 H9K301      0.0000 
     42 H           6.7747   -5.1373   14.3311 H         1 H9K301      0.0000 
@<TRIPOS>BOND
     1    2    1 1    
     2   41    1 1    
     3    3    2 ar   
     4    4    2 ar   
     5   10    3 ar   
     6   27    3 1    
     7    5    4 ar   
     8   28    4 1    
     9    6    5 ar   
    10   29    5 1    
    11    7    6 1    
    12   10    6 ar   
    13    8    7 2    
    14   12    7 1    
    15    9    8 1    
    16   13    9 1    
    17   30    9 1    
    18   11   10 1    
    19   12   11 1    
    20   31   11 1    
    21   32   11 1    
    22   13   12 2    
    23   14   13 1    
    24   15   14 ar   
    25   17   14 ar   
    26   16   15 ar   
    27   33   15 1    
    28   19   16 ar   
    29   34   16 1    
    30   18   17 ar   
    31   35   17 1    
    32   19   18 ar   
    33   36   18 1    
    34   20   19 1    
    35   21   20 ar   
    36   23   20 ar   
    37   22   21 ar   
    38   37   21 1    
    39   25   22 ar   
    40   38   22 1    
    41   24   23 ar   
    42   39   23 1    
    43   25   24 ar   
    44   40   24 1    
    45   26   25 1    
    46   42   26 1    
@<TRIPOS>SUBSTRUCTURE
     1 H9K301      1 GROUP   
@<TRIPOS>SET

