#    Name: 1TGV_1_CAVITY_N1_6.mol2
#    Modification time : Tue Mar 11 11:01:14 2014

@<TRIPOS>MOLECULE
1TGV_1_CAVITY_N1_6.mol2
   88     0     7     0     0
SMALL
NO_CHARGES


@<TRIPOS>ATOM
      1 CA         56.7182   28.0507   24.5911 C.3       6 GLY6        0.0000 
      2 CA         53.1472   25.8094   25.0648 C.3       6 GLY6        0.0000 
      3 O          56.7468   30.1155   25.0766 O.2       2 ALA2        0.0000 
      4 CA         54.2111   26.4830   26.7720 C.3       6 GLY6        0.0000 
      5 O          54.5862   27.7389   26.0427 O.2       2 ALA2        0.0000 
      6 O          54.9613   28.9949   25.3134 O.2       2 ALA2        0.0000 
      7 CA         52.4255   25.3623   27.0089 C.3       6 GLY6        0.0000 
      8 CA         52.8007   26.6183   26.2796 C.3       6 GLY6        0.0000 
      9 DU         53.1758   27.8742   25.5503 H         7 CUB7        0.0000 
     10 CA         50.6400   24.2417   27.2457 C.3       6 GLY6        0.0000 
     11 CZ         51.0151   25.4977   26.5164 C.ar      5 PHE5        0.0000 
     12 CA         54.8998   25.9006   29.2085 C.3       6 GLY6        0.0000 
     13 CA         53.4894   26.0359   28.7161 C.3       6 GLY6        0.0000 
     14 O          53.8645   27.2919   27.9868 O.2       2 ALA2        0.0000 
     15 CZ         52.0790   26.1712   28.2236 C.ar      5 PHE5        0.0000 
     16 CZ         52.4541   27.4272   27.4943 C.ar      5 PHE5        0.0000 
     17 O          52.8293   28.6831   26.7650 O.2       2 ALA2        0.0000 
     18 O          53.2044   29.9391   26.0358 O.2       2 ALA2        0.0000 
     19 O          55.5885   25.3182   31.6450 O.2       2 ALA2        0.0000 
     20 O          55.9637   26.5741   30.9157 O.2       2 ALA2        0.0000 
     21 CA         54.1781   25.4535   31.1525 C.3       6 GLY6        0.0000 
     22 CZ         54.5533   26.7095   30.4233 C.ar      5 PHE5        0.0000 
     23 CZ         53.1429   26.8448   29.9308 C.ar      5 PHE5        0.0000 
     24 CA         50.2320   21.9563   32.3556 C.3       6 GLY6        0.0000 
     25 CZ         52.4828   29.4920   27.9798 C.ar      5 PHE5        0.0000 
     26 CZ         52.8579   30.7479   27.2505 C.ar      5 PHE5        0.0000 
     27 N          56.6524   25.9917   33.3522 N.2       2 ALA2        0.0000 
     28 N          57.0275   27.2477   32.6229 N.2       2 ALA2        0.0000 
     29 N          55.2420   26.1271   32.8597 N.2       2 ALA2        0.0000 
     30 CZ         55.6172   27.3830   32.1304 C.ar      5 PHE5        0.0000 
     31 CZ         53.8316   26.2624   32.3673 C.ar      5 PHE5        0.0000 
     32 CA         52.0461   25.1418   32.6042 C.3       6 GLY6        0.0000 
     33 CZ         52.4212   26.3977   31.8749 C.ar      5 PHE5        0.0000 
     34 CA         49.8854   22.7652   33.5703 C.3       6 GLY6        0.0000 
     35 OG         50.2606   24.0211   32.8410 O.2       1 SER1        0.0000 
     36 CZ         50.6357   25.2771   32.1117 C.ar      5 PHE5        0.0000 
     37 CZ         48.8502   24.1565   32.3486 C.ar      5 PHE5        0.0000 
     38 CZ         47.8149   25.5477   31.1269 C.ar      5 PHE5        0.0000 
     39 CA         56.3059   26.8006   34.5669 C.3       6 GLY6        0.0000 
     40 O          56.6810   28.0566   33.8376 O.2       2 ALA2        0.0000 
     41 N          54.5204   25.6800   34.8038 N.2       2 ALA2        0.0000 
     42 CZ         54.8955   26.9359   34.0745 C.ar      5 PHE5        0.0000 
     43 CZ         55.2706   28.1919   33.3452 C.ar      5 PHE5        0.0000 
     44 OG         53.1100   25.8153   34.3114 O.2       1 SER1        0.0000 
     45 CZ         53.4851   27.0713   33.5821 C.ar      5 PHE5        0.0000 
     46 OG         51.6996   25.9506   33.8189 O.2       1 SER1        0.0000 
     47 CZ         52.0747   27.2066   33.0896 C.ar      5 PHE5        0.0000 
     48 O          49.9141   24.8300   34.0558 O.2       2 ALA2        0.0000 
     49 CZ         50.2892   26.0860   33.3265 C.ar      5 PHE5        0.0000 
     50 O          48.1285   23.7094   34.2927 O.2       2 ALA2        0.0000 
     51 O          48.5037   24.9653   33.5634 O.2       2 ALA2        0.0000 
     52 CZ         48.8788   26.2213   32.8341 C.ar      5 PHE5        0.0000 
     53 DU         47.0933   25.1007   33.0709 H         7 CUB7        0.0000 
     54 CZ         47.4684   26.3566   32.3416 C.ar      5 PHE5        0.0000 
     55 O          55.2091   25.0976   37.2403 O.2       2 ALA2        0.0000 
     56 O          55.5842   26.3536   36.5110 O.2       2 ALA2        0.0000 
     57 CA         55.9594   27.6095   35.7817 C.3       6 GLY6        0.0000 
     58 OG         53.4236   23.9770   37.4771 O.2       1 SER1        0.0000 
     59 OG         53.7987   25.2329   36.7478 O.2       1 SER1        0.0000 
     60 OG         54.1738   26.4889   36.0186 O.2       1 SER1        0.0000 
     61 CA         54.5490   27.7448   35.2893 C.3       6 GLY6        0.0000 
     62 CZ         54.9241   29.0008   34.5600 C.ar      5 PHE5        0.0000 
     63 OG         52.3883   25.3682   36.2554 O.2       1 SER1        0.0000 
     64 OG         52.7635   26.6242   35.5261 O.2       1 SER1        0.0000 
     65 CZ         53.1386   27.8801   34.7968 C.ar      5 PHE5        0.0000 
     66 O          51.3531   26.7595   35.0337 O.2       2 ALA2        0.0000 
     67 N          51.7282   28.0155   34.3044 N.2       2 ALA2        0.0000 
     68 O          49.9427   26.8948   34.5413 O.2       2 ALA2        0.0000 
     69 O          48.5323   27.0302   34.0488 O.2       2 ALA2        0.0000 
     70 O          46.7468   25.9095   34.2857 O.2       2 ALA2        0.0000 
     71 O          47.1219   27.1655   33.5564 O.2       2 ALA2        0.0000 
     72 NZ         55.2377   27.1624   37.7257 N.2       4 LYS4        0.0000 
     73 NZ         53.0771   24.7859   38.6919 N.2       4 LYS4        0.0000 
     74 NZ         53.4522   26.0418   37.9626 N.2       4 LYS4        0.0000 
     75 NZ         53.8273   27.2978   37.2333 N.2       4 LYS4        0.0000 
     76 CA         54.2025   28.5537   36.5040 C.3       6 GLY6        0.0000 
     77 O          51.6667   24.9212   38.1995 O.2       2 ALA2        0.0000 
     78 O          52.0418   26.1771   37.4702 O.2       2 ALA2        0.0000 
     79 CA         52.4169   27.4331   36.7409 C.3       6 GLY6        0.0000 
     80 CA         52.7921   28.6890   36.0116 C.3       6 GLY6        0.0000 
     81 CA         53.1672   29.9450   35.2823 C.3       6 GLY6        0.0000 
     82 OD1        51.0066   27.5684   36.2485 O.3       3 ASP3        0.0000 
     83 N          51.3817   28.8243   35.5192 N.2       2 ALA2        0.0000 
     84 NZ         52.7305   25.5947   39.9067 N.2       4 LYS4        0.0000 
     85 NZ         53.1057   26.8507   39.1774 N.2       4 LYS4        0.0000 
     86 NZ         53.4808   28.1066   38.4481 N.2       4 LYS4        0.0000 
     87 O          51.6953   26.9860   38.6849 O.2       2 ALA2        0.0000 
     88 CA         52.4456   29.4979   37.2264 C.3       6 GLY6        0.0000 
@<TRIPOS>BOND
@<TRIPOS>SUBSTRUCTURE
     1 SER1       35 GROUP   
     2 ALA2        3 GROUP   
     3 ASP3       82 GROUP   
     4 LYS4       72 GROUP   
     5 PHE5       11 GROUP   
     6 GLY6        1 GROUP   
     7 CUB7        9 GROUP   
@<TRIPOS>SET

