#    Name: 1tgv_5UD_1_INTS_M
#    Modification time : Tue Mar 25 05:00:50 2014

@<TRIPOS>MOLECULE
1tgv_5UD_1_INTS_M
   57     0     9     0     0
SMALL
NO_CHARGES


@<TRIPOS>ATOM
      1 CA         54.1830   23.7865   30.0410 C.3       3 GLC5        0.0000 
      2 CA         54.9890   25.1340   30.3490 C.3       9 GLL5        0.0000 
      3 CA         53.3770   22.4390   29.7330 C.3       6 GLP5        0.0000 
      4 N          56.3625   28.2810   29.0460 N.am      2 SEC2        0.0000 
      5 N          56.7060   27.2090   29.9570 N.am      8 SEL2        0.0000 
      6 N          56.0190   29.3530   28.1350 N.am      5 SEP2        0.0000 
      7 O          57.7545   28.7575   31.9385 O.2       1 ALC1        0.0000 
      8 O          56.7690   27.7880   32.1810 O.2       7 ALL1        0.0000 
      9 O          58.7400   29.7270   31.6960 O.2       4 ALP1        0.0000 
     10 N          57.4600   29.5405   33.9860 N.am      2 SEC2        0.0000 
     11 N          56.7850   28.2960   34.3870 N.am      8 SEL2        0.0000 
     12 N          58.1350   30.7850   33.5850 N.am      5 SEP2        0.0000 
     13 CA         53.9810   23.8325   33.4265 C.3       3 GLC5        0.0000 
     14 CA         54.9960   25.6700   32.6850 C.3       9 GLL5        0.0000 
     15 CA         52.9660   21.9950   34.1680 C.3       6 GLP5        0.0000 
     16 CA         56.1965   28.5485   36.7450 C.3       3 GLC5        0.0000 
     17 CA         55.3220   26.9050   36.4100 C.3       9 GLL5        0.0000 
     18 CA         57.0710   30.1920   37.0800 C.3       6 GLP5        0.0000 
     19 N          56.9700   26.8255   37.7255 N.am      2 SEC2        0.0000 
     20 N          55.7670   26.0040   37.4410 N.am      8 SEL2        0.0000 
     21 N          58.1730   27.6470   38.0100 N.am      5 SEP2        0.0000 
     22 O          55.6235   26.0980   38.9530 O.2       1 ALC1        0.0000 
     23 O          55.7670   26.0040   37.4410 O.2       7 ALL1        0.0000 
     24 O          55.4800   26.1920   40.4650 O.2       4 ALP1        0.0000 
     25 CA         53.4110   29.3265   38.0560 C.3       3 GLC5        0.0000 
     26 CA         54.0740   27.6900   36.8550 C.3       9 GLL5        0.0000 
     27 CA         52.7480   30.9630   39.2570 C.3       6 GLP5        0.0000 
     28 CA         54.8355   29.3730   36.6725 C.3       3 GLC5        0.0000 
     29 CA         55.5970   31.0560   36.4900 C.3       6 GLP5        0.0000 
     30 O          54.2070   27.7630   39.4210 O.2       1 ALC1        0.0000 
     31 O          53.6480   27.2740   38.1580 O.2       7 ALL1        0.0000 
     32 O          54.7660   28.2520   40.6840 O.2       4 ALP1        0.0000 
     33 CA         51.3605   29.2800   36.4120 C.3       3 GLC5        0.0000 
     34 CA         52.6210   28.4580   34.9340 C.3       9 GLL5        0.0000 
     35 CA         50.1000   30.1020   37.8900 C.3       6 GLP5        0.0000 
     36 CA         53.4310   29.5670   33.7675 C.3       3 GLC5        0.0000 
     37 CA         54.2410   30.6760   32.6010 C.3       6 GLP5        0.0000 
     38 CA         54.1090   29.7570   35.7120 C.3       3 GLC5        0.0000 
     39 CA         50.8625   29.3630   34.4485 C.3       3 GLC5        0.0000 
     40 CA         49.1040   30.2680   33.9630 C.3       6 GLP5        0.0000 
     41 N          50.9905   29.1720   33.7410 N.am      2 SEC2        0.0000 
     42 N          51.6020   28.0370   34.0280 N.am      8 SEL2        0.0000 
     43 N          50.3790   30.3070   33.4540 N.am      5 SEP2        0.0000 
     44 CA         56.9320   24.8830   30.2403 C.3       3 GLC5        0.0000 
     45 CA         55.4270   25.9140   31.3600 C.3       9 GLL5        0.0000 
     46 CA         58.6560   24.2420   29.6260 C.3       6 GLP5        0.0000 
     47 CA         55.5800   25.1020   29.0337 C.3       3 GLC5        0.0000 
     48 CA         55.9520   24.6800   27.2130 C.3       6 GLP5        0.0000 
     49 CA         54.5667   27.7460   31.8313 C.3       3 GLC5        0.0000 
     50 CA         53.9220   29.7000   31.6400 C.3       6 GLP5        0.0000 
     51 CA         53.7733   24.5295   31.2492 C.3       3 GLC5        0.0000 
     52 CA         52.3350   23.2670   30.4760 C.3       6 GLP5        0.0000 
     53 CA         56.1685   24.2105   32.2984 C.3       3 GLC5        0.0000 
     54 CA         57.2350   22.8240   32.8270 C.3       6 GLP5        0.0000 
     55 CA         57.1115   26.4763   35.9243 C.3       3 GLC5        0.0000 
     56 CA         54.8860   26.0740   35.1490 C.3       9 GLL5        0.0000 
     57 CA         59.1190   26.4630   36.0690 C.3       6 GLP5        0.0000 
@<TRIPOS>BOND
@<TRIPOS>SUBSTRUCTURE
     1 ALC1        7 GROUP        1 X    ALC  0     ROOT ALC X 1
     2 SEC2        4 GROUP        1 X    SEC  0     **** SEC X 2
     3 GLC5        1 GROUP        1 X    GLC  0     **** GLC X 6
     4 ALP1        9 GROUP        1 Y    ALP  0     ROOT ALP Y 8
     5 SEP2        6 GROUP        1 Y    SEP  0     **** SEP Y 9
     6 GLP5        3 GROUP        1 Y    GLP  0     **** GLP Y 13
     7 ALL1        8 GROUP        1 Z    ALL  0     ROOT ALL Z 15
     8 SEL2        5 GROUP        1 Z    SEL  0     **** SEL Z 16
     9 GLL5        2 GROUP        1 Z    GLL  0     **** GLL Z 20
@<TRIPOS>SET

