#    Name: 1tgv_5UD_1_ligand
#    Modification time : Tue Mar 25 05:00:50 2014

@<TRIPOS>MOLECULE
1tgv_5UD_1_ligand
   29    30     1     0     0
SMALL
NO_CHARGES


@<TRIPOS>ATOM
      1 F5         54.9890   25.1340   30.3490 F         1 5UD3001     0.0000 
      2 C5         55.4270   25.9140   31.3600 C.2       1 5UD3001     0.0000 
      3 C4         56.3150   26.9780   31.1120 C.2       1 5UD3001     0.0000 
      4 O4         56.7060   27.2090   29.9570 O.2       1 5UD3001     0.0000 
      5 N3         56.7690   27.7880   32.1810 N.am      1 5UD3001     0.0000 
      6 C2         56.3490   27.5570   33.5110 C.2       1 5UD3001     0.0000 
      7 O2         56.7850   28.2960   34.3870 O.2       1 5UD3001     0.0000 
      8 C6         54.9960   25.6700   32.6850 C.2       1 5UD3001     0.0000 
      9 N1         55.4350   26.4660   33.7790 N.am      1 5UD3001     0.0000 
     10 C1'        54.8860   26.0740   35.1490 C.3       1 5UD3001     0.0000 
     11 C2'        55.3220   26.9050   36.4100 C.3       1 5UD3001     0.0000 
     12 O2'        55.7670   26.0040   37.4410 O.3       1 5UD3001     0.0000 
     13 C3'        54.0740   27.6900   36.8550 C.3       1 5UD3001     0.0000 
     14 O3'        53.6480   27.2740   38.1580 O.3       1 5UD3001     0.0000 
     15 C4'        52.9950   27.2960   35.8600 C.3       1 5UD3001     0.0000 
     16 O4'        53.4330   26.0970   35.1850 O.3       1 5UD3001     0.0000 
     17 C5'        52.6210   28.4580   34.9340 C.3       1 5UD3001     0.0000 
     18 O5'        51.6020   28.0370   34.0280 O.3       1 5UD3001     0.0000 
     19 H          57.4197   28.5624   31.9843 H         1 5UD3001     0.0000 
     20 H          54.3424   24.8906   32.8671 H         1 5UD3001     0.0000 
     21 H          55.1964   25.0244   35.3689 H         1 5UD3001     0.0000 
     22 H          56.0666   27.5886   36.0984 H         1 5UD3001     0.0000 
     23 H          54.2615   28.7148   36.7730 H         1 5UD3001     0.0000 
     24 H          52.0947   27.0565   36.4683 H         1 5UD3001     0.0000 
     25 H          53.5300   28.7705   34.4096 H         1 5UD3001     0.0000 
     26 H          52.2895   29.2906   35.5632 H         1 5UD3001     0.0000 
     27 H          55.4404   26.4074   38.2957 H         1 5UD3001     0.0000 
     28 H          54.1940   27.8184   38.7947 H         1 5UD3001     0.0000 
     29 H          51.3619   27.1114   34.3207 H         1 5UD3001     0.0000 
@<TRIPOS>BOND
     1    2    1 1    
     2    3    2 1    
     3    8    2 2    
     4    4    3 2    
     5    5    3 1    
     6    6    5 1    
     7   19    5 1    
     8    7    6 2    
     9    9    6 1    
    10    9    8 1    
    11   20    8 1    
    12   10    9 1    
    13   11   10 1    
    14   16   10 1    
    15   21   10 1    
    16   12   11 1    
    17   13   11 1    
    18   22   11 1    
    19   27   12 1    
    20   14   13 1    
    21   15   13 1    
    22   23   13 1    
    23   28   14 1    
    24   16   15 1    
    25   17   15 1    
    26   24   15 1    
    27   18   17 1    
    28   25   17 1    
    29   26   17 1    
    30   29   18 1    
@<TRIPOS>SUBSTRUCTURE
     1 5UD3001     1 GROUP   
@<TRIPOS>SET

