#    Name: 1o9u_ADZ_1_INTS_M
#    Modification time : Mon Mar 24 19:52:27 2014

@<TRIPOS>MOLECULE
1o9u_ADZ_1_INTS_M
   21     0     9     0     0
SMALL
NO_CHARGES


@<TRIPOS>ATOM
      1 CA         -8.0030   40.2215  139.1530 C.3       3 GLC5        0.0000 
      2 CA         -8.4220   40.7130  137.0070 C.3       9 GLL5        0.0000 
      3 CA         -7.5840   39.7300  141.2990 C.3       6 GLP5        0.0000 
      4 O          -9.3515   39.1095  138.5605 O.2       1 ALC1        0.0000 
      5 O          -9.1420   39.6350  137.3930 O.2       7 ALL1        0.0000 
      6 O          -9.5610   38.5840  139.7280 O.2       4 ALP1        0.0000 
      7 N          -6.5320   39.9650  138.7120 N.am      2 SEC2        0.0000 
      8 N          -7.2100   40.9830  137.6460 N.am      8 SEL2        0.0000 
      9 N          -5.8540   38.9470  139.7780 N.am      5 SEP2        0.0000 
     10 CA         -6.4765   44.0555  138.2730 C.3       3 GLC5        0.0000 
     11 CA         -6.4260   42.0600  137.3050 C.3       9 GLL5        0.0000 
     12 CA         -6.5270   46.0510  139.2410 C.3       6 GLP5        0.0000 
     13 CA         -8.2420   42.6020  138.4240 C.3       3 GLC5        0.0000 
     14 CA        -10.0580   43.1440  139.5430 C.3       6 GLP5        0.0000 
     15 CA         -9.1375   45.6330  135.4920 C.3       3 GLC5        0.0000 
     16 CA         -8.0970   44.6040  133.9870 C.3       9 GLL5        0.0000 
     17 CA        -10.1780   46.6620  136.9970 C.3       6 GLP5        0.0000 
     18 CA         -8.0308   39.4788  135.8170 C.3       3 GLC5        0.0000 
     19 CA         -7.3990   37.8120  135.1540 C.3       6 GLP5        0.0000 
     20 CA         -9.2091   42.5319  137.7948 C.3       3 GLC5        0.0000 
     21 CA         -8.9030   41.5780  135.9530 C.3       9 GLL5        0.0000 
@<TRIPOS>BOND
@<TRIPOS>SUBSTRUCTURE
     1 ALC1        4 GROUP        1 X    ALC  0     ROOT ALC X 1
     2 SEC2        7 GROUP        1 X    SEC  0     **** SEC X 2
     3 GLC5        1 GROUP        1 X    GLC  0     **** GLC X 6
     4 ALP1        6 GROUP        1 Y    ALP  0     ROOT ALP Y 8
     5 SEP2        9 GROUP        1 Y    SEP  0     **** SEP Y 9
     6 GLP5        3 GROUP        1 Y    GLP  0     **** GLP Y 13
     7 ALL1        5 GROUP        1 Z    ALL  0     ROOT ALL Z 15
     8 SEL2        8 GROUP        1 Z    SEL  0     **** SEL Z 16
     9 GLL5        2 GROUP        1 Z    GLL  0     **** GLL Z 20
@<TRIPOS>SET

