#    Name: 1o9u_ADZ_1_ligand
#    Modification time : Mon Mar 24 19:52:27 2014

@<TRIPOS>MOLECULE
1o9u_ADZ_1_ligand
   18    19     1     0     0
SMALL
NO_CHARGES


@<TRIPOS>ATOM
      1 N9         -8.6590   43.3590  134.6350 N.pl3     1 ADZ1386     0.0000 
      2 C8         -9.8250   42.7230  134.3380 C.2       1 ADZ1386     0.0000 
      3 N7         -9.9650   41.6380  135.1460 N.2       1 ADZ1386     0.0000 
      4 C5         -8.9030   41.5780  135.9530 C.ar      1 ADZ1386     0.0000 
      5 C6         -8.4220   40.7130  137.0070 C.ar      1 ADZ1386     0.0000 
      6 N6         -9.1420   39.6350  137.3930 N.pl3     1 ADZ1386     0.0000 
      7 N1         -7.2100   40.9830  137.6460 N.ar      1 ADZ1386     0.0000 
      8 C2         -6.4260   42.0600  137.3050 C.ar      1 ADZ1386     0.0000 
      9 N3         -6.8650   42.8950  136.3010 N.ar      1 ADZ1386     0.0000 
     10 C4         -8.0580   42.6940  135.6130 C.ar      1 ADZ1386     0.0000 
     11 C1'        -8.0970   44.6040  133.9870 C.3       1 ADZ1386     0.0000 
     12 H         -10.4553   42.9998  133.6584 H         1 ADZ1386     0.0000 
     13 H          -9.7471   39.2395  136.7019 H         1 ADZ1386     0.0000 
     14 H          -9.0054   39.3290  138.3352 H         1 ADZ1386     0.0000 
     15 H          -5.5412   42.2373  137.7828 H         1 ADZ1386     0.0000 
     16 H          -7.2200   44.8681  134.3884 H         1 ADZ1386     0.0000 
     17 H          -7.9441   44.4760  133.0071 H         1 ADZ1386     0.0000 
     18 H          -8.7127   45.3855  134.0879 H         1 ADZ1386     0.0000 
@<TRIPOS>BOND
     1    2    1 1    
     2   10    1 1    
     3   11    1 1    
     4    3    2 2    
     5   12    2 1    
     6    4    3 1    
     7    5    4 ar   
     8   10    4 ar   
     9    6    5 1    
    10    7    5 ar   
    11   13    6 1    
    12   14    6 1    
    13    8    7 ar   
    14    9    8 ar   
    15   15    8 1    
    16   10    9 ar   
    17   16   11 1    
    18   17   11 1    
    19   18   11 1    
@<TRIPOS>SUBSTRUCTURE
     1 ADZ1386     1 GROUP   
@<TRIPOS>SET

