#    Name: 1woo_THG_1_INTS_M
#    Modification time : Tue Mar 25 09:13:00 2014

@<TRIPOS>MOLECULE
1woo_THG_1_INTS_M
   54     0    12     0     0
SMALL
NO_CHARGES


@<TRIPOS>ATOM
      1 O           5.3120   29.0745   11.1210 O.2       1 ALC1        0.0000 
      2 O           4.9850   27.7680   11.9130 O.2       9 ALL1        0.0000 
      3 O           5.6390   30.3810   10.3290 O.2       5 ALP1        0.0000 
      4 O           6.0700   28.6765   11.8110 O.2       1 ALC1        0.0000 
      5 O           7.1550   29.5850   11.7090 O.2       5 ALP1        0.0000 
      6 CA          2.0585   26.4250   11.1270 C.3       4 GLC5        0.0000 
      7 CA          3.5590   25.3430   11.7000 C.3      12 GLL5        0.0000 
      8 CA          0.5580   27.5070   10.5540 C.3       8 GLP5        0.0000 
      9 CA          4.3885   24.9665   10.0305 C.3       4 GLC5        0.0000 
     10 CA          5.2180   24.5900    8.3610 C.3       8 GLP5        0.0000 
     11 O           2.5670   23.6015   10.2860 O.2       1 ALC1        0.0000 
     12 O           2.8540   24.1380   11.6270 O.2       9 ALL1        0.0000 
     13 O           2.2800   23.0650    8.9450 O.2       5 ALP1        0.0000 
     14 CA          4.7955   23.4190   12.5450 C.3       4 GLC5        0.0000 
     15 CA          2.6170   23.1190   12.6840 C.3      12 GLL5        0.0000 
     16 CA          6.9740   23.7190   12.4060 C.3       8 GLP5        0.0000 
     17 CA          0.9415   23.1700   11.7685 C.3       4 GLC5        0.0000 
     18 CA         -0.7340   23.2210   10.8530 C.3       8 GLP5        0.0000 
     19 CA          2.9860   21.8580   11.1350 C.3       4 GLC5        0.0000 
     20 CA          3.3550   20.5970    9.5860 C.3       8 GLP5        0.0000 
     21 CA         -0.4770   25.1245   14.4905 C.3       4 GLC5        0.0000 
     22 CA          1.4330   24.4400   14.4520 C.3      12 GLL5        0.0000 
     23 CA         -2.3870   25.8090   14.5290 C.3       8 GLP5        0.0000 
     24 CA          0.3495   23.8305   12.6525 C.3       4 GLC5        0.0000 
     25 CA          0.9470   27.4495   12.7280 C.3       4 GLC5        0.0000 
     26 CA          1.3360   27.3920   14.9020 C.3      12 GLL5        0.0000 
     27 CA         -1.5145   31.8785   18.3780 C.3       4 GLC5        0.0000 
     28 CA         -2.4360   32.0790   16.7150 C.3      12 GLL5        0.0000 
     29 CA         -0.5930   31.6780   20.0410 C.3       8 GLP5        0.0000 
     30 CA         -3.3885   30.4860   13.9270 C.3       4 GLC5        0.0000 
     31 CA         -3.1620   32.1780   15.3590 C.3      12 GLL5        0.0000 
     32 CA         -3.6150   28.7940   12.4950 C.3       8 GLP5        0.0000 
     33 CA         -3.0225   35.1015   14.6555 C.3       4 GLC5        0.0000 
     34 CA         -3.9070   33.4850   15.1290 C.3      12 GLL5        0.0000 
     35 CA         -2.1380   36.7180   14.1820 C.3       8 GLP5        0.0000 
     36 NZ         -5.3955   35.5485   12.2380 N.4       3 LYC4        0.0000 
     37 NZ         -5.2330   34.6010   13.5370 N.4      11 LYL4        0.0000 
     38 NZ         -5.5580   36.4960   10.9390 N.4       7 LYP4        0.0000 
     39 N          -0.3765   31.0480   14.0800 N.am      2 SEC2        0.0000 
     40 N           0.0160   31.3930   15.4730 N.am     10 SEL2        0.0000 
     41 N          -0.7690   30.7030   12.6870 N.am      6 SEP2        0.0000 
     42 N           6.5275   26.4415   15.0130 N.am      2 SEC2        0.0000 
     43 N           5.4600   27.3650   14.1490 N.am     10 SEL2        0.0000 
     44 N           7.5950   25.5180   15.8770 N.am      6 SEP2        0.0000 
     45 O           5.0465   29.2500    9.9490 O.2       1 ALC1        0.0000 
     46 O           4.4540   28.1190    9.5690 O.2       9 ALL1        0.0000 
     47 CA          5.4138   24.6142   12.3863 C.3       4 GLC5        0.0000 
     48 CA          0.2245   27.7707   18.7915 C.3       4 GLC5        0.0000 
     49 CA         -0.0020   26.7160   16.9110 C.3      12 GLL5        0.0000 
     50 CA          0.7170   28.1480   20.6220 C.3       8 GLP5        0.0000 
     51 CA         -2.2378   32.9417   13.7885 C.3       4 GLC5        0.0000 
     52 CA         -0.9410   33.0520   12.3330 C.3       8 GLP5        0.0000 
     53 CA         -5.1893   31.7907   15.3795 C.3       4 GLC5        0.0000 
     54 CA         -6.8440   30.7500   15.5150 C.3       8 GLP5        0.0000 
@<TRIPOS>BOND
@<TRIPOS>SUBSTRUCTURE
     1 ALC1        1 GROUP        1 X    ALC  0     ROOT ALC X 1
     2 SEC2       39 GROUP        1 X    SEC  0     **** SEC X 2
     3 LYC4       36 GROUP        1 X    LYC  0     **** LYC X 4
     4 GLC5        6 GROUP        1 X    GLC  0     **** GLC X 6
     5 ALP1        3 GROUP        1 Y    ALP  0     ROOT ALP Y 8
     6 SEP2       41 GROUP        1 Y    SEP  0     **** SEP Y 9
     7 LYP4       38 GROUP        1 Y    LYP  0     **** LYP Y 11
     8 GLP5        8 GROUP        1 Y    GLP  0     **** GLP Y 13
     9 ALL1        2 GROUP        1 Z    ALL  0     ROOT ALL Z 15
    10 SEL2       40 GROUP        1 Z    SEL  0     **** SEL Z 16
    11 LYL4       37 GROUP        1 Z    LYL  0     **** LYL Z 18
    12 GLL5        7 GROUP        1 Z    GLL  0     **** GLL Z 20
@<TRIPOS>SET

