#    Name: 1woo_THG_1_ligand
#    Modification time : Tue Mar 25 09:13:00 2014

@<TRIPOS>MOLECULE
1woo_THG_1_ligand
   52    54     1     0     0
SMALL
NO_CHARGES


@<TRIPOS>ATOM
      1 N3          4.9850   27.7680   11.9130 N.am      1 THG2887     0.0000 
      2 C2          4.3900   27.3650   10.7180 C.2       1 THG2887     0.0000 
      3 N1          3.6950   26.1950   10.6280 N.2       1 THG2887     0.0000 
      4 C8A         3.5590   25.3430   11.7000 C.2       1 THG2887     0.0000 
      5 C4A         4.1480   25.6760   13.0330 C.2       1 THG2887     0.0000 
      6 C4          4.9170   26.9950   13.0700 C.2       1 THG2887     0.0000 
      7 N8          2.8540   24.1380   11.6270 N.pl3     1 THG2887     0.0000 
      8 C7          2.6170   23.1190   12.6840 C.3       1 THG2887     0.0000 
      9 C6          2.7550   23.7260   14.1160 C.3       1 THG2887     0.0000 
     10 N5          3.9260   24.6820   14.1110 N.3       1 THG2887     0.0000 
     11 C9          1.4330   24.4400   14.4520 C.3       1 THG2887     0.0000 
     12 N10         1.4180   25.1020   15.7530 N.pl3     1 THG2887     0.0000 
     13 C4'         0.9350   26.3730   15.8500 C.ar      1 THG2887     0.0000 
     14 C3'        -0.0020   26.7160   16.9110 C.ar      1 THG2887     0.0000 
     15 C2'        -0.5340   28.0710   17.0110 C.ar      1 THG2887     0.0000 
     16 C1'        -0.1190   29.0590   16.0460 C.ar      1 THG2887     0.0000 
     17 C6'         0.8160   28.7000   15.0050 C.ar      1 THG2887     0.0000 
     18 C5'         1.3360   27.3920   14.9020 C.ar      1 THG2887     0.0000 
     19 C11        -0.6150   30.4920   16.0350 C.2       1 THG2887     0.0000 
     20 N          -1.8100   30.7580   16.6550 N.am      1 THG2887     0.0000 
     21 CA         -2.4360   32.0790   16.7150 C.3       1 THG2887     0.0000 
     22 C          -3.3750   32.0880   17.9150 C.2       1 THG2887     0.0000 
     23 OX2        -3.6300   33.1100   18.5490 O.co2     1 THG2887     0.0000 
     24 OX1        -3.9440   30.9430   18.2900 O.co2     1 THG2887     0.0000 
     25 CB         -3.1620   32.1780   15.3590 C.3       1 THG2887     0.0000 
     26 CG         -3.9070   33.4850   15.1290 C.3       1 THG2887     0.0000 
     27 CD         -4.6160   33.5700   13.7820 C.2       1 THG2887     0.0000 
     28 OE1        -5.2330   34.6010   13.5370 O.co2     1 THG2887     0.0000 
     29 OE2        -4.5880   32.5830   12.8710 O.co2     1 THG2887     0.0000 
     30 O11         0.0160   31.3930   15.4730 O.2       1 THG2887     0.0000 
     31 O4          5.4600   27.3650   14.1490 O.2       1 THG2887     0.0000 
     32 N2          4.4540   28.1190    9.5690 N.pl3     1 THG2887     0.0000 
     33 H           5.4960   28.6752   11.9409 H         1 THG2887     0.0000 
     34 H           2.4043   23.8817   10.6780 H         1 THG2887     0.0000 
     35 H           3.3372   22.2998   12.5990 H         1 THG2887     0.0000 
     36 H           1.6107   22.6986   12.5963 H         1 THG2887     0.0000 
     37 H           2.9181   22.9316   14.7961 H         1 THG2887     0.0000 
     38 H           0.6203   23.6851   14.3876 H         1 THG2887     0.0000 
     39 H           1.2321   25.1702   13.6391 H         1 THG2887     0.0000 
     40 H           1.7739   24.5832   16.5527 H         1 THG2887     0.0000 
     41 H          -0.2844   26.0163   17.5785 H         1 THG2887     0.0000 
     42 H          -1.1776   28.3039   17.7419 H         1 THG2887     0.0000 
     43 H           1.0994   29.4217   14.3328 H         1 THG2887     0.0000 
     44 H           1.9942   27.1483   14.1668 H         1 THG2887     0.0000 
     45 H          -2.3403   29.9831   17.1302 H         1 THG2887     0.0000 
     46 H          -1.7108   32.8278   16.7843 H         1 THG2887     0.0000 
     47 H          -3.8736   31.3361   15.2817 H         1 THG2887     0.0000 
     48 H          -2.4183   32.0375   14.5538 H         1 THG2887     0.0000 
     49 H          -3.1939   34.3241   15.2109 H         1 THG2887     0.0000 
     50 H          -4.6510   33.6207   15.9335 H         1 THG2887     0.0000 
     51 H           3.9618   27.7572    8.7773 H         1 THG2887     0.0000 
     52 H           4.9872   28.9631    9.6257 H         1 THG2887     0.0000 
@<TRIPOS>BOND
     1    2    1 1    
     2    6    1 am   
     3   33    1 1    
     4    3    2 2    
     5   32    2 1    
     6    4    3 1    
     7    5    4 2    
     8    7    4 1    
     9    6    5 1    
    10   10    5 1    
    11   31    6 2    
    12    8    7 1    
    13   34    7 1    
    14    9    8 1    
    15   35    8 1    
    16   36    8 1    
    17   10    9 1    
    18   11    9 1    
    19   37    9 1    
    20   12   11 1    
    21   38   11 1    
    22   39   11 1    
    23   13   12 1    
    24   40   12 1    
    25   14   13 ar   
    26   18   13 ar   
    27   15   14 ar   
    28   41   14 1    
    29   16   15 ar   
    30   42   15 1    
    31   17   16 ar   
    32   19   16 1    
    33   18   17 ar   
    34   43   17 1    
    35   44   18 1    
    36   20   19 am   
    37   30   19 2    
    38   21   20 1    
    39   45   20 1    
    40   22   21 1    
    41   25   21 1    
    42   46   21 1    
    43   23   22 ar   
    44   24   22 ar   
    45   26   25 1    
    46   47   25 1    
    47   48   25 1    
    48   27   26 1    
    49   49   26 1    
    50   50   26 1    
    51   28   27 ar   
    52   29   27 ar   
    53   51   32 1    
    54   52   32 1    
@<TRIPOS>SUBSTRUCTURE
     1 THG2887     1 GROUP   
@<TRIPOS>SET

