#    Name: 1hyu_FAD_1_INTS_M
#    Modification time : Tue Mar 25 06:34:23 2014

@<TRIPOS>MOLECULE
1hyu_FAD_1_INTS_M
  100     0     9     0     0
SMALL
NO_CHARGES


@<TRIPOS>ATOM
      1 N          53.2565   55.2335   13.0690 N.am      2 SEC2        0.0000 
      2 N          52.7090   56.0210   12.0010 N.am      8 SEL2        0.0000 
      3 N          53.8040   54.4460   14.1370 N.am      5 SEP2        0.0000 
      4 CA         51.2170   54.2525    8.4050 C.3       3 GLC5        0.0000 
      5 CA         50.2850   53.9260   10.0370 C.3       9 GLL5        0.0000 
      6 CA         52.1490   54.5790    6.7730 C.3       6 GLP5        0.0000 
      7 CA         47.4145   53.0965   10.2925 C.3       3 GLC5        0.0000 
      8 CA         49.4350   52.9250   10.8860 C.3       9 GLL5        0.0000 
      9 CA         45.3940   53.2680    9.6990 C.3       6 GLP5        0.0000 
     10 O          50.0410   48.1220   11.1770 O.2       1 ALC1        0.0000 
     11 O          50.5470   49.4920   11.4780 O.2       7 ALL1        0.0000 
     12 O          49.5350   46.7520   10.8760 O.2       4 ALP1        0.0000 
     13 CA         47.1090   52.0005   10.0385 C.3       3 GLC5        0.0000 
     14 CA         48.8240   50.7330   10.3780 C.3       9 GLL5        0.0000 
     15 CA         45.2960   46.5335    7.9325 C.3       3 GLC5        0.0000 
     16 CA         46.4470   48.0740    6.9690 C.3       9 GLL5        0.0000 
     17 CA         44.1450   44.9930    8.8960 C.3       6 GLP5        0.0000 
     18 CA         44.5040   47.9380    6.0770 C.3       3 GLC5        0.0000 
     19 CA         42.5610   47.8020    5.1850 C.3       6 GLP5        0.0000 
     20 O          45.5435   46.4875    5.2020 O.2       1 ALC1        0.0000 
     21 O          46.5190   47.4340    5.8450 O.2       7 ALL1        0.0000 
     22 O          44.5680   45.5410    4.5590 O.2       4 ALP1        0.0000 
     23 N          44.3090   47.1800    7.2790 N.am      2 SEC2        0.0000 
     24 N          45.2580   48.1520    7.6620 N.am      8 SEL2        0.0000 
     25 N          43.3600   46.2080    6.8960 N.am      5 SEP2        0.0000 
     26 CA         44.0680   49.9715    7.5325 C.3       3 GLC5        0.0000 
     27 CA         45.1280   48.8160    8.8320 C.3       9 GLL5        0.0000 
     28 CA         43.0080   51.1270    6.2330 C.3       6 GLP5        0.0000 
     29 CA         44.5330   49.5580   10.6085 C.3       3 GLC5        0.0000 
     30 CA         43.9380   50.3000   12.3850 C.3       6 GLP5        0.0000 
     31 CA         46.1640   47.6850   10.1560 C.3       3 GLC5        0.0000 
     32 CA         47.2000   46.5540   11.4800 C.3       6 GLP5        0.0000 
     33 CA         44.6365   46.9045    8.8640 C.3       3 GLC5        0.0000 
     34 CA         46.3520   51.3450    9.2645 C.3       3 GLC5        0.0000 
     35 CA         47.3100   49.4220    8.8300 C.3       9 GLL5        0.0000 
     36 N          57.4270   63.5065   12.6480 N.am      2 SEC2        0.0000 
     37 N          58.6680   63.7070   13.3220 N.am      8 SEL2        0.0000 
     38 N          56.1860   63.3060   11.9740 N.am      5 SEP2        0.0000 
     39 O          60.0705   64.1000   15.3155 O.2       1 ALC1        0.0000 
     40 O          60.0060   62.8370   14.8860 O.2       7 ALL1        0.0000 
     41 O          60.1350   65.3630   15.7450 O.2       4 ALP1        0.0000 
     42 CA         63.1340   57.0755   13.4020 C.3       3 GLC5        0.0000 
     43 CA         61.6940   55.8390   14.3440 C.3       9 GLL5        0.0000 
     44 CA         64.5740   58.3120   12.4600 C.3       6 GLP5        0.0000 
     45 CA         63.7415   54.1790   13.3045 C.3       3 GLC5        0.0000 
     46 CA         62.3810   54.5790   14.8770 C.3       9 GLL5        0.0000 
     47 CA         65.1020   53.7790   11.7320 C.3       6 GLP5        0.0000 
     48 CA         60.7635   54.6310   10.4485 C.3       3 GLC5        0.0000 
     49 CA         60.7480   54.4670   12.3200 C.3       9 GLL5        0.0000 
     50 CA         60.7790   54.7950    8.5770 C.3       6 GLP5        0.0000 
     51 CA         62.9250   54.1230   12.0260 C.3       3 GLC5        0.0000 
     52 CA         62.4685   58.2145   12.8750 C.3       3 GLC5        0.0000 
     53 CA         60.3630   58.1170   13.2900 C.3       9 GLL5        0.0000 
     54 CA         59.1400   58.0410   10.0450 C.3       3 GLC5        0.0000 
     55 CA         58.8290   59.1930   11.5470 C.3       9 GLL5        0.0000 
     56 CA         59.4510   56.8890    8.5430 C.3       6 GLP5        0.0000 
     57 CA         60.9010   59.4295   10.9740 C.3       3 GLC5        0.0000 
     58 CA         62.9730   59.6660   10.4010 C.3       6 GLP5        0.0000 
     59 CA         56.5895   60.5340   13.2565 C.3       3 GLC5        0.0000 
     60 CA         57.3120   59.2400   12.0120 C.3       9 GLL5        0.0000 
     61 CA         55.8670   61.8280   14.5010 C.3       6 GLP5        0.0000 
     62 CA         57.9165   57.9510    9.6815 C.3       3 GLC5        0.0000 
     63 CA         56.3820   59.0130   10.8200 C.3       9 GLL5        0.0000 
     64 O          56.0195   59.9150    8.4440 O.2       1 ALC1        0.0000 
     65 O          56.6210   60.0230    9.8530 O.2       7 ALL1        0.0000 
     66 O          55.4180   59.8070    7.0350 O.2       4 ALP1        0.0000 
     67 O          56.4355   58.9925    8.8835 O.2       1 ALC1        0.0000 
     68 O          56.2500   57.9620    7.9140 O.2       4 ALP1        0.0000 
     69 CA         55.3710   60.4355   12.8810 C.3       3 GLC5        0.0000 
     70 CA         54.8750   59.0430   11.2610 C.3       9 GLL5        0.0000 
     71 CA         54.3910   58.2260    8.0515 C.3       3 GLC5        0.0000 
     72 CA         54.0280   58.7990   10.0330 C.3       9 GLL5        0.0000 
     73 CA         54.7540   57.6530    6.0700 C.3       6 GLP5        0.0000 
     74 CA         53.0310   60.5195    9.7190 C.3       3 GLC5        0.0000 
     75 CA         52.0340   62.2400    9.4050 C.3       6 GLP5        0.0000 
     76 N          49.4490   59.4015   10.7480 N.am      2 SEC2        0.0000 
     77 N          50.2520   58.3020   10.3500 N.am      8 SEL2        0.0000 
     78 N          48.6460   60.5010   11.1460 N.am      5 SEP2        0.0000 
     79 N          52.2015   58.7775    6.9525 N.am      2 SEC2        0.0000 
     80 N          51.5710   58.4300    8.2930 N.am      8 SEL2        0.0000 
     81 N          52.8320   59.1250    5.6120 N.am      5 SEP2        0.0000 
     82 CA         49.4570   54.9782   11.9192 C.3       3 GLC5        0.0000 
     83 CA         49.0540   56.5310   13.3770 C.3       6 GLP5        0.0000 
     84 CA         49.2410   53.3073    8.4872 C.3       3 GLC5        0.0000 
     85 CA         48.6220   53.1890    6.5130 C.3       6 GLP5        0.0000 
     86 CA         50.6205   53.1887   12.8818 C.3       3 GLC5        0.0000 
     87 CA         51.4090   53.9680   14.4570 C.3       6 GLP5        0.0000 
     88 CA         47.3197   47.8238    9.8468 C.3       3 GLC5        0.0000 
     89 CA         47.0015   50.2549    6.8807 C.3       3 GLC5        0.0000 
     90 CA         47.5690   48.7650    7.5970 C.3       9 GLL5        0.0000 
     91 CA         46.8440   51.5890    5.7050 C.3       6 GLP5        0.0000 
     92 CA         60.8290   57.8545   16.6528 C.3       3 GLC5        0.0000 
     93 CA         61.1360   58.2340   14.4970 C.3       9 GLL5        0.0000 
     94 CA         60.1920   58.0610   18.5540 C.3       6 GLP5        0.0000 
     95 CA         63.0575   58.3635   14.2802 C.3       3 GLC5        0.0000 
     96 CA         61.7960   57.0620   15.0060 C.3       9 GLL5        0.0000 
     97 CA         64.6490   59.0790   13.8090 C.3       6 GLP5        0.0000 
     98 CA         61.6437   58.5885   11.6782 C.3       3 GLC5        0.0000 
     99 CA         53.0438   59.5125   11.9810 C.3       3 GLC5        0.0000 
    100 CA         51.6360   60.1040   13.3150 C.3       6 GLP5        0.0000 
@<TRIPOS>BOND
@<TRIPOS>SUBSTRUCTURE
     1 ALC1       10 GROUP        1 X    ALC  0     ROOT ALC X 1
     2 SEC2        1 GROUP        1 X    SEC  0     **** SEC X 2
     3 GLC5        4 GROUP        1 X    GLC  0     **** GLC X 6
     4 ALP1       12 GROUP        1 Y    ALP  0     ROOT ALP Y 8
     5 SEP2        3 GROUP        1 Y    SEP  0     **** SEP Y 9
     6 GLP5        6 GROUP        1 Y    GLP  0     **** GLP Y 13
     7 ALL1       11 GROUP        1 Z    ALL  0     ROOT ALL Z 15
     8 SEL2        2 GROUP        1 Z    SEL  0     **** SEL Z 16
     9 GLL5        5 GROUP        1 Z    GLL  0     **** GLL Z 20
@<TRIPOS>SET

