#    Name: 1hyu_FAD_1_ligand
#    Modification time : Tue Mar 25 06:34:23 2014

@<TRIPOS>MOLECULE
1hyu_FAD_1_ligand
   84    89     1     0     0
SMALL
NO_CHARGES


@<TRIPOS>ATOM
      1 PA         52.3820   55.4820   10.7820 P.3       1 FAD700      0.0000 
      2 O1A        53.1180   54.4270   10.1280 O.co2     1 FAD700      0.0000 
      3 O2A        52.7090   56.0210   12.0010 O.co2     1 FAD700      0.0000 
      4 O5B        51.0420   54.7420   11.0680 O.3       1 FAD700      0.0000 
      5 C5B        50.2850   53.9260   10.0370 C.3       1 FAD700      0.0000 
      6 C4B        49.4350   52.9250   10.8860 C.3       1 FAD700      0.0000 
      7 O4B        48.6160   52.1200    9.9950 O.3       1 FAD700      0.0000 
      8 C3B        50.2290   51.8940   11.7270 C.3       1 FAD700      0.0000 
      9 O3B        49.7540   51.7170   13.0220 O.3       1 FAD700      0.0000 
     10 C2B        50.2550   50.7050   10.8320 C.3       1 FAD700      0.0000 
     11 O2B        50.5470   49.4920   11.4780 O.3       1 FAD700      0.0000 
     12 C1B        48.8240   50.7330   10.3780 C.3       1 FAD700      0.0000 
     13 N9A        48.5340   49.9710    9.1840 N.pl3     1 FAD700      0.0000 
     14 C8A        49.4290   49.6310    8.1820 C.2       1 FAD700      0.0000 
     15 N7A        48.8680   48.9080    7.2210 N.2       1 FAD700      0.0000 
     16 C5A        47.5690   48.7650    7.5970 C.ar      1 FAD700      0.0000 
     17 C6A        46.4470   48.0740    6.9690 C.ar      1 FAD700      0.0000 
     18 N6A        46.5190   47.4340    5.8450 N.pl3     1 FAD700      0.0000 
     19 N1A        45.2580   48.1520    7.6620 N.ar      1 FAD700      0.0000 
     20 C2A        45.1280   48.8160    8.8320 C.ar      1 FAD700      0.0000 
     21 N3A        46.1050   49.4760    9.4820 N.ar      1 FAD700      0.0000 
     22 C4A        47.3100   49.4220    8.8300 C.ar      1 FAD700      0.0000 
     23 N1         59.1520   61.5780   13.0360 N.2       1 FAD700      0.0000 
     24 C2         59.2400   62.7220   13.6910 C.2       1 FAD700      0.0000 
     25 O2         58.6680   63.7070   13.3220 O.2       1 FAD700      0.0000 
     26 N3         60.0060   62.8370   14.8860 N.am      1 FAD700      0.0000 
     27 C4         60.6930   61.7580   15.3990 C.2       1 FAD700      0.0000 
     28 O4         61.3120   61.8940   16.3740 O.2       1 FAD700      0.0000 
     29 C4X        60.6070   60.5160   14.7090 C.2       1 FAD700      0.0000 
     30 N5         61.2610   59.4190   15.1960 N.2       1 FAD700      0.0000 
     31 C5X        61.1360   58.2340   14.4970 C.ar      1 FAD700      0.0000 
     32 C6         61.7960   57.0620   15.0060 C.ar      1 FAD700      0.0000 
     33 C7         61.6940   55.8390   14.3440 C.ar      1 FAD700      0.0000 
     34 C7M        62.3810   54.5790   14.8770 C.3       1 FAD700      0.0000 
     35 C8         60.9080   55.7610   13.1100 C.ar      1 FAD700      0.0000 
     36 C8M        60.7480   54.4670   12.3200 C.3       1 FAD700      0.0000 
     37 C9         60.2660   56.9050   12.6210 C.ar      1 FAD700      0.0000 
     38 C9A        60.3630   58.1170   13.2900 C.ar      1 FAD700      0.0000 
     39 N10        59.6750   59.3250   12.8070 N.pl3     1 FAD700      0.0000 
     40 C10        59.7850   60.4760   13.4760 C.2       1 FAD700      0.0000 
     41 C1'        58.8290   59.1930   11.5470 C.3       1 FAD700      0.0000 
     42 C2'        57.3120   59.2400   12.0120 C.3       1 FAD700      0.0000 
     43 O2'        57.1340   58.2590   13.0130 O.3       1 FAD700      0.0000 
     44 C3'        56.3820   59.0130   10.8200 C.3       1 FAD700      0.0000 
     45 O3'        56.6210   60.0230    9.8530 O.3       1 FAD700      0.0000 
     46 C4'        54.8750   59.0430   11.2610 C.3       1 FAD700      0.0000 
     47 O4'        54.5220   58.0400   12.2790 O.3       1 FAD700      0.0000 
     48 C5'        54.0280   58.7990   10.0330 C.3       1 FAD700      0.0000 
     49 O5'        52.5420   58.7690   10.4850 O.3       1 FAD700      0.0000 
     50 P          51.5560   58.0360    9.6670 P.3       1 FAD700      0.0000 
     51 O1P        50.2520   58.3020   10.3500 O.co2     1 FAD700      0.0000 
     52 O2P        51.5710   58.4300    8.2930 O.co2     1 FAD700      0.0000 
     53 O3P        51.8660   56.5690    9.6710 O.3       1 FAD700      0.0000 
     54 H          50.9569   53.3734    9.4323 H         1 FAD700      0.0000 
     55 H          49.6276   54.5441    9.4818 H         1 FAD700      0.0000 
     56 H          48.7954   53.4820   11.5502 H         1 FAD700      0.0000 
     57 H          51.2746   52.3029   11.7149 H         1 FAD700      0.0000 
     58 H          50.8587   50.9265    9.9890 H         1 FAD700      0.0000 
     59 H          48.1796   50.4958   11.1800 H         1 FAD700      0.0000 
     60 H          50.3782   49.9124    8.2091 H         1 FAD700      0.0000 
     61 H          45.6670   47.0280    5.5145 H         1 FAD700      0.0000 
     62 H          47.4199   47.4053    5.4120 H         1 FAD700      0.0000 
     63 H          44.1445   48.8160    9.2880 H         1 FAD700      0.0000 
     64 H          60.0346   63.7535   15.3619 H         1 FAD700      0.0000 
     65 H          62.3447   57.1465   15.8690 H         1 FAD700      0.0000 
     66 H          59.7138   56.8406   11.7499 H         1 FAD700      0.0000 
     67 H          59.0012   58.2532   11.0752 H         1 FAD700      0.0000 
     68 H          58.9995   60.0157   10.8917 H         1 FAD700      0.0000 
     69 H          57.1493   60.2388   12.3948 H         1 FAD700      0.0000 
     70 H          56.5788   58.0292   10.4196 H         1 FAD700      0.0000 
     71 H          54.6604   60.0426   11.6158 H         1 FAD700      0.0000 
     72 H          54.2727   57.8499    9.5928 H         1 FAD700      0.0000 
     73 H          54.1562   59.5977    9.3258 H         1 FAD700      0.0000 
     74 H          63.3725   54.6942   14.9381 H         1 FAD700      0.0000 
     75 H          62.0570   54.3381   15.7918 H         1 FAD700      0.0000 
     76 H          62.2136   53.7877   14.2889 H         1 FAD700      0.0000 
     77 H          61.6286   54.1128   12.0051 H         1 FAD700      0.0000 
     78 H          60.3218   53.7475   12.8682 H         1 FAD700      0.0000 
     79 H          60.1767   54.5950   11.5093 H         1 FAD700      0.0000 
     80 H          49.6228   50.7302   13.1168 H         1 FAD700      0.0000 
     81 H          50.0043   48.8047   10.9953 H         1 FAD700      0.0000 
     82 H          56.1825   57.9654   12.9211 H         1 FAD700      0.0000 
     83 H          56.5144   59.5661    8.9699 H         1 FAD700      0.0000 
     84 H          53.8680   57.4327   11.8279 H         1 FAD700      0.0000 
@<TRIPOS>BOND
     1    2    1 ar   
     2    3    1 ar   
     3    4    1 1    
     4   53    1 1    
     5    5    4 1    
     6    6    5 1    
     7   54    5 1    
     8   55    5 1    
     9    7    6 1    
    10    8    6 1    
    11   56    6 1    
    12   12    7 1    
    13    9    8 1    
    14   10    8 1    
    15   57    8 1    
    16   80    9 1    
    17   11   10 1    
    18   12   10 1    
    19   58   10 1    
    20   81   11 1    
    21   13   12 1    
    22   59   12 1    
    23   14   13 1    
    24   22   13 1    
    25   15   14 2    
    26   60   14 1    
    27   16   15 1    
    28   17   16 ar   
    29   22   16 ar   
    30   18   17 1    
    31   19   17 ar   
    32   61   18 1    
    33   62   18 1    
    34   20   19 ar   
    35   21   20 ar   
    36   63   20 1    
    37   22   21 ar   
    38   24   23 1    
    39   40   23 2    
    40   25   24 2    
    41   26   24 am   
    42   27   26 am   
    43   64   26 1    
    44   28   27 2    
    45   29   27 1    
    46   30   29 2    
    47   40   29 1    
    48   31   30 1    
    49   32   31 ar   
    50   38   31 ar   
    51   33   32 ar   
    52   65   32 1    
    53   34   33 1    
    54   35   33 ar   
    55   74   34 1    
    56   75   34 1    
    57   76   34 1    
    58   36   35 1    
    59   37   35 ar   
    60   77   36 1    
    61   78   36 1    
    62   79   36 1    
    63   38   37 ar   
    64   66   37 1    
    65   39   38 1    
    66   40   39 1    
    67   41   39 1    
    68   42   41 1    
    69   67   41 1    
    70   68   41 1    
    71   43   42 1    
    72   44   42 1    
    73   69   42 1    
    74   82   43 1    
    75   45   44 1    
    76   46   44 1    
    77   70   44 1    
    78   83   45 1    
    79   47   46 1    
    80   48   46 1    
    81   71   46 1    
    82   84   47 1    
    83   49   48 1    
    84   72   48 1    
    85   73   48 1    
    86   50   49 1    
    87   51   50 ar   
    88   52   50 ar   
    89   53   50 1    
@<TRIPOS>SUBSTRUCTURE
     1 FAD700      1 GROUP   
@<TRIPOS>SET

