#    Name: 4da0_GNG_1_INTS_M
#    Modification time : Mon Apr  7 22:26:48 2014

@<TRIPOS>MOLECULE
4da0_GNG_1_INTS_M
   29     0     9     0     0
SMALL
NO_CHARGES


@<TRIPOS>ATOM
      1 CA         -4.5130  -53.3415  -24.0650 C.3       3 GLC5        0.0000 
      2 CA         -4.9250  -52.7080  -22.4290 C.3       9 GLL5        0.0000 
      3 CA         -4.1010  -53.9750  -25.7010 C.3       6 GLP5        0.0000 
      4 CA         -9.2550  -54.8670  -21.2500 C.3       3 GLC5        0.0000 
      5 CA         -8.1070  -53.2260  -21.9450 C.3       9 GLL5        0.0000 
      6 CA        -10.4030  -56.5080  -20.5550 C.3       6 GLP5        0.0000 
      7 N          -9.8990  -53.0295  -26.3295 N.am      2 SEC2        0.0000 
      8 N          -9.0010  -53.5290  -25.4650 N.am      8 SEL2        0.0000 
      9 N         -10.7970  -52.5300  -27.1940 N.am      5 SEP2        0.0000 
     10 CA        -10.2510  -54.6610  -24.7730 C.3       3 GLC5        0.0000 
     11 CA         -8.2230  -54.6210  -25.4170 C.3       9 GLL5        0.0000 
     12 CA        -12.2790  -54.7010  -24.1290 C.3       6 GLP5        0.0000 
     13 CA         -9.7805  -55.3850  -26.4555 C.3       3 GLC5        0.0000 
     14 CA        -11.3380  -56.1490  -27.4940 C.3       6 GLP5        0.0000 
     15 CA         -8.5185  -56.0265  -22.6340 C.3       3 GLC5        0.0000 
     16 CA         -7.7140  -54.7270  -24.0360 C.3       9 GLL5        0.0000 
     17 CA         -9.3230  -57.3260  -21.2320 C.3       6 GLP5        0.0000 
     18 CA         -8.4195  -55.7755  -21.0955 C.3       3 GLC5        0.0000 
     19 CA         -7.5160  -54.2250  -20.9590 C.3       9 GLL5        0.0000 
     20 CA         -6.3465  -55.7480  -20.5990 C.3       3 GLC5        0.0000 
     21 CA         -5.1770  -57.2710  -20.2390 C.3       6 GLP5        0.0000 
     22 O          -6.3715  -53.5240  -18.0230 O.2       1 ALC1        0.0000 
     23 O          -6.5680  -52.9560  -19.1790 O.2       7 ALL1        0.0000 
     24 O          -6.1750  -54.0920  -16.8670 O.2       4 ALP1        0.0000 
     25 CA         -3.9765  -51.5977  -20.9637 C.3       3 GLC5        0.0000 
     26 CA         -5.9810  -52.3770  -21.3760 C.3       9 GLL5        0.0000 
     27 CA         -2.5000  -50.6530  -20.0250 C.3       6 GLP5        0.0000 
     28 CA         -4.8812  -54.6441  -21.0761 C.3       3 GLC5        0.0000 
     29 CA         -3.9000  -56.2500  -20.9800 C.3       6 GLP5        0.0000 
@<TRIPOS>BOND
@<TRIPOS>SUBSTRUCTURE
     1 ALC1       22 GROUP        1 X    ALC  0     ROOT ALC X 1
     2 SEC2        7 GROUP        1 X    SEC  0     **** SEC X 2
     3 GLC5        1 GROUP        1 X    GLC  0     **** GLC X 6
     4 ALP1       24 GROUP        1 Y    ALP  0     ROOT ALP Y 8
     5 SEP2        9 GROUP        1 Y    SEP  0     **** SEP Y 9
     6 GLP5        3 GROUP        1 Y    GLP  0     **** GLP Y 13
     7 ALL1       23 GROUP        1 Z    ALL  0     ROOT ALL Z 15
     8 SEL2        8 GROUP        1 Z    SEL  0     **** SEL Z 16
     9 GLL5        2 GROUP        1 Z    GLL  0     **** GLL Z 20
@<TRIPOS>SET

