#    Name: 4da0_GNG_1_ligand
#    Modification time : Mon Apr  7 22:26:48 2014

@<TRIPOS>MOLECULE
4da0_GNG_1_ligand
   32    34     1     0     0
SMALL
NO_CHARGES


@<TRIPOS>ATOM
      1 O5'        -4.9140  -51.7390  -23.4890 O.3       1 GNG301      0.0000 
      2 C5'        -4.9250  -52.7080  -22.4290 C.3       1 GNG301      0.0000 
      3 C4'        -5.9810  -52.3770  -21.3760 C.3       1 GNG301      0.0000 
      4 O4'        -7.2310  -52.0980  -21.9940 O.3       1 GNG301      0.0000 
      5 C1'        -8.1070  -53.2260  -21.9450 C.3       1 GNG301      0.0000 
      6 N9         -8.2510  -53.6760  -23.3660 N.pl3     1 GNG301      0.0000 
      7 C8         -9.0030  -52.9730  -24.2350 C.2       1 GNG301      0.0000 
      8 N7         -9.0010  -53.5290  -25.4650 N.2       1 GNG301      0.0000 
      9 C5         -8.2230  -54.6210  -25.4170 C.2       1 GNG301      0.0000 
     10 C4         -7.7140  -54.7270  -24.0360 C.2       1 GNG301      0.0000 
     11 N3         -6.8880  -55.7800  -23.7510 N.pl3     1 GNG301      0.0000 
     12 C2         -6.5410  -56.7000  -24.6950 C.2       1 GNG301      0.0000 
     13 N1         -6.9880  -56.6430  -25.9730 N.2       1 GNG301      0.0000 
     14 C6         -7.8130  -55.6550  -26.3990 C.2       1 GNG301      0.0000 
     15 O6         -8.2530  -55.6060  -27.6940 O.2       1 GNG301      0.0000 
     16 N2         -5.7230  -57.7230  -24.3660 N.pl3     1 GNG301      0.0000 
     17 C2'        -7.5160  -54.2250  -20.9590 C.3       1 GNG301      0.0000 
     18 C3'        -6.2720  -53.5340  -20.4420 C.3       1 GNG301      0.0000 
     19 O3'        -6.5680  -52.9560  -19.1790 O.3       1 GNG301      0.0000 
     20 H          -3.9479  -52.7576  -21.9200 H         1 GNG301      0.0000 
     21 H          -5.1390  -53.7198  -22.8120 H         1 GNG301      0.0000 
     22 H          -5.6544  -51.5411  -20.7882 H         1 GNG301      0.0000 
     23 H          -9.0748  -52.8989  -21.5763 H         1 GNG301      0.0000 
     24 H          -9.4969  -52.1497  -24.0016 H         1 GNG301      0.0000 
     25 H          -6.5116  -55.8802  -22.7760 H         1 GNG301      0.0000 
     26 H          -5.4802  -58.3483  -25.1077 H         1 GNG301      0.0000 
     27 H          -5.4328  -57.7643  -23.4099 H         1 GNG301      0.0000 
     28 H          -7.2515  -55.1190  -21.4694 H         1 GNG301      0.0000 
     29 H          -8.1998  -54.3898  -20.1622 H         1 GNG301      0.0000 
     30 H          -5.4669  -54.1892  -20.4251 H         1 GNG301      0.0000 
     31 H          -3.9813  -51.3786  -23.5003 H         1 GNG301      0.0000 
     32 H          -6.2856  -53.6417  -18.5082 H         1 GNG301      0.0000 
@<TRIPOS>BOND
     1    2    1 1    
     2   31    1 1    
     3    3    2 1    
     4   20    2 1    
     5   21    2 1    
     6    4    3 1    
     7   18    3 1    
     8   22    3 1    
     9    5    4 1    
    10    6    5 1    
    11   17    5 1    
    12   23    5 1    
    13    7    6 1    
    14   10    6 1    
    15    8    7 2    
    16   24    7 1    
    17    9    8 1    
    18   10    9 2    
    19   14    9 1    
    20   11   10 1    
    21   12   11 1    
    22   25   11 1    
    23   13   12 2    
    24   16   12 1    
    25   14   13 1    
    26   15   14 2    
    27   26   16 1    
    28   27   16 1    
    29   18   17 1    
    30   28   17 1    
    31   29   17 1    
    32   19   18 1    
    33   30   18 1    
    34   32   19 1    
@<TRIPOS>SUBSTRUCTURE
     1 GNG301      1 GROUP   
@<TRIPOS>SET

