#    Name: 3af3_GCP_1_INTS_M
#    Modification time : Tue Mar 25 11:49:53 2014

@<TRIPOS>MOLECULE
3af3_GCP_1_INTS_M
   42     0     9     0     0
SMALL
NO_CHARGES


@<TRIPOS>ATOM
      1 NZ        -36.5800   32.4470    0.0570 N.4       2 LYC4        0.0000 
      2 NZ        -37.6940   32.9040   -1.0960 N.4       8 LYL4        0.0000 
      3 NZ        -35.4660   31.9900    1.2100 N.4       5 LYP4        0.0000 
      4 N         -37.2430   33.8370   -2.3415 N.am      1 SEC2        0.0000 
      5 N         -37.6940   32.9040   -1.0960 N.am      7 SEL2        0.0000 
      6 N         -36.7920   34.7700   -3.5870 N.am      4 SEP2        0.0000 
      7 N         -36.5800   32.4470    0.0570 N.am      1 SEC2        0.0000 
      8 N         -35.4660   31.9900    1.2100 N.am      4 SEP2        0.0000 
      9 N         -38.1085   34.2455   -3.0775 N.am      1 SEC2        0.0000 
     10 N         -39.4250   33.7210   -2.5680 N.am      7 SEL2        0.0000 
     11 CA        -37.4320   33.2085   -4.2285 C.3       3 GLC5        0.0000 
     12 CA        -38.1270   31.8310   -3.4080 C.3       9 GLL5        0.0000 
     13 CA        -36.7370   34.5860   -5.0490 C.3       6 GLP5        0.0000 
     14 N         -34.5970   31.4860   -4.5220 N.am      1 SEC2        0.0000 
     15 N         -35.6700   31.3340   -3.9530 N.am      7 SEL2        0.0000 
     16 N         -33.5240   31.6380   -5.0910 N.am      4 SEP2        0.0000 
     17 NZ        -35.8585   31.4300   -0.2055 N.4       2 LYC4        0.0000 
     18 NZ        -36.2510   30.8700   -1.6210 N.4       8 LYL4        0.0000 
     19 N         -35.8585   31.4300   -0.2055 N.am      1 SEC2        0.0000 
     20 N         -36.2510   30.8700   -1.6210 N.am      7 SEL2        0.0000 
     21 N         -35.2035   29.5815   -1.4525 N.am      1 SEC2        0.0000 
     22 N         -34.1560   28.2930   -1.2840 N.am      4 SEP2        0.0000 
     23 N         -36.4705   29.6735   -0.8885 N.am      1 SEC2        0.0000 
     24 N         -36.6900   28.4770   -0.1560 N.am      4 SEP2        0.0000 
     25 N         -34.8465   26.9985   -3.5455 N.am      1 SEC2        0.0000 
     26 N         -35.4280   27.9390   -4.1550 N.am      7 SEL2        0.0000 
     27 N         -34.2650   26.0580   -2.9360 N.am      4 SEP2        0.0000 
     28 N         -35.3280   26.7550   -4.9370 N.am      1 SEC2        0.0000 
     29 N         -35.2280   25.5710   -5.7190 N.am      4 SEP2        0.0000 
     30 N         -36.5270   26.3895   -4.9605 N.am      1 SEC2        0.0000 
     31 N         -37.8260   27.2080   -4.2020 N.am      7 SEL2        0.0000 
     32 N         -37.6630   25.7725   -4.0150 N.am      1 SEC2        0.0000 
     33 N         -37.5000   24.3370   -3.8280 N.am      4 SEP2        0.0000 
     34 CA        -38.7770   26.6105   -5.6350 C.3       3 GLC5        0.0000 
     35 CA        -39.0670   27.6670   -3.6860 C.3       9 GLL5        0.0000 
     36 CA        -38.4870   25.5540   -7.5840 C.3       6 GLP5        0.0000 
     37 CA        -37.9090   27.2295   -2.0412 C.3       3 GLC5        0.0000 
     38 CA        -39.8370   26.6810   -2.8190 C.3       9 GLL5        0.0000 
     39 CA        -36.3660   27.2850   -0.8300 C.3       6 GLP5        0.0000 
     40 CA        -44.5180   29.5345   -0.3363 C.3       3 GLC5        0.0000 
     41 CA        -43.3480   28.8920   -1.9400 C.3       9 GLL5        0.0000 
     42 CA        -45.6520   29.4900    1.2850 C.3       6 GLP5        0.0000 
@<TRIPOS>BOND
@<TRIPOS>SUBSTRUCTURE
     1 SEC2        4 GROUP        1 X    SEC  0     ROOT SEC X 2
     2 LYC4        1 GROUP        1 X    LYC  0     **** LYC X 4
     3 GLC5       11 GROUP        1 X    GLC  0     **** GLC X 6
     4 SEP2        6 GROUP        1 Y    SEP  0     ROOT SEP Y 9
     5 LYP4        3 GROUP        1 Y    LYP  0     **** LYP Y 11
     6 GLP5       13 GROUP        1 Y    GLP  0     **** GLP Y 13
     7 SEL2        5 GROUP        1 Z    SEL  0     ROOT SEL Z 16
     8 LYL4        2 GROUP        1 Z    LYL  0     **** LYL Z 18
     9 GLL5       12 GROUP        1 Z    GLL  0     **** GLL Z 20
@<TRIPOS>SET

