#    Name: 3af3_GCP_1_ligand
#    Modification time : Tue Mar 25 11:49:53 2014

@<TRIPOS>MOLECULE
3af3_GCP_1_ligand
   46    48     1     0     0
SMALL
NO_CHARGES


@<TRIPOS>ATOM
      1 PG        -38.8250   32.5500   -1.9530 P.3       1 GCP313      0.0000 
      2 O1G       -37.6940   32.9040   -1.0960 O.co2     1 GCP313      0.0000 
      3 O2G       -39.4250   33.7210   -2.5680 O.co2     1 GCP313      0.0000 
      4 O3G       -39.6990   31.5160   -1.3570 O.co2     1 GCP313      0.0000 
      5 C3B       -38.1270   31.8310   -3.4080 C.3       1 GCP313      0.0000 
      6 PB        -36.6840   30.8640   -3.0090 P.3       1 GCP313      0.0000 
      7 O1B       -35.6700   31.3340   -3.9530 O.co2     1 GCP313      0.0000 
      8 O2B       -36.2510   30.8700   -1.6210 O.co2     1 GCP313      0.0000 
      9 O3A       -37.2910   29.4110   -3.3370 O.3       1 GCP313      0.0000 
     10 PA        -36.7960   28.3690   -4.4690 P.3       1 GCP313      0.0000 
     11 O1A       -35.4280   27.9390   -4.1550 O.co2     1 GCP313      0.0000 
     12 O2A       -37.0680   28.9310   -5.8000 O.co2     1 GCP313      0.0000 
     13 O5'       -37.8260   27.2080   -4.2020 O.3       1 GCP313      0.0000 
     14 C5'       -39.0670   27.6670   -3.6860 C.3       1 GCP313      0.0000 
     15 C4'       -39.8370   26.6810   -2.8190 C.3       1 GCP313      0.0000 
     16 O4'       -40.1580   27.1680   -1.5090 O.3       1 GCP313      0.0000 
     17 C3'       -41.1650   26.5190   -3.4820 C.3       1 GCP313      0.0000 
     18 O3'       -41.0820   25.4460   -4.3990 O.3       1 GCP313      0.0000 
     19 C2'       -42.0800   26.2510   -2.3080 C.3       1 GCP313      0.0000 
     20 O2'       -41.8760   24.9090   -1.8730 O.3       1 GCP313      0.0000 
     21 C1'       -41.5620   27.1850   -1.2410 C.3       1 GCP313      0.0000 
     22 N9        -42.1330   28.5490   -1.4530 N.pl3     1 GCP313      0.0000 
     23 C8        -41.4750   29.6830   -1.1910 C.2       1 GCP313      0.0000 
     24 N7        -42.2510   30.7350   -1.5000 N.2       1 GCP313      0.0000 
     25 C5        -43.4200   30.2660   -1.9750 C.2       1 GCP313      0.0000 
     26 C6        -44.5620   30.8750   -2.4520 C.2       1 GCP313      0.0000 
     27 O6        -44.7060   32.0900   -2.5160 O.2       1 GCP313      0.0000 
     28 N1        -45.5760   30.1680   -2.8530 N.am      1 GCP313      0.0000 
     29 C2        -45.5350   28.8570   -2.8260 C.2       1 GCP313      0.0000 
     30 N2        -46.6460   28.2270   -3.2630 N.pl3     1 GCP313      0.0000 
     31 N3        -44.4340   28.2030   -2.3760 N.2       1 GCP313      0.0000 
     32 C4        -43.3480   28.8920   -1.9400 C.2       1 GCP313      0.0000 
     33 H         -37.8094   32.6079   -4.0178 H         1 GCP313      0.0000 
     34 H         -38.8296   31.1756   -3.7995 H         1 GCP313      0.0000 
     35 H         -39.7567   27.9834   -4.5164 H         1 GCP313      0.0000 
     36 H         -38.9291   28.6027   -3.0771 H         1 GCP313      0.0000 
     37 H         -39.3522   25.7474   -2.8058 H         1 GCP313      0.0000 
     38 H         -41.4310   27.4463   -3.9202 H         1 GCP313      0.0000 
     39 H         -43.0535   26.4880   -2.5516 H         1 GCP313      0.0000 
     40 H         -41.7925   26.7969   -0.3030 H         1 GCP313      0.0000 
     41 H         -40.5693   29.7413   -0.8304 H         1 GCP313      0.0000 
     42 H         -46.4519   30.6526   -3.2082 H         1 GCP313      0.0000 
     43 H         -46.6113   27.2276   -3.2697 H         1 GCP313      0.0000 
     44 H         -47.4050   28.8157   -3.5412 H         1 GCP313      0.0000 
     45 H         -40.3335   25.6900   -5.0156 H         1 GCP313      0.0000 
     46 H         -41.2947   24.4954   -2.5738 H         1 GCP313      0.0000 
@<TRIPOS>BOND
     1    2    1 ar   
     2    3    1 ar   
     3    4    1 ar   
     4    5    1 1    
     5    6    5 1    
     6   33    5 1    
     7   34    5 1    
     8    7    6 ar   
     9    8    6 ar   
    10    9    6 1    
    11   10    9 1    
    12   11   10 ar   
    13   12   10 ar   
    14   13   10 1    
    15   14   13 1    
    16   15   14 1    
    17   35   14 1    
    18   36   14 1    
    19   16   15 1    
    20   17   15 1    
    21   37   15 1    
    22   21   16 1    
    23   18   17 1    
    24   19   17 1    
    25   38   17 1    
    26   45   18 1    
    27   20   19 1    
    28   21   19 1    
    29   39   19 1    
    30   46   20 1    
    31   22   21 1    
    32   40   21 1    
    33   23   22 1    
    34   32   22 1    
    35   24   23 2    
    36   41   23 1    
    37   25   24 1    
    38   26   25 1    
    39   32   25 2    
    40   27   26 2    
    41   28   26 am   
    42   29   28 1    
    43   42   28 1    
    44   30   29 1    
    45   31   29 2    
    46   43   30 1    
    47   44   30 1    
    48   32   31 1    
@<TRIPOS>SUBSTRUCTURE
     1 GCP313      1 GROUP   
@<TRIPOS>SET

