#    Name: 3zcm_PX3_2_INTS_M
#    Modification time : Tue Mar 25 02:43:21 2014

@<TRIPOS>MOLECULE
3zcm_PX3_2_INTS_M
   78     0     9     0     0
SMALL
NO_CHARGES


@<TRIPOS>ATOM
      1 CA        -34.9210   36.0045  -18.6945 C.3       3 GLC5        0.0000 
      2 CA        -36.4590   34.6870  -18.8390 C.3       9 GLL5        0.0000 
      3 CA        -33.3830   37.3220  -18.5500 C.3       6 GLP5        0.0000 
      4 CA        -35.5205   36.3375  -17.5230 C.3       3 GLC5        0.0000 
      5 CA        -36.7140   34.6550  -17.4720 C.3       9 GLL5        0.0000 
      6 CA        -34.3270   38.0200  -17.5740 C.3       6 GLP5        0.0000 
      7 CA        -34.6615   33.4020  -10.5985 C.3       3 GLC5        0.0000 
      8 CA        -33.6480   32.4260  -12.2330 C.3       9 GLL5        0.0000 
      9 CA        -35.6750   34.3780   -8.9640 C.3       6 GLP5        0.0000 
     10 CA        -32.6890   31.0415   -9.8875 C.3       3 GLC5        0.0000 
     11 CA        -32.7070   32.7920  -11.2410 C.3       9 GLL5        0.0000 
     12 CA        -32.6710   29.2910   -8.5340 C.3       6 GLP5        0.0000 
     13 CA        -30.9990   30.9395  -14.7970 C.3       3 GLC5        0.0000 
     14 CA        -32.3270   29.5950  -14.2980 C.3       9 GLL5        0.0000 
     15 CA        -29.6710   32.2840  -15.2960 C.3       6 GLP5        0.0000 
     16 CA        -35.0220   29.6005  -11.2845 C.3       3 GLC5        0.0000 
     17 CA        -34.1480   28.8160  -12.9340 C.3       9 GLL5        0.0000 
     18 CA        -35.8960   30.3850   -9.6350 C.3       6 GLP5        0.0000 
     19 CA        -33.2415   27.0555  -12.2020 C.3       3 GLC5        0.0000 
     20 CA        -32.3350   25.2950  -11.4700 C.3       6 GLP5        0.0000 
     21 CA        -31.2965   33.2815  -14.4755 C.3       3 GLC5        0.0000 
     22 CA        -32.9220   34.2790  -13.6550 C.3       9 GLL5        0.0000 
     23 CA        -30.2745   33.3070  -10.2225 C.3       3 GLC5        0.0000 
     24 CA        -31.9340   33.8920  -11.4720 C.3       9 GLL5        0.0000 
     25 CA        -28.6150   32.7220   -8.9730 C.3       6 GLP5        0.0000 
     26 CA        -30.5050   34.1540  -14.0670 C.3       3 GLC5        0.0000 
     27 CA        -32.0000   34.6220  -12.6570 C.3       9 GLL5        0.0000 
     28 CA        -29.0100   33.6860  -15.4770 C.3       6 GLP5        0.0000 
     29 CA        -32.3120   27.7465  -11.7225 C.3       3 GLC5        0.0000 
     30 CA        -32.8530   29.2540  -13.0650 C.3       9 GLL5        0.0000 
     31 CA        -31.7710   26.2390  -10.3800 C.3       6 GLP5        0.0000 
     32 CA        -28.8220   34.3105  -11.2295 C.3       3 GLC5        0.0000 
     33 CA        -30.3720   35.4570  -11.3930 C.3       9 GLL5        0.0000 
     34 CA        -27.2720   33.1640  -11.0660 C.3       6 GLP5        0.0000 
     35 CA        -28.9485   36.7250  -11.2450 C.3       3 GLC5        0.0000 
     36 CA        -27.5250   37.9930  -11.0970 C.3       6 GLP5        0.0000 
     37 CA        -31.6960   29.4340  -10.2930 C.3       3 GLC5        0.0000 
     38 CA        -30.7210   29.5770  -12.0520 C.3       9 GLL5        0.0000 
     39 CA        -29.6675   30.3805  -10.4980 C.3       3 GLC5        0.0000 
     40 CA        -28.6140   31.1840   -8.9440 C.3       6 GLP5        0.0000 
     41 CA        -28.9965   29.4310  -12.8920 C.3       3 GLC5        0.0000 
     42 CA        -27.2720   29.2850  -13.7320 C.3       6 GLP5        0.0000 
     43 CA        -31.2460   27.9080  -11.2160 C.3       3 GLC5        0.0000 
     44 CA        -30.1960   30.9305  -13.6740 C.3       3 GLC5        0.0000 
     45 O         -34.5245   30.5035  -17.9145 O.2       1 ALC1        0.0000 
     46 O         -35.6440   30.0940  -17.1390 O.2       7 ALL1        0.0000 
     47 O         -33.4050   30.9130  -18.6900 O.2       4 ALP1        0.0000 
     48 N         -30.5615   35.0400  -14.8195 N.am      2 SEC2        0.0000 
     49 N         -31.7840   35.5660  -15.2950 N.am      8 SEL2        0.0000 
     50 N         -29.3390   34.5140  -14.3440 N.am      5 SEP2        0.0000 
     51 N         -31.5230   36.5930  -16.3060 N.am      2 SEC2        0.0000 
     52 N         -31.2620   37.6200  -17.3170 N.am      5 SEP2        0.0000 
     53 N         -33.6550   35.5235  -16.9365 N.am      2 SEC2        0.0000 
     54 N         -33.9820   35.1400  -15.6110 N.am      8 SEL2        0.0000 
     55 N         -33.3280   35.9070  -18.2620 N.am      5 SEP2        0.0000 
     56 N         -31.5050   37.1125  -13.2855 N.am      2 SEC2        0.0000 
     57 N         -31.1350   35.6820  -12.6150 N.am      8 SEL2        0.0000 
     58 N         -31.8750   38.5430  -13.9560 N.am      5 SEP2        0.0000 
     59 CA        -34.7915   31.7710  -20.1180 C.3       3 GLC5        0.0000 
     60 CA        -36.2790   33.5270  -19.5220 C.3       9 GLL5        0.0000 
     61 CA        -33.2810   30.6350  -21.0520 C.3       6 GLP5        0.0000 
     62 CA        -34.5490   33.8635  -18.9303 C.3       3 GLC5        0.0000 
     63 CA        -32.7290   33.6200  -18.6800 C.3       6 GLP5        0.0000 
     64 CA        -34.5892   32.9432  -18.4190 C.3       3 GLC5        0.0000 
     65 CA        -36.3250   32.2870  -18.8460 C.3       9 GLL5        0.0000 
     66 CA        -34.7343   33.8370  -17.9080 C.3       3 GLC5        0.0000 
     67 CA        -36.7650   33.4530  -16.8000 C.3       9 GLL5        0.0000 
     68 CA        -34.5368   31.4970  -10.6860 C.3       3 GLC5        0.0000 
     69 CA        -31.4887   29.1140  -16.1595 C.3       3 GLC5        0.0000 
     70 CA        -30.2280   28.7100  -17.4730 C.3       6 GLP5        0.0000 
     71 CA        -35.6195   27.2485  -13.0930 C.3       3 GLC5        0.0000 
     72 CA        -34.9520   28.6580  -14.0580 C.3       9 GLL5        0.0000 
     73 CA        -36.6890   25.7600  -12.6900 C.3       6 GLP5        0.0000 
     74 CA        -33.3903   33.9125   -9.7043 C.3       3 GLC5        0.0000 
     75 CA        -34.4600   34.4830   -8.0520 C.3       6 GLP5        0.0000 
     76 CA        -36.8055   31.8537  -10.8777 C.3       3 GLC5        0.0000 
     77 CA        -37.0760   33.2780  -12.3360 C.3       9 GLL5        0.0000 
     78 CA        -36.3658   34.1181  -10.7939 C.3       3 GLC5        0.0000 
@<TRIPOS>BOND
@<TRIPOS>SUBSTRUCTURE
     1 ALC1       45 GROUP        1 X    ALC  0     ROOT ALC X 1
     2 SEC2       48 GROUP        1 X    SEC  0     **** SEC X 2
     3 GLC5        1 GROUP        1 X    GLC  0     **** GLC X 6
     4 ALP1       47 GROUP        1 Y    ALP  0     ROOT ALP Y 8
     5 SEP2       50 GROUP        1 Y    SEP  0     **** SEP Y 9
     6 GLP5        3 GROUP        1 Y    GLP  0     **** GLP Y 13
     7 ALL1       46 GROUP        1 Z    ALL  0     ROOT ALL Z 15
     8 SEL2       49 GROUP        1 Z    SEL  0     **** SEL Z 16
     9 GLL5        2 GROUP        1 Z    GLL  0     **** GLL Z 20
@<TRIPOS>SET

