#    Name: 3zcm_PX3_2_ligand
#    Modification time : Tue Mar 25 02:43:21 2014

@<TRIPOS>MOLECULE
3zcm_PX3_2_ligand
   62    65     1     0     0
SMALL
NO_CHARGES


@<TRIPOS>ATOM
      1 C1        -36.2790   33.5270  -19.5220 C.ar      1 PX31216     0.0000 
      2 C2        -36.4590   34.6870  -18.8390 C.ar      1 PX31216     0.0000 
      3 C3        -36.3250   32.2870  -18.8460 C.ar      1 PX31216     0.0000 
      4 C4        -36.7140   34.6550  -17.4720 C.ar      1 PX31216     0.0000 
      5 C5        -33.6480   32.4260  -12.2330 C.ar      1 PX31216     0.0000 
      6 C6        -33.1720   29.4410  -15.3940 C.ar      1 PX31216     0.0000 
      7 C7        -34.9520   28.6580  -14.0580 C.ar      1 PX31216     0.0000 
      8 C8        -32.7070   32.7920  -11.2410 C.ar      1 PX31216     0.0000 
      9 C9        -32.3270   29.5950  -14.2980 C.ar      1 PX31216     0.0000 
     10 C10       -34.1480   28.8160  -12.9340 C.ar      1 PX31216     0.0000 
     11 C11       -36.5740   32.2460  -17.4700 C.ar      1 PX31216     0.0000 
     12 C12       -32.9220   34.2790  -13.6550 C.ar      1 PX31216     0.0000 
     13 C13       -34.4690   28.9810  -15.3060 C.ar      1 PX31216     0.0000 
     14 C14       -36.7650   33.4530  -16.8000 C.ar      1 PX31216     0.0000 
     15 C24       -35.3680   28.8040  -16.5300 C.3       1 PX31216     0.0000 
     16 C15       -33.7620   33.1670  -13.4300 C.ar      1 PX31216     0.0000 
     17 C16       -31.9340   33.8920  -11.4720 C.ar      1 PX31216     0.0000 
     18 C17       -32.0000   34.6220  -12.6570 C.ar      1 PX31216     0.0000 
     19 C18       -32.8530   29.2540  -13.0650 C.ar      1 PX31216     0.0000 
     20 C19       -38.3540   33.3670  -11.9050 C.2       1 PX31216     0.0000 
     21 C20       -37.0760   33.2780  -12.3360 C.2       1 PX31216     0.0000 
     22 C21       -36.6340   30.9300  -16.8140 C.2       1 PX31216     0.0000 
     23 C22       -32.9240   35.0880  -14.9370 C.2       1 PX31216     0.0000 
     24 C23       -30.3720   35.4570  -11.3930 C.3       1 PX31216     0.0000 
     25 C25       -30.7210   29.5770  -12.0520 C.3       1 PX31216     0.0000 
     26 C26       -37.0760   33.4910  -15.3140 C.3       1 PX31216     0.0000 
     27 C27       -34.8010   32.7090  -14.4120 C.3       1 PX31216     0.0000 
     28 C28       -36.3980   34.3940  -13.1270 C.3       1 PX31216     0.0000 
     29 N32       -35.6440   30.0940  -17.1390 N.am      1 PX31216     0.0000 
     30 N33       -35.8710   33.8120  -14.4250 N.4       1 PX31216     0.0000 
     31 O34       -31.7840   35.5660  -15.2950 O.co2     1 PX31216     0.0000 
     32 O35       -37.4710   30.5910  -15.9700 O.2       1 PX31216     0.0000 
     33 O36       -33.9820   35.1400  -15.6110 O.co2     1 PX31216     0.0000 
     34 O37       -31.0220   34.4180  -10.6240 O.3       1 PX31216     0.0000 
     35 O38       -31.1350   35.6820  -12.6150 O.3       1 PX31216     0.0000 
     36 O39       -32.1370   29.3510  -11.8490 O.3       1 PX31216     0.0000 
     37 H         -36.1063   33.5253  -20.5398 H         1 PX31216     0.0000 
     38 H         -36.4094   35.5997  -19.3208 H         1 PX31216     0.0000 
     39 H         -36.1749   31.4200  -19.3700 H         1 PX31216     0.0000 
     40 H         -36.8653   35.5409  -16.9625 H         1 PX31216     0.0000 
     41 H         -34.2541   31.6123  -12.0794 H         1 PX31216     0.0000 
     42 H         -32.7916   29.6931  -16.3477 H         1 PX31216     0.0000 
     43 H         -35.9127   28.2970  -13.9494 H         1 PX31216     0.0000 
     44 H         -32.6285   32.2392  -10.3951 H         1 PX31216     0.0000 
     45 H         -31.3883   29.9352  -14.4017 H         1 PX31216     0.0000 
     46 H         -34.5339   28.6009  -12.0002 H         1 PX31216     0.0000 
     47 H         -36.2918   28.3148  -16.2054 H         1 PX31216     0.0000 
     48 H         -34.8586   28.1367  -17.2323 H         1 PX31216     0.0000 
     49 H         -36.4757   32.4557  -12.1612 H         1 PX31216     0.0000 
     50 H         -29.3461   35.1602  -11.6435 H         1 PX31216     0.0000 
     51 H         -30.3187   36.3851  -10.8107 H         1 PX31216     0.0000 
     52 H         -37.4921   32.5152  -15.0059 H         1 PX31216     0.0000 
     53 H         -37.8627   34.2437  -15.1277 H         1 PX31216     0.0000 
     54 H         -35.2471   31.7936  -14.0858 H         1 PX31216     0.0000 
     55 H         -34.3787   32.6206  -15.3904 H         1 PX31216     0.0000 
     56 H         -35.5789   34.7958  -12.5484 H         1 PX31216     0.0000 
     57 H         -37.1190   35.1695  -13.3413 H         1 PX31216     0.0000 
     58 H         -34.9600   30.3616  -17.9230 H         1 PX31216     0.0000 
     59 H         -35.3842   34.7141  -14.9742 H         1 PX31216     0.0000 
     60 H         -30.2280   29.6469  -11.1848 H         1 PX31216     0.0000 
     61 H         -30.2971   28.8348  -12.5711 H         1 PX31216     0.0000 
     62 H         -30.5485   30.4231  -12.5563 H         1 PX31216     0.0000 
@<TRIPOS>BOND
     1    2    1 ar   
     2    3    1 ar   
     3   37    1 1    
     4    4    2 ar   
     5   38    2 1    
     6   11    3 ar   
     7   39    3 1    
     8   14    4 ar   
     9   40    4 1    
    10    8    5 ar   
    11   16    5 ar   
    12   41    5 1    
    13    9    6 ar   
    14   13    6 ar   
    15   42    6 1    
    16   10    7 ar   
    17   13    7 ar   
    18   43    7 1    
    19   17    8 ar   
    20   44    8 1    
    21   19    9 ar   
    22   45    9 1    
    23   19   10 ar   
    24   46   10 1    
    25   14   11 ar   
    26   22   11 1    
    27   16   12 ar   
    28   18   12 ar   
    29   23   12 1    
    30   15   13 1    
    31   26   14 1    
    32   29   15 1    
    33   47   15 1    
    34   48   15 1    
    35   27   16 1    
    36   18   17 ar   
    37   34   17 1    
    38   35   18 1    
    39   36   19 1    
    40   21   20 2    
    41   28   21 1    
    42   49   21 1    
    43   29   22 am   
    44   32   22 2    
    45   31   23 ar   
    46   33   23 ar   
    47   34   24 1    
    48   35   24 1    
    49   50   24 1    
    50   51   24 1    
    51   36   25 1    
    52   60   25 1    
    53   61   25 1    
    54   62   25 1    
    55   30   26 1    
    56   52   26 1    
    57   53   26 1    
    58   30   27 1    
    59   54   27 1    
    60   55   27 1    
    61   30   28 1    
    62   56   28 1    
    63   57   28 1    
    64   58   29 1    
    65   59   30 1    
@<TRIPOS>SUBSTRUCTURE
     1 PX31216     1 GROUP   
@<TRIPOS>SET

