#    Name: 2y05_NAP_5_INTS_M
#    Modification time : Tue Mar 25 07:18:19 2014

@<TRIPOS>MOLECULE
2y05_NAP_5_INTS_M
  101     0    12     0     0
SMALL
NO_CHARGES


@<TRIPOS>ATOM
      1 N          23.4240   75.2970   -2.2380 N.am      2 SEC2        0.0000 
      2 N          24.5880   75.0120   -1.4290 N.am     10 SEL2        0.0000 
      3 N          22.2600   75.5820   -3.0470 N.am      6 SEP2        0.0000 
      4 N          24.2620   74.6985   -0.0410 N.am      2 SEC2        0.0000 
      5 N          23.9360   74.3850    1.3470 N.am      6 SEP2        0.0000 
      6 CA         28.7280   73.5960   -2.0485 C.3       4 GLC5        0.0000 
      7 CA         27.2850   72.2630   -1.2390 C.3      12 GLL5        0.0000 
      8 CA         30.1710   74.9290   -2.8580 C.3       8 GLP5        0.0000 
      9 CA         28.4360   73.4715   -0.3110 C.3       4 GLC5        0.0000 
     10 CA         29.5870   74.6800    0.6170 C.3       8 GLP5        0.0000 
     11 CA         25.5685   70.2610   -2.9210 C.3       4 GLC5        0.0000 
     12 CA         26.5200   70.9520   -1.1410 C.3      12 GLL5        0.0000 
     13 CA         24.6170   69.5700   -4.7010 C.3       8 GLP5        0.0000 
     14 O          25.2325   72.0090    1.7355 O.2       1 ALC1        0.0000 
     15 O          25.1910   70.9560    0.9120 O.2       9 ALL1        0.0000 
     16 O          25.2740   73.0620    2.5590 O.2       5 ALP1        0.0000 
     17 N          23.7510   68.9450    1.0465 N.am      2 SEC2        0.0000 
     18 N          24.8660   68.5990   -0.0970 N.am     10 SEL2        0.0000 
     19 N          22.6360   69.2910    2.1900 N.am      6 SEP2        0.0000 
     20 CA         25.7900   69.1295   -2.9755 C.3       4 GLC5        0.0000 
     21 CA         26.9630   68.6890   -1.2500 C.3      12 GLL5        0.0000 
     22 CA         28.5205   68.7765   -2.7255 C.3       4 GLC5        0.0000 
     23 CA         30.0780   68.8640   -4.2010 C.3       8 GLP5        0.0000 
     24 CA         31.5050   65.1455   -3.1545 C.3       4 GLC5        0.0000 
     25 CA         29.8720   64.8990   -2.0080 C.3      12 GLL5        0.0000 
     26 CA         33.1380   65.3920   -4.3010 C.3       8 GLP5        0.0000 
     27 CA         28.3740   64.6675   -4.7655 C.3       4 GLC5        0.0000 
     28 CA         27.8210   64.7900   -3.1100 C.3      12 GLL5        0.0000 
     29 CA         28.9270   64.5450   -6.4210 C.3       8 GLP5        0.0000 
     30 N          23.8380   75.8425   -5.1855 N.am      2 SEC2        0.0000 
     31 N          25.0050   75.4680   -4.5540 N.am     10 SEL2        0.0000 
     32 N          22.6710   76.2170   -5.8170 N.am      6 SEP2        0.0000 
     33 CA         28.6600   74.3660   -4.3055 C.3       4 GLC5        0.0000 
     34 CA         27.1490   73.8030   -5.7530 C.3      12 GLL5        0.0000 
     35 CA         26.0030   75.3945   -6.7215 C.3       4 GLC5        0.0000 
     36 CA         24.8570   76.9860   -7.6900 C.3       8 GLP5        0.0000 
     37 CA         29.8715   74.0845   -4.5710 C.3       4 GLC5        0.0000 
     38 CA         29.5720   73.2400   -6.2840 C.3      12 GLL5        0.0000 
     39 CA         30.3270   72.4510   -8.2000 C.3       4 GLC5        0.0000 
     40 CA         31.0820   71.6620  -10.1160 C.3       8 GLP5        0.0000 
     41 CA         30.4085   71.5090   -5.2630 C.3       4 GLC5        0.0000 
     42 CA         31.2450   69.7780   -4.2420 C.3       8 GLP5        0.0000 
     43 O          29.7385   70.8300   -7.2850 O.2       1 ALC1        0.0000 
     44 O          30.1730   72.1010   -6.9590 O.2       9 ALL1        0.0000 
     45 O          29.3040   69.5590   -7.6110 O.2       5 ALP1        0.0000 
     46 CA         30.9115   74.6515   -5.0495 C.3       4 GLC5        0.0000 
     47 CA         30.2210   74.5500   -6.7530 C.3      12 GLL5        0.0000 
     48 CA         31.6020   74.7530   -3.3460 C.3       8 GLP5        0.0000 
     49 N          32.4695   73.4465   -7.3275 N.am      2 SEC2        0.0000 
     50 N          31.5840   74.4000   -6.9290 N.am     10 SEL2        0.0000 
     51 N          33.3550   72.4930   -7.7260 N.am      6 SEP2        0.0000 
     52 CA         28.5235   74.6590   -9.7405 C.3       4 GLC5        0.0000 
     53 CA         29.5710   74.7020   -8.1150 C.3      12 GLL5        0.0000 
     54 CA         27.4760   74.6160  -11.3660 C.3       8 GLP5        0.0000 
     55 CA         30.3265   73.1820   -9.1155 C.3       4 GLC5        0.0000 
     56 N          30.2185   79.8965  -13.2735 N.am      2 SEC2        0.0000 
     57 N          30.4130   78.9900  -12.2340 N.am     10 SEL2        0.0000 
     58 N          30.0240   80.8030  -14.3130 N.am      6 SEP2        0.0000 
     59 O          30.7835   75.3535  -12.1155 O.2       1 ALC1        0.0000 
     60 O          30.7350   76.7670  -12.5400 O.2       9 ALL1        0.0000 
     61 O          30.8320   73.9400  -11.6910 O.2       5 ALP1        0.0000 
     62 O          31.0665   76.7245  -13.9265 O.2       1 ALC1        0.0000 
     63 O          31.3980   76.6820  -15.3130 O.2       5 ALP1        0.0000 
     64 CA         29.2305   80.3990  -10.8085 C.3       4 GLC5        0.0000 
     65 CA         29.2540   78.5860   -9.7370 C.3      12 GLL5        0.0000 
     66 CA         29.2070   82.2120  -11.8800 C.3       8 GLP5        0.0000 
     67 CA         28.1615   75.8415   -9.6495 C.3       4 GLC5        0.0000 
     68 CA         28.8470   77.0670   -7.9330 C.3      12 GLL5        0.0000 
     69 N          25.9995   64.9945   -0.2695 N.am      2 SEC2        0.0000 
     70 N          25.6200   66.1720    0.0390 N.am     10 SEL2        0.0000 
     71 N          26.3790   63.8170   -0.5780 N.am      6 SEP2        0.0000 
     72 NZ         23.1785   68.1025    1.8150 N.4       3 LYC4        0.0000 
     73 NZ         23.7210   66.9140    1.4400 N.4      11 LYL4        0.0000 
     74 NZ         22.6360   69.2910    2.1900 N.4       7 LYP4        0.0000 
     75 N          22.7470   65.7770    0.8190 N.am      2 SEC2        0.0000 
     76 N          23.7210   66.9140    1.4400 N.am     10 SEL2        0.0000 
     77 N          21.7730   64.6400    0.1980 N.am      6 SEP2        0.0000 
     78 N          23.8520   66.4490    2.5720 N.am      2 SEC2        0.0000 
     79 N          23.9830   65.9840    3.7040 N.am      6 SEP2        0.0000 
     80 CA         28.7963   71.3907   -1.6825 C.3       4 GLC5        0.0000 
     81 CA         30.6900   71.1740   -2.1750 C.3       8 GLP5        0.0000 
     82 CA         26.3038   69.4187    1.9218 C.3       4 GLC5        0.0000 
     83 CA         26.3750   70.4610    0.2730 C.3      12 GLL5        0.0000 
     84 CA         26.3000   69.1360    3.6730 C.3       8 GLP5        0.0000 
     85 CA         29.4755   67.6218   -2.9225 C.3       4 GLC5        0.0000 
     86 CA         28.2540   66.6430   -1.8110 C.3      12 GLL5        0.0000 
     87 CA         27.0343   71.8900   -7.2263 C.3       4 GLC5        0.0000 
     88 CA         28.1360   73.4010   -6.8080 C.3      12 GLL5        0.0000 
     89 CA         26.4260   70.1780   -8.1720 C.3       8 GLP5        0.0000 
     90 CA         31.8783   73.1985   -5.9582 C.3       4 GLC5        0.0000 
     91 CA         33.8600   72.5020   -5.3980 C.3       8 GLP5        0.0000 
     92 CA         28.1483   77.3660  -10.8475 C.3       4 GLC5        0.0000 
     93 CA         29.9570   76.3080   -9.9170 C.3      12 GLL5        0.0000 
     94 CA         26.3860   77.7930  -11.5150 C.3       8 GLP5        0.0000 
     95 CA         28.6932   75.7775  -10.7730 C.3       4 GLC5        0.0000 
     96 CA         29.8640   77.5700  -10.4430 C.3      12 GLL5        0.0000 
     97 CA         28.6067   80.2150   -8.6408 C.3       4 GLC5        0.0000 
     98 CA         28.2190   81.9720   -8.1720 C.3       8 GLP5        0.0000 
     99 CA         26.8240   77.3423   -7.9488 C.3       4 GLC5        0.0000 
    100 CA         28.7350   78.3300   -8.4820 C.3      12 GLL5        0.0000 
    101 CA         27.6534   77.7777  -10.0181 C.3       4 GLC5        0.0000 
@<TRIPOS>BOND
@<TRIPOS>SUBSTRUCTURE
     1 ALC1       14 GROUP        1 X    ALC  0     ROOT ALC X 1
     2 SEC2        1 GROUP        1 X    SEC  0     **** SEC X 2
     3 LYC4       72 GROUP        1 X    LYC  0     **** LYC X 4
     4 GLC5        6 GROUP        1 X    GLC  0     **** GLC X 6
     5 ALP1       16 GROUP        1 Y    ALP  0     ROOT ALP Y 8
     6 SEP2        3 GROUP        1 Y    SEP  0     **** SEP Y 9
     7 LYP4       74 GROUP        1 Y    LYP  0     **** LYP Y 11
     8 GLP5        8 GROUP        1 Y    GLP  0     **** GLP Y 13
     9 ALL1       15 GROUP        1 Z    ALL  0     ROOT ALL Z 15
    10 SEL2        2 GROUP        1 Z    SEL  0     **** SEL Z 16
    11 LYL4       73 GROUP        1 Z    LYL  0     **** LYL Z 18
    12 GLL5        7 GROUP        1 Z    GLL  0     **** GLL Z 20
@<TRIPOS>SET

