#    Name: 2y05_NAP_5_ligand
#    Modification time : Tue Mar 25 07:18:19 2014

@<TRIPOS>MOLECULE
2y05_NAP_5_ligand
   73    77     1     0     0
SMALL
NO_CHARGES


@<TRIPOS>ATOM
      1 PA         25.6310   73.9810   -2.1040 P.3       1 NAP701      0.0000 
      2 O1A        24.5880   75.0120   -1.4290 O.co2     1 NAP701      0.0000 
      3 O2A        24.9930   72.9860   -3.0210 O.co2     1 NAP701      0.0000 
      4 O5B        26.4450   73.3470   -0.9380 O.3       1 NAP701      0.0000 
      5 C5B        27.2850   72.2630   -1.2390 C.3       1 NAP701      0.0000 
      6 C4B        26.5200   70.9520   -1.1410 C.3       1 NAP701      0.0000 
      7 O4B        27.4510   69.9810   -1.6960 O.3       1 NAP701      0.0000 
      8 C3B        26.3750   70.4610    0.2730 C.3       1 NAP701      0.0000 
      9 O3B        25.1910   70.9560    0.9120 O.3       1 NAP701      0.0000 
     10 C2B        26.2400   68.9420    0.0680 C.3       1 NAP701      0.0000 
     11 O2B        24.8660   68.5990   -0.0970 O.3       1 NAP701      0.0000 
     12 C1B        26.9630   68.6890   -1.2500 C.3       1 NAP701      0.0000 
     13 N9A        28.1330   67.7940   -1.1670 N.pl3     1 NAP701      0.0000 
     14 C8A        29.2510   67.9970   -0.4760 C.2       1 NAP701      0.0000 
     15 N7A        30.0820   66.9710   -0.6730 N.2       1 NAP701      0.0000 
     16 C5A        29.4920   66.1160   -1.4770 C.ar      1 NAP701      0.0000 
     17 C6A        29.8720   64.8990   -2.0080 C.ar      1 NAP701      0.0000 
     18 N6A        31.0590   64.3830   -1.7210 N.pl3     1 NAP701      0.0000 
     19 N1A        29.0150   64.2710   -2.8330 N.ar      1 NAP701      0.0000 
     20 C2A        27.8210   64.7900   -3.1100 C.ar      1 NAP701      0.0000 
     21 N3A        27.4270   65.9540   -2.6150 N.ar      1 NAP701      0.0000 
     22 C4A        28.2540   66.6430   -1.8110 C.ar      1 NAP701      0.0000 
     23 O3         26.7350   74.8500   -2.9280 O.3       1 NAP701      0.0000 
     24 PN         26.4130   75.7030   -4.2090 P.3       1 NAP701      0.0000 
     25 O1N        26.8400   77.0950   -3.9490 O.co2     1 NAP701      0.0000 
     26 O2N        25.0050   75.4680   -4.5540 O.co2     1 NAP701      0.0000 
     27 O5D        27.4100   75.0730   -5.2490 O.3       1 NAP701      0.0000 
     28 C5D        27.1490   73.8030   -5.7530 C.3       1 NAP701      0.0000 
     29 C4D        28.1360   73.4010   -6.8080 C.3       1 NAP701      0.0000 
     30 O4D        28.1680   74.4430   -7.8030 O.3       1 NAP701      0.0000 
     31 C3D        29.5720   73.2400   -6.2840 C.3       1 NAP701      0.0000 
     32 O3D        30.1730   72.1010   -6.9590 O.3       1 NAP701      0.0000 
     33 C2D        30.2210   74.5500   -6.7530 C.3       1 NAP701      0.0000 
     34 O2D        31.5840   74.4000   -6.9290 O.3       1 NAP701      0.0000 
     35 C1D        29.5710   74.7020   -8.1150 C.3       1 NAP701      0.0000 
     36 N1N        29.4710   76.0590   -8.6560 N.pl3     1 NAP701      0.0000 
     37 C2N        29.9570   76.3080   -9.9170 C.ar      1 NAP701      0.0000 
     38 C3N        29.8640   77.5700  -10.4430 C.ar      1 NAP701      0.0000 
     39 C7N        30.3800   77.8370  -11.8210 C.2       1 NAP701      0.0000 
     40 O7N        30.4130   78.9900  -12.2340 O.2       1 NAP701      0.0000 
     41 N7N        30.7350   76.7670  -12.5400 N.am      1 NAP701      0.0000 
     42 C4N        29.2540   78.5860   -9.7370 C.ar      1 NAP701      0.0000 
     43 C5N        28.7350   78.3300   -8.4820 C.ar      1 NAP701      0.0000 
     44 C6N        28.8470   77.0670   -7.9330 C.ar      1 NAP701      0.0000 
     45 P2B        24.3130   67.0810    0.0010 P.3       1 NAP701      0.0000 
     46 O1X        25.6200   66.1720    0.0390 O.co2     1 NAP701      0.0000 
     47 O2X        23.7210   66.9140    1.4400 O.co2     1 NAP701      0.0000 
     48 O3X        23.3610   66.8080   -1.0990 O.co2     1 NAP701      0.0000 
     49 H          28.1431   72.1975   -0.5488 H         1 NAP701      0.0000 
     50 H          27.6993   72.3286   -2.2593 H         1 NAP701      0.0000 
     51 H          25.6420   70.9681   -1.6487 H         1 NAP701      0.0000 
     52 H          27.2631   70.6353    0.8034 H         1 NAP701      0.0000 
     53 H          26.7279   68.4440    0.8350 H         1 NAP701      0.0000 
     54 H          26.2529   68.3187   -1.9690 H         1 NAP701      0.0000 
     55 H          29.4375   68.7734    0.0877 H         1 NAP701      0.0000 
     56 H          31.2497   63.4787   -2.1029 H         1 NAP701      0.0000 
     57 H          31.6562   64.9448   -1.1485 H         1 NAP701      0.0000 
     58 H          27.1642   64.2510   -3.7494 H         1 NAP701      0.0000 
     59 H          26.1320   73.7348   -6.2010 H         1 NAP701      0.0000 
     60 H          27.1746   73.0263   -4.9556 H         1 NAP701      0.0000 
     61 H          27.8328   72.4742   -7.2591 H         1 NAP701      0.0000 
     62 H          29.5624   73.1917   -5.2610 H         1 NAP701      0.0000 
     63 H          29.9032   75.3219   -6.1410 H         1 NAP701      0.0000 
     64 H          29.9095   74.0067   -8.7906 H         1 NAP701      0.0000 
     65 H          30.3897   75.5471  -10.4639 H         1 NAP701      0.0000 
     66 H          31.0660   76.9491  -13.4659 H         1 NAP701      0.0000 
     67 H          30.6376   75.8807  -12.0873 H         1 NAP701      0.0000 
     68 H          29.1852   79.5297  -10.1415 H         1 NAP701      0.0000 
     69 H          28.2644   79.0813   -7.9556 H         1 NAP701      0.0000 
     70 H          28.4724   76.8720   -6.9970 H         1 NAP701      0.0000 
     71 H          25.4927   71.7545    1.4329 H         1 NAP701      0.0000 
     72 H          29.4741   71.3863   -6.9325 H         1 NAP701      0.0000 
     73 H          31.9954   74.7861   -6.1034 H         1 NAP701      0.0000 
@<TRIPOS>BOND
     1    2    1 ar   
     2    3    1 ar   
     3    4    1 1    
     4   23    1 1    
     5    5    4 1    
     6    6    5 1    
     7   49    5 1    
     8   50    5 1    
     9    7    6 1    
    10    8    6 1    
    11   51    6 1    
    12   12    7 1    
    13    9    8 1    
    14   10    8 1    
    15   52    8 1    
    16   71    9 1    
    17   11   10 1    
    18   12   10 1    
    19   53   10 1    
    20   45   11 1    
    21   13   12 1    
    22   54   12 1    
    23   14   13 1    
    24   22   13 1    
    25   15   14 2    
    26   55   14 1    
    27   16   15 1    
    28   17   16 ar   
    29   22   16 ar   
    30   18   17 1    
    31   19   17 ar   
    32   56   18 1    
    33   57   18 1    
    34   20   19 ar   
    35   21   20 ar   
    36   58   20 1    
    37   22   21 ar   
    38   24   23 1    
    39   25   24 ar   
    40   26   24 ar   
    41   27   24 1    
    42   28   27 1    
    43   29   28 1    
    44   59   28 1    
    45   60   28 1    
    46   30   29 1    
    47   31   29 1    
    48   61   29 1    
    49   35   30 1    
    50   32   31 1    
    51   33   31 1    
    52   62   31 1    
    53   72   32 1    
    54   34   33 1    
    55   35   33 1    
    56   63   33 1    
    57   73   34 1    
    58   36   35 1    
    59   64   35 1    
    60   37   36 ar   
    61   44   36 ar   
    62   38   37 ar   
    63   65   37 1    
    64   39   38 1    
    65   42   38 ar   
    66   40   39 2    
    67   41   39 am   
    68   66   41 1    
    69   67   41 1    
    70   43   42 ar   
    71   68   42 1    
    72   44   43 ar   
    73   69   43 1    
    74   70   44 1    
    75   46   45 ar   
    76   47   45 ar   
    77   48   45 ar   
@<TRIPOS>SUBSTRUCTURE
     1 NAP701      1 GROUP   
@<TRIPOS>SET

