#    Name: 1xjn_DTP_3_INTS_M
#    Modification time : Tue Mar 25 09:58:07 2014

@<TRIPOS>MOLECULE
1xjn_DTP_3_INTS_M
   58     0    12     0     0
SMALL
NO_CHARGES


@<TRIPOS>ATOM
      1 NZ         44.3770   23.4790  -54.2070 N.4       3 LYC4        0.0000 
      2 NZ         45.7720   22.5510  -53.6780 N.4      11 LYL4        0.0000 
      3 NZ         42.9820   24.4070  -54.7360 N.4       7 LYP4        0.0000 
      4 NZ         44.4005   24.6195  -55.2935 N.4       3 LYC4        0.0000 
      5 NZ         45.8190   24.8320  -55.8510 N.4      11 LYL4        0.0000 
      6 N          46.6475   25.9300  -55.8635 N.am      2 SEC2        0.0000 
      7 N          45.8190   24.8320  -55.8510 N.am     10 SEL2        0.0000 
      8 N          47.4760   27.0280  -55.8760 N.am      6 SEP2        0.0000 
      9 N          44.4005   24.6195  -55.2935 N.am      2 SEC2        0.0000 
     10 N          42.9820   24.4070  -54.7360 N.am      6 SEP2        0.0000 
     11 NZ         43.9640   23.5810  -55.9330 N.4       3 LYC4        0.0000 
     12 NZ         44.9460   22.7550  -57.1300 N.4      11 LYL4        0.0000 
     13 CA         48.5875   24.2045  -56.8720 C.3       4 GLC5        0.0000 
     14 CA         47.9540   23.0540  -58.3610 C.3      12 GLL5        0.0000 
     15 CA         49.2210   25.3550  -55.3830 C.3       8 GLP5        0.0000 
     16 CA         49.1790   22.2070  -60.7410 C.3       4 GLC5        0.0000 
     17 CA         48.5230   23.6520  -59.6370 C.3      12 GLL5        0.0000 
     18 CA         49.8350   20.7620  -61.8450 C.3       8 GLP5        0.0000 
     19 CA         50.9550   24.6180  -58.0055 C.3       4 GLC5        0.0000 
     20 CA         49.2390   24.9860  -59.3650 C.3      12 GLL5        0.0000 
     21 CA         52.6710   24.2500  -56.6460 C.3       8 GLP5        0.0000 
     22 CA         49.2300   25.1705  -57.3740 C.3       4 GLC5        0.0000 
     23 O          51.3355   24.1690  -59.7585 O.2       1 ALC1        0.0000 
     24 O          50.4150   25.0890  -60.2220 O.2       9 ALL1        0.0000 
     25 O          52.2560   23.2490  -59.2950 O.2       5 ALP1        0.0000 
     26 CA         46.2310   23.6340  -61.8060 C.3       4 GLC5        0.0000 
     27 CA         47.3880   25.2370  -60.9330 C.3      12 GLL5        0.0000 
     28 CA         45.0740   22.0310  -62.6790 C.3       8 GLP5        0.0000 
     29 CA         47.4260   24.5965  -63.0100 C.3       4 GLC5        0.0000 
     30 CA         47.4640   23.9560  -65.0870 C.3       8 GLP5        0.0000 
     31 CA         43.9185   24.0675  -60.9590 C.3       4 GLC5        0.0000 
     32 CA         43.8970   26.2210  -61.4950 C.3      12 GLL5        0.0000 
     33 CA         43.9400   21.9140  -60.4230 C.3       8 GLP5        0.0000 
     34 CA         42.9335   28.8115  -62.5165 C.3       4 GLC5        0.0000 
     35 CA         43.0270   26.8130  -62.4020 C.3      12 GLL5        0.0000 
     36 CA         42.8400   30.8100  -62.6310 C.3       8 GLP5        0.0000 
     37 O          40.6930   27.3390  -63.0870 O.2       1 ALC1        0.0000 
     38 O          41.7270   26.9700  -62.1810 O.2       9 ALL1        0.0000 
     39 O          39.6590   27.7080  -63.9930 O.2       5 ALP1        0.0000 
     40 CA         46.1290   25.5220  -64.4845 C.3       4 GLC5        0.0000 
     41 CA         44.7940   27.0880  -63.8820 C.3      12 GLL5        0.0000 
     42 CA         46.4355   27.9000  -64.8245 C.3       4 GLC5        0.0000 
     43 CA         48.0770   28.7120  -65.7670 C.3       8 GLP5        0.0000 
     44 CA         43.8170   28.9490  -63.2565 C.3       4 GLC5        0.0000 
     45 N          46.7785   26.4045  -64.3585 N.am      2 SEC2        0.0000 
     46 N          45.6420   26.5430  -63.0360 N.am     10 SEL2        0.0000 
     47 N          47.9150   26.2660  -65.6810 N.am      6 SEP2        0.0000 
     48 CA         45.1490   24.0680  -62.2710 C.3       4 GLC5        0.0000 
     49 CA         45.2240   26.1050  -61.8630 C.3      12 GLL5        0.0000 
     50 CA         46.3440   25.0305  -63.4750 C.3       4 GLC5        0.0000 
     51 CA         49.6052   26.9708  -59.0335 C.3       4 GLC5        0.0000 
     52 CA         48.1800   25.9730  -59.8190 C.3      12 GLL5        0.0000 
     53 CA         50.5010   28.4620  -58.4750 C.3       8 GLP5        0.0000 
     54 CA         46.9390   27.1035  -59.5860 C.3       4 GLC5        0.0000 
     55 CA         46.0940   28.6020  -58.7960 C.3       8 GLP5        0.0000 
     56 CA         48.0540   27.3080  -61.1935 C.3       4 GLC5        0.0000 
     57 CA         48.3240   29.0110  -62.0110 C.3       8 GLP5        0.0000 
     58 CA         45.3272   27.3825  -60.2375 C.3       4 GLC5        0.0000 
@<TRIPOS>BOND
@<TRIPOS>SUBSTRUCTURE
     1 ALC1       23 GROUP        1 X    ALC  0     ROOT ALC X 1
     2 SEC2        6 GROUP        1 X    SEC  0     **** SEC X 2
     3 LYC4        1 GROUP        1 X    LYC  0     **** LYC X 4
     4 GLC5       13 GROUP        1 X    GLC  0     **** GLC X 6
     5 ALP1       25 GROUP        1 Y    ALP  0     ROOT ALP Y 8
     6 SEP2        8 GROUP        1 Y    SEP  0     **** SEP Y 9
     7 LYP4        3 GROUP        1 Y    LYP  0     **** LYP Y 11
     8 GLP5       15 GROUP        1 Y    GLP  0     **** GLP Y 13
     9 ALL1       24 GROUP        1 Z    ALL  0     ROOT ALL Z 15
    10 SEL2        7 GROUP        1 Z    SEL  0     **** SEL Z 16
    11 LYL4        2 GROUP        1 Z    LYL  0     **** LYL Z 18
    12 GLL5       14 GROUP        1 Z    GLL  0     **** GLL Z 20
@<TRIPOS>SET

