#    Name: 1xjn_DTP_3_ligand
#    Modification time : Tue Mar 25 09:58:08 2014

@<TRIPOS>MOLECULE
1xjn_DTP_3_ligand
   42    44     1     0     0
SMALL
NO_CHARGES


@<TRIPOS>ATOM
      1 PG         46.2830   19.0550  -55.6470 P.3       1 DTP1007     0.0000 
      2 O1G        45.3910   18.2670  -54.7160 O.co2     1 DTP1007     0.0000 
      3 O2G        47.7590   18.9640  -55.4840 O.co2     1 DTP1007     0.0000 
      4 O3G        45.8750   18.7850  -57.2410 O.co2     1 DTP1007     0.0000 
      5 PB         46.6540   21.7580  -54.5560 P.3       1 DTP1007     0.0000 
      6 O1B        45.7720   22.5510  -53.6780 O.co2     1 DTP1007     0.0000 
      7 O2B        47.8840   21.1370  -53.9790 O.co2     1 DTP1007     0.0000 
      8 O3B        45.7960   20.6760  -55.4350 O.3       1 DTP1007     0.0000 
      9 PA         46.0820   23.6040  -56.6120 P.3       1 DTP1007     0.0000 
     10 O1A        45.8190   24.8320  -55.8510 O.co2     1 DTP1007     0.0000 
     11 O2A        44.9460   22.7550  -57.1300 O.co2     1 DTP1007     0.0000 
     12 O3A        47.0800   22.7020  -55.7730 O.3       1 DTP1007     0.0000 
     13 O5'        46.9870   23.9340  -57.8630 O.3       1 DTP1007     0.0000 
     14 C5'        47.9540   23.0540  -58.3610 C.3       1 DTP1007     0.0000 
     15 C4'        48.5230   23.6520  -59.6370 C.3       1 DTP1007     0.0000 
     16 O4'        47.5240   23.8720  -60.6830 O.3       1 DTP1007     0.0000 
     17 C3'        49.2390   24.9860  -59.3650 C.3       1 DTP1007     0.0000 
     18 O3'        50.4150   25.0890  -60.2220 O.3       1 DTP1007     0.0000 
     19 C2'        48.1800   25.9730  -59.8190 C.3       1 DTP1007     0.0000 
     20 C1'        47.3880   25.2370  -60.9330 C.3       1 DTP1007     0.0000 
     21 N9         45.8940   25.5180  -60.8760 N.pl3     1 DTP1007     0.0000 
     22 C8         44.9990   25.2620  -59.8760 C.2       1 DTP1007     0.0000 
     23 N7         43.7810   25.6980  -60.2740 N.2       1 DTP1007     0.0000 
     24 C5         43.8970   26.2210  -61.4950 C.ar      1 DTP1007     0.0000 
     25 C6         43.0270   26.8130  -62.4020 C.ar      1 DTP1007     0.0000 
     26 N6         41.7270   26.9700  -62.1810 N.pl3     1 DTP1007     0.0000 
     27 N1         43.5080   27.2290  -63.5780 N.ar      1 DTP1007     0.0000 
     28 C2         44.7940   27.0880  -63.8820 C.ar      1 DTP1007     0.0000 
     29 N3         45.6420   26.5430  -63.0360 N.ar      1 DTP1007     0.0000 
     30 C4         45.2240   26.1050  -61.8630 C.ar      1 DTP1007     0.0000 
     31 H          47.5394   22.0730  -58.6108 H         1 DTP1007     0.0000 
     32 H          48.7848   22.9062  -57.6649 H         1 DTP1007     0.0000 
     33 H          49.2961   22.9637  -60.0213 H         1 DTP1007     0.0000 
     34 H          49.4157   25.0846  -58.3608 H         1 DTP1007     0.0000 
     35 H          48.6357   26.8404  -60.2347 H         1 DTP1007     0.0000 
     36 H          47.5179   26.2009  -59.0175 H         1 DTP1007     0.0000 
     37 H          47.7722   25.5159  -61.8746 H         1 DTP1007     0.0000 
     38 H          45.2062   24.8435  -59.0362 H         1 DTP1007     0.0000 
     39 H          41.1397   26.9681  -62.9903 H         1 DTP1007     0.0000 
     40 H          41.4528   27.0759  -61.2251 H         1 DTP1007     0.0000 
     41 H          45.1383   27.4233  -64.8269 H         1 DTP1007     0.0000 
     42 H          51.1831   24.8205  -59.6406 H         1 DTP1007     0.0000 
@<TRIPOS>BOND
     1    2    1 ar   
     2    3    1 ar   
     3    4    1 ar   
     4    8    1 1    
     5    6    5 ar   
     6    7    5 ar   
     7    8    5 1    
     8   12    5 1    
     9   10    9 ar   
    10   11    9 ar   
    11   12    9 1    
    12   13    9 1    
    13   14   13 1    
    14   15   14 1    
    15   31   14 1    
    16   32   14 1    
    17   16   15 1    
    18   17   15 1    
    19   33   15 1    
    20   20   16 1    
    21   18   17 1    
    22   19   17 1    
    23   34   17 1    
    24   42   18 1    
    25   20   19 1    
    26   35   19 1    
    27   36   19 1    
    28   21   20 1    
    29   37   20 1    
    30   22   21 1    
    31   30   21 1    
    32   23   22 2    
    33   38   22 1    
    34   24   23 1    
    35   25   24 ar   
    36   30   24 ar   
    37   26   25 1    
    38   27   25 ar   
    39   39   26 1    
    40   40   26 1    
    41   28   27 ar   
    42   29   28 ar   
    43   41   28 1    
    44   30   29 ar   
@<TRIPOS>SUBSTRUCTURE
     1 DTP1007     1 GROUP   
@<TRIPOS>SET

