#    Name: 1zys_199_1_INTS_M
#    Modification time : Mon Mar 24 18:10:41 2014

@<TRIPOS>MOLECULE
1zys_199_1_INTS_M
   63     0     9     0     0
SMALL
NO_CHARGES


@<TRIPOS>ATOM
      1 CA          3.1710    6.6250   20.1000 C.3       3 GLC5        0.0000 
      2 CA          3.6270    8.0470   18.5730 C.3       9 GLL5        0.0000 
      3 CA          2.7150    5.2030   21.6270 C.3       6 GLP5        0.0000 
      4 CA          2.6185   11.6815   19.4555 C.3       3 GLC5        0.0000 
      5 CA          2.6940    9.7180   20.1250 C.3       9 GLL5        0.0000 
      6 CA          2.5430   13.6450   18.7860 C.3       6 GLP5        0.0000 
      7 N           3.5760   11.7960   20.6550 N.am      2 SEC2        0.0000 
      8 N           3.8470   10.4040   20.2550 N.am      8 SEL2        0.0000 
      9 N           3.3050   13.1880   21.0550 N.am      5 SEP2        0.0000 
     10 CA          4.1880    8.5805   21.2125 C.3       3 GLC5        0.0000 
     11 CA          4.8930    9.9050   19.5610 C.3       9 GLL5        0.0000 
     12 CA          3.4830    7.2560   22.8640 C.3       6 GLP5        0.0000 
     13 CA          5.0240   11.4130   21.1010 C.3       3 GLC5        0.0000 
     14 CA          5.1550   12.9210   22.6410 C.3       6 GLP5        0.0000 
     15 CA          3.7180   11.7750   19.1735 C.3       3 GLC5        0.0000 
     16 O           6.5585   11.5710   20.0460 O.2       1 ALC1        0.0000 
     17 O           6.1820   10.3830   19.5070 O.2       7 ALL1        0.0000 
     18 O           6.9350   12.7590   20.5850 O.2       4 ALP1        0.0000 
     19 CA          7.9705   11.1715   18.1340 C.3       3 GLC5        0.0000 
     20 CA          6.9620    9.5690   18.6710 C.3       9 GLL5        0.0000 
     21 CA          8.9790   12.7740   17.5970 C.3       6 GLP5        0.0000 
     22 CA          8.9285    8.9995   18.9010 C.3       3 GLC5        0.0000 
     23 CA         10.8950    8.4300   19.1310 C.3       6 GLP5        0.0000 
     24 CA         10.5275    3.5145   15.4985 C.3       3 GLC5        0.0000 
     25 CA          8.6840    3.8970   14.4630 C.3       9 GLL5        0.0000 
     26 CA         12.3710    3.1320   16.5340 C.3       6 GLP5        0.0000 
     27 N          11.0750    4.2700   14.9440 N.am      2 SEC2        0.0000 
     28 N           9.6580    4.8340   14.7300 N.am      8 SEL2        0.0000 
     29 N          12.4920    3.7060   15.1580 N.am      5 SEP2        0.0000 
     30 CA         10.6765    5.0850   16.5080 C.3       3 GLC5        0.0000 
     31 CA          9.2980    5.9370   15.4530 C.3       9 GLL5        0.0000 
     32 CA         12.0550    4.2330   17.5630 C.3       6 GLP5        0.0000 
     33 CA          9.5970    6.7830   13.7955 C.3       3 GLC5        0.0000 
     34 CA          9.8960    7.6290   12.1380 C.3       6 GLP5        0.0000 
     35 CA          8.4085    6.3965   13.8075 C.3       3 GLC5        0.0000 
     36 CA          7.9860    6.1720   15.9600 C.3       9 GLL5        0.0000 
     37 CA          8.8310    6.6210   11.6550 C.3       6 GLP5        0.0000 
     38 CA          3.0410    8.1988   21.2915 C.3       3 GLC5        0.0000 
     39 CA          2.5040    8.5650   19.3130 C.3       9 GLL5        0.0000 
     40 CA          3.5834    9.8345   17.8045 C.3       3 GLC5        0.0000 
     41 CA          4.2870   10.6570   16.0750 C.3       6 GLP5        0.0000 
     42 CA          6.0683    7.1115   19.7488 C.3       3 GLC5        0.0000 
     43 CA          6.1730    8.5690   18.1860 C.3       9 GLL5        0.0000 
     44 CA          6.6280    5.5570   21.0350 C.3       6 GLP5        0.0000 
     45 CA         -1.4312    8.5195   18.2830 C.3       3 GLC5        0.0000 
     46 CA         -0.4180    6.3580   18.2690 C.3       9 GLL5        0.0000 
     47 CA         -1.9050   10.4380   17.8750 C.3       6 GLP5        0.0000 
     48 CA         -0.1288    7.0085   16.2995 C.3       3 GLC5        0.0000 
     49 CA         -0.4830    7.3950   14.2940 C.3       6 GLP5        0.0000 
     50 CA          0.3135    7.2387   21.6740 C.3       3 GLC5        0.0000 
     51 CA         -1.2060    7.9030   20.0270 C.3       9 GLL5        0.0000 
     52 CA          1.1860    6.2920   23.2890 C.3       6 GLP5        0.0000 
     53 CA          1.8622    6.3135   20.2108 C.3       3 GLC5        0.0000 
     54 CA          1.1500    7.9620   19.2480 C.3       9 GLL5        0.0000 
     55 CA         -0.8048    9.2559   18.7643 C.3       3 GLC5        0.0000 
     56 CA          8.4205    5.2888   13.1670 C.3       3 GLC5        0.0000 
     57 CA          7.3360    4.0160   14.8950 C.3       9 GLL5        0.0000 
     58 CA          7.5414    4.7837   17.4080 C.3       3 GLC5        0.0000 
     59 CA          6.9750    5.1940   15.6810 C.3       9 GLL5        0.0000 
     60 CA          7.5120    4.1790   19.1920 C.3       6 GLP5        0.0000 
     61 CA          6.3745    9.1388   20.6371 C.3       3 GLC5        0.0000 
     62 CA          7.0310    9.0760   22.4850 C.3       6 GLP5        0.0000 
     63 CA          5.0025    9.9292   17.4321 C.3       3 GLC5        0.0000 
@<TRIPOS>BOND
@<TRIPOS>SUBSTRUCTURE
     1 ALC1       16 GROUP        1 X    ALC  0     ROOT ALC X 1
     2 SEC2        7 GROUP        1 X    SEC  0     **** SEC X 2
     3 GLC5        1 GROUP        1 X    GLC  0     **** GLC X 6
     4 ALP1       18 GROUP        1 Y    ALP  0     ROOT ALP Y 8
     5 SEP2        9 GROUP        1 Y    SEP  0     **** SEP Y 9
     6 GLP5        3 GROUP        1 Y    GLP  0     **** GLP Y 13
     7 ALL1       17 GROUP        1 Z    ALL  0     ROOT ALL Z 15
     8 SEL2        8 GROUP        1 Z    SEL  0     **** SEL Z 16
     9 GLL5        2 GROUP        1 Z    GLL  0     **** GLL Z 20
@<TRIPOS>SET

