#    Name: 1zys_199_1_ligand
#    Modification time : Mon Mar 24 18:10:42 2014

@<TRIPOS>MOLECULE
1zys_199_1_ligand
   56    60     1     0     0
SMALL
NO_CHARGES


@<TRIPOS>ATOM
      1 C01         3.6270    8.0470   18.5730 C.ar      1 199400      0.0000 
      2 C02         2.5040    8.5650   19.3130 C.ar      1 199400      0.0000 
      3 C03         2.6940    9.7180   20.1250 C.ar      1 199400      0.0000 
      4 N04         3.8470   10.4040   20.2550 N.ar      1 199400      0.0000 
      5 C05         4.8930    9.9050   19.5610 C.ar      1 199400      0.0000 
      6 N06         6.1820   10.3830   19.5070 N.pl3     1 199400      0.0000 
      7 C07         6.9620    9.5690   18.6710 C.2       1 199400      0.0000 
      8 C08         6.1730    8.5690   18.1860 C.2       1 199400      0.0000 
      9 C09         4.8440    8.7630   18.7390 C.ar      1 199400      0.0000 
     10 N10         6.4820    7.5170   17.3200 N.am      1 199400      0.0000 
     11 C11        -0.4180    6.3580   18.2690 C.ar      1 199400      0.0000 
     12 C12        -1.4970    6.8440   19.1130 C.ar      1 199400      0.0000 
     13 C13        -1.2060    7.9030   20.0270 C.ar      1 199400      0.0000 
     14 C14         0.0880    8.4680   20.0910 C.ar      1 199400      0.0000 
     15 C15         1.1500    7.9620   19.2480 C.ar      1 199400      0.0000 
     16 C16         0.8690    6.8860   18.3410 C.ar      1 199400      0.0000 
     17 C17         7.7100    7.3850   16.7800 C.2       1 199400      0.0000 
     18 O18         8.6160    8.1740   16.9380 O.2       1 199400      0.0000 
     19 C19         7.3360    4.0160   14.8950 C.ar      1 199400      0.0000 
     20 C20         8.6840    3.8970   14.4630 C.ar      1 199400      0.0000 
     21 N21         9.6580    4.8340   14.7300 N.ar      1 199400      0.0000 
     22 C22         9.2980    5.9370   15.4530 C.ar      1 199400      0.0000 
     23 C23         7.9860    6.1720   15.9600 C.ar      1 199400      0.0000 
     24 C24         6.9750    5.1940   15.6810 C.ar      1 199400      0.0000 
     25 C25        -3.6970    6.4530   20.1980 C.3       1 199400      0.0000 
     26 C26        -5.1540    6.0400   19.8730 C.3       1 199400      0.0000 
     27 N27        -5.1960    4.6300   19.3760 N.4       1 199400      0.0000 
     28 C28        -4.2720    4.3620   18.2270 C.3       1 199400      0.0000 
     29 C29        -2.8220    4.8680   18.5640 C.3       1 199400      0.0000 
     30 N30        -2.8200    6.2800   19.0220 N.3       1 199400      0.0000 
     31 C31        -6.6140    4.3130   18.9640 C.3       1 199400      0.0000 
     32 H           3.5476    7.2563   17.9984 H         1 199400      0.0000 
     33 H           1.8312   10.0450   20.6665 H         1 199400      0.0000 
     34 H           6.5143   11.1579   19.9676 H         1 199400      0.0000 
     35 H           7.8860    9.7112   18.4881 H         1 199400      0.0000 
     36 H           5.7284    6.8270   17.0988 H         1 199400      0.0000 
     37 H          -0.6377    5.5991   17.6054 H         1 199400      0.0000 
     38 H          -1.9480    8.2520   20.6399 H         1 199400      0.0000 
     39 H           0.2890    9.2355   20.7286 H         1 199400      0.0000 
     40 H           1.6225    6.5219   17.7586 H         1 199400      0.0000 
     41 H           6.6468    3.3309   14.6796 H         1 199400      0.0000 
     42 H           8.9353    3.0387   13.9091 H         1 199400      0.0000 
     43 H          10.0224    6.6777   15.6625 H         1 199400      0.0000 
     44 H           6.0381    5.3045   16.0121 H         1 199400      0.0000 
     45 H          -3.3514    5.8378   21.0336 H         1 199400      0.0000 
     46 H          -3.7080    7.4970   20.5236 H         1 199400      0.0000 
     47 H          -5.5414    6.7205   19.1175 H         1 199400      0.0000 
     48 H          -5.7477    6.1410   20.7792 H         1 199400      0.0000 
     49 H          -4.9425    3.9589   20.1999 H         1 199400      0.0000 
     50 H          -4.6061    4.8834   17.3358 H         1 199400      0.0000 
     51 H          -4.2123    3.2979   18.0223 H         1 199400      0.0000 
     52 H          -2.2163    4.7501   17.6607 H         1 199400      0.0000 
     53 H          -2.4161    4.2071   19.3355 H         1 199400      0.0000 
     54 H          -6.9340    4.9202   18.2367 H         1 199400      0.0000 
     55 H          -6.7014    3.3767   18.6238 H         1 199400      0.0000 
     56 H          -7.2527    4.4083   19.7275 H         1 199400      0.0000 
@<TRIPOS>BOND
     1    2    1 ar   
     2    9    1 ar   
     3   32    1 1    
     4    3    2 ar   
     5   15    2 1    
     6    4    3 ar   
     7   33    3 1    
     8    5    4 ar   
     9    6    5 1    
    10    9    5 ar   
    11    7    6 1    
    12   34    6 1    
    13    8    7 2    
    14   35    7 1    
    15    9    8 1    
    16   10    8 1    
    17   17   10 am   
    18   36   10 1    
    19   12   11 ar   
    20   16   11 ar   
    21   37   11 1    
    22   13   12 ar   
    23   30   12 1    
    24   14   13 ar   
    25   38   13 1    
    26   15   14 ar   
    27   39   14 1    
    28   16   15 ar   
    29   40   16 1    
    30   18   17 2    
    31   23   17 1    
    32   20   19 ar   
    33   24   19 ar   
    34   41   19 1    
    35   21   20 ar   
    36   42   20 1    
    37   22   21 ar   
    38   23   22 ar   
    39   43   22 1    
    40   24   23 ar   
    41   44   24 1    
    42   26   25 1    
    43   30   25 1    
    44   45   25 1    
    45   46   25 1    
    46   27   26 1    
    47   47   26 1    
    48   48   26 1    
    49   28   27 1    
    50   31   27 1    
    51   49   27 1    
    52   29   28 1    
    53   50   28 1    
    54   51   28 1    
    55   30   29 1    
    56   52   29 1    
    57   53   29 1    
    58   54   31 1    
    59   55   31 1    
    60   56   31 1    
@<TRIPOS>SUBSTRUCTURE
     1 199400      1 GROUP   
@<TRIPOS>SET

