#    Name: 1gx9_REA_1_INTS_M
#    Modification time : Tue Mar 25 04:06:52 2014

@<TRIPOS>MOLECULE
1gx9_REA_1_INTS_M
   58     0     3     0     0
SMALL
NO_CHARGES


@<TRIPOS>ATOM
      1 CA         11.4500   50.1875   58.5930 C.3       1 GLC5        0.0000 
      2 CA         12.6600   48.8230   59.2470 C.3       3 GLL5        0.0000 
      3 CA         10.2400   51.5520   57.9390 C.3       2 GLP5        0.0000 
      4 CA         13.4825   46.0025   61.2880 C.3       1 GLC5        0.0000 
      5 CA         13.3640   47.5480   59.7510 C.3       3 GLL5        0.0000 
      6 CA         13.6010   44.4570   62.8250 C.3       2 GLP5        0.0000 
      7 CA         19.6880   48.9955   58.1475 C.3       1 GLC5        0.0000 
      8 CA         19.6030   48.1980   56.1200 C.3       3 GLL5        0.0000 
      9 CA         19.7730   49.7930   60.1750 C.3       2 GLP5        0.0000 
     10 CA         19.0485   50.2290   56.0050 C.3       1 GLC5        0.0000 
     11 CA         18.4940   52.2600   55.8900 C.3       2 GLP5        0.0000 
     12 CA         19.7800   49.4130   54.5995 C.3       1 GLC5        0.0000 
     13 CA         19.9570   50.6280   53.0790 C.3       2 GLP5        0.0000 
     14 CA         14.2590   49.5650   54.2490 C.3       1 GLC5        0.0000 
     15 CA         14.0000   48.3470   55.6680 C.3       3 GLL5        0.0000 
     16 CA         14.5180   50.7830   52.8300 C.3       2 GLP5        0.0000 
     17 CA         13.3765   47.3320   54.5270 C.3       1 GLC5        0.0000 
     18 CA         12.7530   46.3170   53.3860 C.3       2 GLP5        0.0000 
     19 CA         12.3200   49.7475   55.6355 C.3       1 GLC5        0.0000 
     20 CA         10.6400   51.1480   55.6030 C.3       2 GLP5        0.0000 
     21 CA         14.0005   46.3020   55.8810 C.3       1 GLC5        0.0000 
     22 CA         14.0010   44.2570   56.0940 C.3       2 GLP5        0.0000 
     23 CA         15.9830   50.2935   58.6690 C.3       1 GLC5        0.0000 
     24 CA         14.6130   50.1920   57.2270 C.3       3 GLL5        0.0000 
     25 CA         17.3530   50.3950   60.1110 C.3       2 GLP5        0.0000 
     26 CA         14.2440   52.2565   57.9100 C.3       1 GLC5        0.0000 
     27 CA         13.8750   54.3210   58.5930 C.3       2 GLP5        0.0000 
     28 CA         14.5655   50.4875   55.0285 C.3       1 GLC5        0.0000 
     29 CA         16.5700   45.1375   60.5020 C.3       1 GLC5        0.0000 
     30 CA         15.5270   46.2440   59.7210 C.3       3 GLL5        0.0000 
     31 CA         17.6130   44.0310   61.2830 C.3       2 GLP5        0.0000 
     32 CA         14.5640   45.3505   61.2730 C.3       1 GLC5        0.0000 
     33 CA         17.6295   45.0840   53.8585 C.3       1 GLC5        0.0000 
     34 CA         18.3340   46.1730   55.4470 C.3       3 GLL5        0.0000 
     35 CA         16.9250   43.9950   52.2700 C.3       2 GLP5        0.0000 
     36 CA         17.0065   45.0065   56.0240 C.3       1 GLC5        0.0000 
     37 CA         15.6790   43.8400   56.6010 C.3       2 GLP5        0.0000 
     38 CA         12.5235   49.2923   60.8875 C.3       1 GLC5        0.0000 
     39 CA         12.0350   50.3990   62.2760 C.3       2 GLP5        0.0000 
     40 CA         16.1005   48.9820   59.2922 C.3       1 GLC5        0.0000 
     41 CA         14.6820   47.2960   59.0640 C.3       3 GLL5        0.0000 
     42 CA         13.6402   46.4234   57.4712 C.3       1 GLC5        0.0000 
     43 CA         15.0140   47.8420   57.8830 C.3       3 GLL5        0.0000 
     44 CA         13.1040   44.5500   57.2840 C.3       2 GLP5        0.0000 
     45 CA         17.0968   49.0375   58.6272 C.3       1 GLC5        0.0000 
     46 CA         16.2090   47.4840   57.1010 C.3       3 GLL5        0.0000 
     47 CA         16.2598   45.7600   56.8723 C.3       1 GLC5        0.0000 
     48 CA         17.4720   47.8760   57.1860 C.3       3 GLL5        0.0000 
     49 CA         21.4080   49.1442   54.1947 C.3       1 GLC5        0.0000 
     50 CA         20.7770   47.9890   55.2600 C.3       3 GLL5        0.0000 
     51 CA         21.4220   50.2920   52.8780 C.3       2 GLP5        0.0000 
     52 CA         24.9800   48.9952   55.8140 C.3       1 GLC5        0.0000 
     53 CA         23.2610   47.7850   55.0130 C.3       3 GLL5        0.0000 
     54 CA         26.1440   50.4330   56.3170 C.3       2 GLP5        0.0000 
     55 CA         22.3223   48.9873   53.5717 C.3       1 GLC5        0.0000 
     56 CA         12.4920   50.6034   57.0662 C.3       1 GLC5        0.0000 
     57 CA         11.0080   51.7350   56.8020 C.3       2 GLP5        0.0000 
     58 CA         13.9395   45.6915   58.4241 C.3       1 GLC5        0.0000 
@<TRIPOS>BOND
@<TRIPOS>SUBSTRUCTURE
     1 GLC5        1 GROUP        1 X    GLC  0     ROOT GLC X 6
     2 GLP5        3 GROUP        1 Y    GLP  0     ROOT GLP Y 13
     3 GLL5        2 GROUP        1 Z    GLL  0     ROOT GLL Z 20
@<TRIPOS>SET

