#    Name: 1gx9_REA_1_ligand
#    Modification time : Tue Mar 25 04:06:52 2014

@<TRIPOS>MOLECULE
1gx9_REA_1_ligand
   49    49     1     0     0
SMALL
NO_CHARGES


@<TRIPOS>ATOM
      1 C1         14.0560   48.7610   57.1560 C.3       1 REA1163     0.0000 
      2 C2         12.6220   48.7420   57.7120 C.3       1 REA1163     0.0000 
      3 C3         12.6600   48.8230   59.2470 C.3       1 REA1163     0.0000 
      4 C4         13.3640   47.5480   59.7510 C.3       1 REA1163     0.0000 
      5 C5         14.6820   47.2960   59.0640 C.2       1 REA1163     0.0000 
      6 C6         15.0140   47.8420   57.8830 C.2       1 REA1163     0.0000 
      7 C7         16.2090   47.4840   57.1010 C.2       1 REA1163     0.0000 
      8 C8         17.4720   47.8760   57.1860 C.2       1 REA1163     0.0000 
      9 C9         18.5190   47.4360   56.2410 C.2       1 REA1163     0.0000 
     10 C10        19.6030   48.1980   56.1200 C.2       1 REA1163     0.0000 
     11 C11        20.7770   47.9890   55.2600 C.2       1 REA1163     0.0000 
     12 C12        22.0110   48.0040   55.7630 C.2       1 REA1163     0.0000 
     13 C13        23.2610   47.7850   55.0130 C.2       1 REA1163     0.0000 
     14 C14        24.3710   47.3300   55.6090 C.2       1 REA1163     0.0000 
     15 C15        24.8110   47.3390   57.0080 C.2       1 REA1163     0.0000 
     16 C16        14.0000   48.3470   55.6680 C.3       1 REA1163     0.0000 
     17 C17        14.6130   50.1920   57.2270 C.3       1 REA1163     0.0000 
     18 C18        15.5270   46.2440   59.7210 C.3       1 REA1163     0.0000 
     19 C19        18.3340   46.1730   55.4470 C.3       1 REA1163     0.0000 
     20 C20        23.1840   47.5800   53.5180 C.3       1 REA1163     0.0000 
     21 O1         24.0140   47.5830   57.9540 O.co2     1 REA1163     0.0000 
     22 O2         26.0280   47.0880   57.2400 O.co2     1 REA1163     0.0000 
     23 H          12.1357   47.8226   57.4144 H         1 REA1163     0.0000 
     24 H          12.0767   49.5913   57.3226 H         1 REA1163     0.0000 
     25 H          11.6603   48.8523   59.6293 H         1 REA1163     0.0000 
     26 H          13.2234   49.6828   59.5468 H         1 REA1163     0.0000 
     27 H          12.6923   46.6941   59.5895 H         1 REA1163     0.0000 
     28 H          13.5225   47.6443   60.8336 H         1 REA1163     0.0000 
     29 H          15.9552   46.7475   56.3057 H         1 REA1163     0.0000 
     30 H          17.8070   48.5281   57.9362 H         1 REA1163     0.0000 
     31 H          19.6785   49.1060   56.7141 H         1 REA1163     0.0000 
     32 H          20.5793   47.8327   54.2567 H         1 REA1163     0.0000 
     33 H          22.1665   48.1881   56.8062 H         1 REA1163     0.0000 
     34 H          25.1294   46.8459   54.9527 H         1 REA1163     0.0000 
     35 H          14.9087   48.3375   55.2507 H         1 REA1163     0.0000 
     36 H          13.6143   47.4318   55.5514 H         1 REA1163     0.0000 
     37 H          13.4366   48.9733   55.1292 H         1 REA1163     0.0000 
     38 H          15.5482   50.2443   56.8768 H         1 REA1163     0.0000 
     39 H          14.0629   50.8317   56.6902 H         1 REA1163     0.0000 
     40 H          14.6316   50.5372   58.1654 H         1 REA1163     0.0000 
     41 H          16.3899   46.1041   59.2355 H         1 REA1163     0.0000 
     42 H          15.7570   46.4874   60.6633 H         1 REA1163     0.0000 
     43 H          15.0614   45.3595   59.7520 H         1 REA1163     0.0000 
     44 H          19.1136   45.9941   54.8468 H         1 REA1163     0.0000 
     45 H          18.2305   45.3739   56.0392 H         1 REA1163     0.0000 
     46 H          17.5208   46.2150   54.8665 H         1 REA1163     0.0000 
     47 H          24.0887   47.4413   53.1151 H         1 REA1163     0.0000 
     48 H          22.6317   46.7808   53.2807 H         1 REA1163     0.0000 
     49 H          22.7748   48.3668   53.0558 H         1 REA1163     0.0000 
@<TRIPOS>BOND
     1    2    1 1    
     2    6    1 1    
     3   16    1 1    
     4   17    1 1    
     5    3    2 1    
     6   23    2 1    
     7   24    2 1    
     8    4    3 1    
     9   25    3 1    
    10   26    3 1    
    11    5    4 1    
    12   27    4 1    
    13   28    4 1    
    14    6    5 2    
    15   18    5 1    
    16    7    6 1    
    17    8    7 2    
    18   29    7 1    
    19    9    8 1    
    20   30    8 1    
    21   10    9 2    
    22   19    9 1    
    23   11   10 1    
    24   31   10 1    
    25   12   11 2    
    26   32   11 1    
    27   13   12 1    
    28   33   12 1    
    29   14   13 2    
    30   20   13 1    
    31   15   14 1    
    32   34   14 1    
    33   21   15 ar   
    34   22   15 ar   
    35   35   16 1    
    36   36   16 1    
    37   37   16 1    
    38   38   17 1    
    39   39   17 1    
    40   40   17 1    
    41   41   18 1    
    42   42   18 1    
    43   43   18 1    
    44   44   19 1    
    45   45   19 1    
    46   46   19 1    
    47   47   20 1    
    48   48   20 1    
    49   49   20 1    
@<TRIPOS>SUBSTRUCTURE
     1 REA1163     1 GROUP   
@<TRIPOS>SET

