#    Name: 2foi_JPA_2_INTS_M
#    Modification time : Tue Mar 25 13:00:20 2014

@<TRIPOS>MOLECULE
2foi_JPA_2_INTS_M
   73     0     9     0     0
SMALL
NO_CHARGES


@<TRIPOS>ATOM
      1 CA          9.2595  104.3345   22.6970 C.3       3 GLC5        0.0000 
      2 CA          8.6150  102.8240   23.6960 C.3       9 GLL5        0.0000 
      3 CA          9.9040  105.8450   21.6980 C.3       6 GLP5        0.0000 
      4 CA          8.4410  102.4235   21.7730 C.3       3 GLC5        0.0000 
      5 CA          8.2670  102.0230   19.8500 C.3       6 GLP5        0.0000 
      6 CA          9.2900  103.6875   26.0260 C.3       3 GLC5        0.0000 
      7 CA          9.4860  101.5970   26.0290 C.3       9 GLL5        0.0000 
      8 CA          9.0940  105.7780   26.0230 C.3       6 GLP5        0.0000 
      9 CA          9.6675  100.6695   21.9050 C.3       3 GLC5        0.0000 
     10 CA         10.2860  100.6230   23.9160 C.3       9 GLL5        0.0000 
     11 CA          9.0490  100.7160   19.8940 C.3       6 GLP5        0.0000 
     12 CA         11.3400  101.7445   22.8750 C.3       3 GLC5        0.0000 
     13 CA         12.3940  102.8660   21.8340 C.3       6 GLP5        0.0000 
     14 CA         12.4210  101.1715   24.3970 C.3       3 GLC5        0.0000 
     15 CA         10.9850   99.6100   24.6240 C.3       9 GLL5        0.0000 
     16 CA         13.8570  102.7330   24.1700 C.3       6 GLP5        0.0000 
     17 CA         11.2435  101.9280   28.0650 C.3       3 GLC5        0.0000 
     18 CA         10.1750  100.5130   28.4800 C.3       9 GLL5        0.0000 
     19 CA         12.3120  103.3430   27.6500 C.3       6 GLP5        0.0000 
     20 CA          8.7905   99.7645   28.3500 C.3       3 GLC5        0.0000 
     21 CA          7.4060   99.0160   28.2200 C.3       6 GLP5        0.0000 
     22 CA         11.7570  100.4525   29.2620 C.3       3 GLC5        0.0000 
     23 CA         13.3390  100.3920   30.0440 C.3       6 GLP5        0.0000 
     24 N          14.0710   99.3495   26.7270 N.am      2 SEC2        0.0000 
     25 N          14.0690   98.6470   25.7160 N.am      8 SEL2        0.0000 
     26 N          14.0730  100.0520   27.7380 N.am      5 SEP2        0.0000 
     27 O          14.5530   99.1670   24.7535 O.2       1 ALC1        0.0000 
     28 O          14.0690   98.6470   25.7160 O.2       7 ALL1        0.0000 
     29 O          15.0370   99.6870   23.7910 O.2       4 ALP1        0.0000 
     30 CA          9.9250   94.5515   25.9805 C.3       3 GLC5        0.0000 
     31 CA         11.6340   95.1510   25.4350 C.3       9 GLL5        0.0000 
     32 CA          8.2160   93.9520   26.5260 C.3       6 GLP5        0.0000 
     33 CA         11.0810   93.2295   25.1380 C.3       3 GLC5        0.0000 
     34 CA         10.5280   91.3080   24.8410 C.3       6 GLP5        0.0000 
     35 CA          9.4060   95.7500   25.9875 C.3       3 GLC5        0.0000 
     36 CA         11.1750   96.3090   26.1260 C.3       9 GLL5        0.0000 
     37 CA          7.6370   95.1910   25.8490 C.3       6 GLP5        0.0000 
     38 CA         14.6640   95.0665   21.9020 C.3       3 GLC5        0.0000 
     39 CA         12.7480   95.2620   21.9060 C.3       9 GLL5        0.0000 
     40 CA         16.5800   94.8710   21.8980 C.3       6 GLP5        0.0000 
     41 CA         13.2345   96.5635   21.4155 C.3       3 GLC5        0.0000 
     42 CA         13.7210   97.8650   20.9250 C.3       6 GLP5        0.0000 
     43 CA         11.0630   96.0970   22.0225 C.3       3 GLC5        0.0000 
     44 CA          9.3780   96.9320   22.1390 C.3       6 GLP5        0.0000 
     45 CA         12.1985   94.4505   21.1460 C.3       3 GLC5        0.0000 
     46 CA         11.6490   93.6390   20.3860 C.3       6 GLP5        0.0000 
     47 CA         13.9535   91.7620   25.6845 C.3       3 GLC5        0.0000 
     48 CA         13.8360   93.1690   24.6490 C.3       9 GLL5        0.0000 
     49 CA         14.0710   90.3550   26.7200 C.3       6 GLP5        0.0000 
     50 CA          9.0860  103.9977   25.0868 C.3       3 GLC5        0.0000 
     51 CA          9.5410  101.6110   24.6050 C.3       9 GLL5        0.0000 
     52 CA         10.7360  102.5418   22.9922 C.3       3 GLC5        0.0000 
     53 CA         10.9128  102.4735   26.4835 C.3       3 GLC5        0.0000 
     54 CA         10.0068   98.5242   23.2045 C.3       3 GLC5        0.0000 
     55 CA         11.4410  101.7083   27.0152 C.3       3 GLC5        0.0000 
     56 CA         10.9400   99.5770   26.0460 C.3       9 GLL5        0.0000 
     57 CA          8.8987   99.6731   27.2145 C.3       3 GLC5        0.0000 
     58 CA         12.0765   99.7428   27.6498 C.3       3 GLC5        0.0000 
     59 CA         10.2000  100.5700   26.7150 C.3       9 GLL5        0.0000 
     60 CA         13.5830   99.4120   28.9190 C.3       6 GLP5        0.0000 
     61 CA         13.1227   98.4493   27.4160 C.3       3 GLC5        0.0000 
     62 CA         12.0200   97.4620   26.2100 C.3       9 GLL5        0.0000 
     63 CA         15.5932   96.9915   25.0390 C.3       3 GLC5        0.0000 
     64 CA         13.3050   97.5110   25.6160 C.3       9 GLL5        0.0000 
     65 CA         17.6530   97.0420   24.8000 C.3       6 GLP5        0.0000 
     66 CA         10.3912   96.3310   23.9597 C.3       3 GLC5        0.0000 
     67 CA         13.9805   90.8270   24.3908 C.3       3 GLC5        0.0000 
     68 CA         14.2980   91.9160   22.6660 C.3       9 GLL5        0.0000 
     69 CA         13.6490   89.6690   25.4190 C.3       6 GLP5        0.0000 
     70 CA         13.4293   90.7810   22.5706 C.3       3 GLC5        0.0000 
     71 CA         14.3260   92.0540   24.0590 C.3       9 GLL5        0.0000 
     72 CA         12.6790   89.3060   21.9530 C.3       6 GLP5        0.0000 
     73 CA         12.2435   92.0584   24.2674 C.3       3 GLC5        0.0000 
@<TRIPOS>BOND
@<TRIPOS>SUBSTRUCTURE
     1 ALC1       27 GROUP        1 X    ALC  0     ROOT ALC X 1
     2 SEC2       24 GROUP        1 X    SEC  0     **** SEC X 2
     3 GLC5        1 GROUP        1 X    GLC  0     **** GLC X 6
     4 ALP1       29 GROUP        1 Y    ALP  0     ROOT ALP Y 8
     5 SEP2       26 GROUP        1 Y    SEP  0     **** SEP Y 9
     6 GLP5        3 GROUP        1 Y    GLP  0     **** GLP Y 13
     7 ALL1       28 GROUP        1 Z    ALL  0     ROOT ALL Z 15
     8 SEL2       25 GROUP        1 Z    SEL  0     **** SEL Z 16
     9 GLL5        2 GROUP        1 Z    GLL  0     **** GLL Z 20
@<TRIPOS>SET

