#    Name: 2foi_JPA_2_ligand
#    Modification time : Tue Mar 25 13:00:20 2014

@<TRIPOS>MOLECULE
2foi_JPA_2_ligand
   37    39     1     0     0
SMALL
NO_CHARGES


@<TRIPOS>ATOM
      1 CLL2        8.6150  102.8240   23.6960 Cl        1 JPA501      0.0000 
      2 C4          9.5410  101.6110   24.6050 C.ar      1 JPA501      0.0000 
      3 C3          9.4860  101.5970   26.0290 C.ar      1 JPA501      0.0000 
      4 C5         10.2860  100.6230   23.9160 C.ar      1 JPA501      0.0000 
      5 C6         10.9850   99.6100   24.6240 C.ar      1 JPA501      0.0000 
      6 C1         10.9400   99.5770   26.0460 C.ar      1 JPA501      0.0000 
      7 C2         10.2000  100.5700   26.7150 C.ar      1 JPA501      0.0000 
      8 CLL1       10.1750  100.5130   28.4800 Cl        1 JPA501      0.0000 
      9 O1         11.6070   98.6060   26.8200 O.3       1 JPA501      0.0000 
     10 C9         12.0200   97.4620   26.2100 C.ar      1 JPA501      0.0000 
     11 C8         13.3050   97.5110   25.6160 C.ar      1 JPA501      0.0000 
     12 O2         14.0690   98.6470   25.7160 O.3       1 JPA501      0.0000 
     13 C7         13.7620   96.3710   24.9400 C.ar      1 JPA501      0.0000 
     14 C12        12.9510   95.1840   24.8520 C.ar      1 JPA501      0.0000 
     15 C11        11.6340   95.1510   25.4350 C.ar      1 JPA501      0.0000 
     16 C10        11.1750   96.3090   26.1260 C.ar      1 JPA501      0.0000 
     17 C17        13.4280   94.0990   24.0760 C.ar      1 JPA501      0.0000 
     18 C18        13.3240   94.0940   22.7260 C.ar      1 JPA501      0.0000 
     19 C23        12.7480   95.2620   21.9060 C.3       1 JPA501      0.0000 
     20 C19        13.7680   93.0000   21.9690 C.ar      1 JPA501      0.0000 
     21 C20        14.2980   91.9160   22.6660 C.ar      1 JPA501      0.0000 
     22 C21        14.3260   92.0540   24.0590 C.ar      1 JPA501      0.0000 
     23 C22        13.8360   93.1690   24.6490 C.ar      1 JPA501      0.0000 
     24 H           8.9626  102.2864   26.5331 H         1 JPA501      0.0000 
     25 H          10.3221  100.6381   22.8909 H         1 JPA501      0.0000 
     26 H          11.5181   98.9075   24.1163 H         1 JPA501      0.0000 
     27 H          14.6865   96.3656   24.4954 H         1 JPA501      0.0000 
     28 H          11.0627   94.3329   25.3527 H         1 JPA501      0.0000 
     29 H          10.2585   96.3201   26.5558 H         1 JPA501      0.0000 
     30 H          13.7046   93.0019   20.9647 H         1 JPA501      0.0000 
     31 H          14.6339   91.0997   22.2089 H         1 JPA501      0.0000 
     32 H          14.7295   91.2846   24.6246 H         1 JPA501      0.0000 
     33 H          13.8572   93.1191   25.7531 H         1 JPA501      0.0000 
     34 H          13.2726   96.1030   22.0384 H         1 JPA501      0.0000 
     35 H          12.7523   95.0651   20.9256 H         1 JPA501      0.0000 
     36 H          11.8021   95.4635   22.1604 H         1 JPA501      0.0000 
     37 H          14.1007   99.0199   24.7887 H         1 JPA501      0.0000 
@<TRIPOS>BOND
     1    2    1 1    
     2    3    2 ar   
     3    4    2 ar   
     4    7    3 ar   
     5   24    3 1    
     6    5    4 ar   
     7   25    4 1    
     8    6    5 ar   
     9   26    5 1    
    10    7    6 ar   
    11    9    6 1    
    12    8    7 1    
    13   10    9 1    
    14   11   10 ar   
    15   16   10 ar   
    16   12   11 1    
    17   13   11 ar   
    18   37   12 1    
    19   14   13 ar   
    20   27   13 1    
    21   15   14 ar   
    22   17   14 1    
    23   16   15 ar   
    24   28   15 1    
    25   29   16 1    
    26   18   17 ar   
    27   23   17 ar   
    28   19   18 1    
    29   20   18 ar   
    30   34   19 1    
    31   35   19 1    
    32   36   19 1    
    33   21   20 ar   
    34   30   20 1    
    35   22   21 ar   
    36   31   21 1    
    37   23   22 ar   
    38   32   22 1    
    39   33   23 1    
@<TRIPOS>SUBSTRUCTURE
     1 JPA501      1 GROUP   
@<TRIPOS>SET

