#    Name: 2XPA_1_CAVITY_N1_ALL.mol2
#    Modification time : Tue Mar 11 00:18:48 2014

@<TRIPOS>MOLECULE
2XPA_1_CAVITY_N1_ALL.mol2
   71     0     6     0     0
SMALL
NO_CHARGES


@<TRIPOS>ATOM
      1 O          41.1224  -11.1267   12.4911 O.2       2 ALA2        0.0000 
      2 O          41.2639  -11.7074   11.1153 O.2       2 ALA2        0.0000 
      3 O          40.2759  -10.7075   10.5917 O.2       2 ALA2        0.0000 
      4 OG         41.9787  -14.0820   13.8265 O.2       1 SER1        0.0000 
      5 OG         40.9907  -13.0821   13.3029 O.2       1 SER1        0.0000 
      6 OD1        40.0027  -12.0823   12.7793 O.3       3 ASP3        0.0000 
      7 DU         41.1321  -13.6628   11.9271 H         6 CUB7        0.0000 
      8 OD1        40.1441  -12.6629   11.4035 O.3       3 ASP3        0.0000 
      9 OD1        39.1561  -11.6631   10.8799 O.3       3 ASP3        0.0000 
     10 DU         40.2856  -13.2436   10.0277 H         6 CUB7        0.0000 
     11 O          39.2976  -12.2438    9.5041 O.2       2 ALA2        0.0000 
     12 O          38.3096  -11.2439    8.9805 O.2       2 ALA2        0.0000 
     13 OG         39.4390  -12.8245    8.1283 O.2       1 SER1        0.0000 
     14 OG         41.8469  -16.0374   14.6383 O.2       1 SER1        0.0000 
     15 OD1        38.8829  -13.0378   13.0675 O.3       3 ASP3        0.0000 
     16 OG         41.0004  -15.6182   12.7389 O.2       1 SER1        0.0000 
     17 OG         40.0124  -14.6184   12.2153 O.2       1 SER1        0.0000 
     18 CA         39.0244  -13.6185   11.6917 C.3       5 GLY6        0.0000 
     19 OD1        38.0364  -12.6187   11.1681 O.3       3 ASP3        0.0000 
     20 DU         42.1298  -17.1987   11.8867 H         6 CUB7        0.0000 
     21 DU         41.1418  -16.1989   11.3631 H         6 CUB7        0.0000 
     22 DU         40.1538  -15.1991   10.8395 H         6 CUB7        0.0000 
     23 CA         39.1658  -14.1992   10.3159 C.3       5 GLY6        0.0000 
     24 CA         38.1778  -13.1994    9.7923 C.3       5 GLY6        0.0000 
     25 CA         40.2953  -15.7797    9.4637 C.3       5 GLY6        0.0000 
     26 CA         39.3073  -14.7799    8.9401 C.3       5 GLY6        0.0000 
     27 DU         41.4247  -17.3603    8.6115 H         6 CUB7        0.0000 
     28 CA         41.8566  -18.5735   14.0743 C.3       5 GLY6        0.0000 
     29 N          40.8686  -17.5736   13.5507 N.2       2 ALA2        0.0000 
     30 OG         39.8806  -16.5738   13.0271 O.2       1 SER1        0.0000 
     31 OG         38.8926  -15.5739   12.5035 O.2       1 SER1        0.0000 
     32 CA         37.9046  -14.5741   11.9799 C.3       5 GLY6        0.0000 
     33 O          42.9861  -20.1540   13.2221 O.2       2 ALA2        0.0000 
     34 CA         41.9981  -19.1542   12.6985 C.3       5 GLY6        0.0000 
     35 DU         41.0101  -18.1543   12.1749 H         6 CUB7        0.0000 
     36 DU         40.0221  -17.1545   11.6513 H         6 CUB7        0.0000 
     37 CA         39.0341  -16.1546   11.1277 C.3       5 GLY6        0.0000 
     38 CA         38.0461  -15.1548   10.6041 C.3       5 GLY6        0.0000 
     39 CA         43.1275  -20.7347   11.8463 C.3       5 GLY6        0.0000 
     40 CA         42.1395  -19.7348   11.3227 C.3       5 GLY6        0.0000 
     41 DU         41.1515  -18.7350   10.7991 H         6 CUB7        0.0000 
     42 DU         40.1635  -17.7352   10.2755 H         6 CUB7        0.0000 
     43 CA         39.1755  -16.7353    9.7519 C.3       5 GLY6        0.0000 
     44 CA         42.2810  -20.3155    9.9469 C.3       5 GLY6        0.0000 
     45 CA         41.2930  -19.3157    9.4233 C.3       5 GLY6        0.0000 
     46 CA         40.3050  -18.3158    8.8997 C.3       5 GLY6        0.0000 
     47 CA         39.3170  -17.3160    8.3761 C.3       5 GLY6        0.0000 
     48 CA         41.4345  -19.8964    8.0475 C.3       5 GLY6        0.0000 
     49 CA         40.4464  -18.8965    7.5239 C.3       5 GLY6        0.0000 
     50 CA         39.4584  -17.8967    7.0003 C.3       5 GLY6        0.0000 
     51 CA         40.7369  -19.5290   14.3624 C.3       5 GLY6        0.0000 
     52 N          39.7489  -18.5292   13.8388 N.2       2 ALA2        0.0000 
     53 OG         38.7609  -17.5293   13.3152 O.2       1 SER1        0.0000 
     54 CA         37.7729  -16.5295   12.7916 C.3       5 GLY6        0.0000 
     55 CA         40.8783  -20.1097   12.9867 C.3       5 GLY6        0.0000 
     56 DU         39.8903  -19.1099   12.4631 H         6 CUB7        0.0000 
     57 DU         38.9023  -18.1100   11.9395 H         6 CUB7        0.0000 
     58 N          37.9143  -17.1102   11.4159 N.2       2 ALA2        0.0000 
     59 CA         41.0198  -20.6904   11.6109 C.3       5 GLY6        0.0000 
     60 CA         40.0318  -19.6906   11.0873 C.3       5 GLY6        0.0000 
     61 N          39.0438  -18.6907   10.5637 N.2       2 ALA2        0.0000 
     62 N          38.0558  -17.6909   10.0401 N.2       2 ALA2        0.0000 
     63 CA         40.1732  -20.2713    9.7115 C.3       5 GLY6        0.0000 
     64 CA         39.1852  -19.2714    9.1879 C.3       5 GLY6        0.0000 
     65 CA         38.1972  -18.2716    8.6643 C.3       5 GLY6        0.0000 
     66 N          38.6291  -19.4848   14.1270 N.2       2 ALA2        0.0000 
     67 CZ         39.7586  -21.0653   13.2748 C.ar      4 PHE5        0.0000 
     68 CZ         38.7706  -20.0654   12.7512 C.ar      4 PHE5        0.0000 
     69 O          37.7826  -19.0656   12.2276 O.2       2 ALA2        0.0000 
     70 CA         38.9120  -20.6461   11.3755 C.3       5 GLY6        0.0000 
     71 N          37.9240  -19.6463   10.8519 N.2       2 ALA2        0.0000 
@<TRIPOS>BOND
@<TRIPOS>SUBSTRUCTURE
     1 SER1        4 GROUP   
     2 ALA2        1 GROUP   
     3 ASP3        6 GROUP   
     4 PHE5       67 GROUP   
     5 GLY6       18 GROUP   
     6 CUB7        7 GROUP   
@<TRIPOS>SET

