#    Name: 2xpa_4G5_1_INTS_M
#    Modification time : Tue Mar 25 06:28:38 2014

@<TRIPOS>MOLECULE
2xpa_4G5_1_INTS_M
   39     0     9     0     0
SMALL
NO_CHARGES


@<TRIPOS>ATOM
      1 CA         38.3875  -19.0470    8.5155 C.3       3 GLC5        0.0000 
      2 CA         39.0110  -17.8670   10.2520 C.3       9 GLL5        0.0000 
      3 CA         37.7640  -20.2270    6.7790 C.3       6 GLP5        0.0000 
      4 CA         40.4500  -21.3345   11.0735 C.3       3 GLC5        0.0000 
      5 CA         38.9080  -19.8960   11.5870 C.3       9 GLL5        0.0000 
      6 CA         41.9920  -22.7730   10.5600 C.3       6 GLP5        0.0000 
      7 CA         38.5415  -16.4190   14.1370 C.3       3 GLC5        0.0000 
      8 CA         38.9310  -17.7180   12.6660 C.3       9 GLL5        0.0000 
      9 CA         38.1520  -15.1200   15.6080 C.3       6 GLP5        0.0000 
     10 CA         37.9110  -14.5995    9.3825 C.3       3 GLC5        0.0000 
     11 CA         39.0110  -13.6040   10.7330 C.3       9 GLL5        0.0000 
     12 CA         36.8110  -15.5950    8.0320 C.3       6 GLP5        0.0000 
     13 N          37.4185  -12.6110    7.4900 N.am      1 SEC2        0.0000 
     14 N          38.5330  -12.3280    8.7110 N.am      7 SEL2        0.0000 
     15 N          36.3040  -12.8940    6.2690 N.am      4 SEP2        0.0000 
     16 NZ         38.3480  -10.5980   11.5975 N.4       2 LYC4        0.0000 
     17 NZ         38.9850  -11.2150   10.5150 N.4       8 LYL4        0.0000 
     18 NZ         37.7110   -9.9810   12.6800 N.4       5 LYP4        0.0000 
     19 NZ         39.0865   -9.8980   10.0825 N.4       2 LYC4        0.0000 
     20 NZ         39.8710   -7.7420   10.4330 N.4       5 LYP4        0.0000 
     21 N          38.3480  -10.5980   11.5975 N.am      1 SEC2        0.0000 
     22 N          38.9850  -11.2150   10.5150 N.am      7 SEL2        0.0000 
     23 N          37.7110   -9.9810   12.6800 N.am      4 SEP2        0.0000 
     24 N          39.0865   -9.8980   10.0825 N.am      1 SEC2        0.0000 
     25 N          39.1880   -8.5810    9.6500 N.am      4 SEP2        0.0000 
     26 CA         38.8830  -14.4155   13.8005 C.3       3 GLC5        0.0000 
     27 CA         39.6140  -13.7110   11.9930 C.3       9 GLL5        0.0000 
     28 CA         41.9615  -11.5030   16.2860 C.3       3 GLC5        0.0000 
     29 CA         42.2000  -11.9070   14.2400 C.3       9 GLL5        0.0000 
     30 CA         41.7230  -11.0990   18.3320 C.3       6 GLP5        0.0000 
     31 CA         41.4985  -10.0520   14.3725 C.3       3 GLC5        0.0000 
     32 CA         40.7970   -8.1970   14.5050 C.3       6 GLP5        0.0000 
     33 CA         37.8970  -16.5373    9.4340 C.3       3 GLC5        0.0000 
     34 CA         38.9550  -17.0920   11.4200 C.3       9 GLL5        0.0000 
     35 CA         38.3077  -20.8313    9.7488 C.3       3 GLC5        0.0000 
     36 CA         38.9630  -19.2590   10.3400 C.3       9 GLL5        0.0000 
     37 CA         37.6800  -22.0850    8.5340 C.3       6 GLP5        0.0000 
     38 CA         37.2903  -13.9342   11.9510 C.3       3 GLC5        0.0000 
     39 CA         35.2680  -14.2110   12.5390 C.3       6 GLP5        0.0000 
@<TRIPOS>BOND
@<TRIPOS>SUBSTRUCTURE
     1 SEC2       13 GROUP        1 X    SEC  0     ROOT SEC X 2
     2 LYC4       16 GROUP        1 X    LYC  0     **** LYC X 4
     3 GLC5        1 GROUP        1 X    GLC  0     **** GLC X 6
     4 SEP2       15 GROUP        1 Y    SEP  0     ROOT SEP Y 9
     5 LYP4       18 GROUP        1 Y    LYP  0     **** LYP Y 11
     6 GLP5        3 GROUP        1 Y    GLP  0     **** GLP Y 13
     7 SEL2       14 GROUP        1 Z    SEL  0     ROOT SEL Z 16
     8 LYL4       17 GROUP        1 Z    LYL  0     **** LYL Z 18
     9 GLL5        2 GROUP        1 Z    GLL  0     **** GLL Z 20
@<TRIPOS>SET

