#    Name: 2xpa_4G5_1_ligand
#    Modification time : Tue Mar 25 06:28:39 2014

@<TRIPOS>MOLECULE
2xpa_4G5_1_ligand
   35    36     1     0     0
SMALL
NO_CHARGES


@<TRIPOS>ATOM
      1 C10        39.0110  -17.8670   10.2520 C.ar      1 4G51165     0.0000 
      2 C11        38.9630  -19.2590   10.3400 C.ar      1 4G51165     0.0000 
      3 C12        38.9080  -19.8960   11.5870 C.ar      1 4G51165     0.0000 
      4 C13        38.9010  -19.1200   12.7480 C.ar      1 4G51165     0.0000 
      5 C14        38.9310  -17.7180   12.6660 C.ar      1 4G51165     0.0000 
      6 C9         38.9550  -17.0920   11.4200 C.ar      1 4G51165     0.0000 
      7 C5         39.0400  -15.7000   11.3420 C.2       1 4G51165     0.0000 
      8 N1         39.6080  -14.9950   12.3240 N.2       1 4G51165     0.0000 
      9 N4         38.6750  -14.8520   10.3400 N.pl3     1 4G51165     0.0000 
     10 C3         39.0110  -13.6040   10.7330 C.2       1 4G51165     0.0000 
     11 C15        38.8020  -12.2970    9.9310 C.2       1 4G51165     0.0000 
     12 O17        38.5330  -12.3280    8.7110 O.co2     1 4G51165     0.0000 
     13 O16        38.9850  -11.2150   10.5150 O.co2     1 4G51165     0.0000 
     14 C2         39.6140  -13.7110   11.9930 C.2       1 4G51165     0.0000 
     15 C6         40.2250  -12.6800   12.9800 C.2       1 4G51165     0.0000 
     16 O8         39.4830  -11.9210   13.5970 O.2       1 4G51165     0.0000 
     17 N7         41.5650  -12.7720   13.2150 N.am      1 4G51165     0.0000 
     18 C22        42.3730  -13.7430   12.4110 C.3       1 4G51165     0.0000 
     19 C18        42.2000  -11.9070   14.2400 C.3       1 4G51165     0.0000 
     20 C19        42.6600  -12.7830   15.4700 C.2       1 4G51165     0.0000 
     21 O21        42.0210  -13.7660   15.8860 O.2       1 4G51165     0.0000 
     22 N20        43.8080  -12.3780   16.0350 N.am      1 4G51165     0.0000 
     23 H          39.0869  -17.4095    9.3389 H         1 4G51165     0.0000 
     24 H          38.9679  -19.8270    9.4799 H         1 4G51165     0.0000 
     25 H          38.8736  -20.9135   11.6436 H         1 4G51165     0.0000 
     26 H          38.8738  -19.5739   13.6697 H         1 4G51165     0.0000 
     27 H          38.9351  -17.1585   13.5254 H         1 4G51165     0.0000 
     28 H          38.2599  -15.1001    9.5169 H         1 4G51165     0.0000 
     29 H          41.5035  -11.1640   14.6128 H         1 4G51165     0.0000 
     30 H          43.0812  -11.4129   13.8455 H         1 4G51165     0.0000 
     31 H          44.2500  -11.5858   15.6142 H         1 4G51165     0.0000 
     32 H          44.1187  -12.9046   16.8263 H         1 4G51165     0.0000 
     33 H          43.3396  -13.7227   12.6663 H         1 4G51165     0.0000 
     34 H          42.0563  -14.6832   12.5365 H         1 4G51165     0.0000 
     35 H          42.3243  -13.5456   11.4319 H         1 4G51165     0.0000 
@<TRIPOS>BOND
     1    2    1 ar   
     2    6    1 ar   
     3   23    1 1    
     4    3    2 ar   
     5   24    2 1    
     6    4    3 ar   
     7   25    3 1    
     8    5    4 ar   
     9   26    4 1    
    10    6    5 ar   
    11   27    5 1    
    12    7    6 1    
    13    8    7 2    
    14    9    7 1    
    15   14    8 1    
    16   10    9 1    
    17   28    9 1    
    18   11   10 1    
    19   14   10 2    
    20   12   11 ar   
    21   13   11 ar   
    22   15   14 1    
    23   16   15 2    
    24   17   15 am   
    25   18   17 1    
    26   19   17 1    
    27   33   18 1    
    28   34   18 1    
    29   35   18 1    
    30   20   19 1    
    31   29   19 1    
    32   30   19 1    
    33   21   20 2    
    34   22   20 am   
    35   31   22 1    
    36   32   22 1    
@<TRIPOS>SUBSTRUCTURE
     1 4G51165     1 GROUP   
@<TRIPOS>SET

