#    Name: 1g5s_I17_1_INTS_M
#    Modification time : Tue Mar 25 02:36:04 2014

@<TRIPOS>MOLECULE
1g5s_I17_1_INTS_M
   77     0    12     0     0
SMALL
NO_CHARGES


@<TRIPOS>ATOM
      1 CA         16.1565   -9.6640   16.2190 C.3       4 GLC5        0.0000 
      2 CA         15.2920   -8.9720   14.5730 C.3      12 GLL5        0.0000 
      3 CA         17.0210  -10.3560   17.8650 C.3       8 GLP5        0.0000 
      4 CA         14.8980  -10.3435   11.7980 C.3       4 GLC5        0.0000 
      5 CA         13.2900   -9.6290   13.1580 C.3      12 GLL5        0.0000 
      6 CA         16.5060  -11.0580   10.4380 C.3       8 GLP5        0.0000 
      7 CA         13.0515  -10.9330   10.6250 C.3       4 GLC5        0.0000 
      8 CA         12.8800   -9.1210   11.0260 C.3      12 GLL5        0.0000 
      9 CA         13.2230  -12.7450   10.2240 C.3       8 GLP5        0.0000 
     10 CA         14.6930  -10.0895   10.7320 C.3       4 GLC5        0.0000 
     11 CA         10.4305   -8.6290   12.6890 C.3       4 GLC5        0.0000 
     12 CA         11.2420  -10.4870   12.2370 C.3      12 GLL5        0.0000 
     13 CA          9.6190   -6.7710   13.1410 C.3       8 GLP5        0.0000 
     14 N          11.1085  -11.4870   15.7355 N.am      2 SEC2        0.0000 
     15 N          12.0860  -10.8500   14.6690 N.am     10 SEL2        0.0000 
     16 N          10.1310  -12.1240   16.8020 N.am      6 SEP2        0.0000 
     17 O           9.1955  -11.7245   13.3960 O.2       1 ALC1        0.0000 
     18 O          10.0010  -11.1980   12.2600 O.2       9 ALL1        0.0000 
     19 O           8.3900  -12.2510   14.5320 O.2       5 ALP1        0.0000 
     20 CA          7.2885  -10.5135   11.6880 C.3       4 GLC5        0.0000 
     21 CA          9.1990  -11.2030   11.0400 C.3      12 GLL5        0.0000 
     22 CA          5.3780   -9.8240   12.3360 C.3       8 GLP5        0.0000 
     23 CA          6.6275  -11.4825   11.6545 C.3       4 GLC5        0.0000 
     24 CA          7.8770  -13.1410   10.9730 C.3      12 GLL5        0.0000 
     25 CA         10.8285  -14.3890    8.3580 C.3       4 GLC5        0.0000 
     26 CA          8.9610  -13.8680    8.5030 C.3      12 GLL5        0.0000 
     27 CA         12.6960  -14.9100    8.2130 C.3       8 GLP5        0.0000 
     28 CA         11.0740  -13.0595    8.4835 C.3       4 GLC5        0.0000 
     29 CA          9.3790  -12.6730    9.1510 C.3      12 GLL5        0.0000 
     30 CA         12.7690  -13.4460    7.8160 C.3       8 GLP5        0.0000 
     31 CA         15.9585   -3.9860   11.4550 C.3       4 GLC5        0.0000 
     32 CA         15.1240   -5.0890   10.2750 C.3      12 GLL5        0.0000 
     33 CA         16.7930   -2.8830   12.6350 C.3       8 GLP5        0.0000 
     34 CA         14.6715   -8.5770    6.5715 C.3       4 GLC5        0.0000 
     35 CA         14.5380   -7.0420    8.0960 C.3      12 GLL5        0.0000 
     36 CA         14.8050  -10.1120    5.0470 C.3       8 GLP5        0.0000 
     37 OD1        16.7530   -3.4720    9.5595 O.co2     3 ASC3        0.0000 
     38 OD1        15.8210   -3.4180    8.5840 O.co2    11 ASL3        0.0000 
     39 OD1        17.6850   -3.5260   10.5350 O.co2     7 ASP3        0.0000 
     40 O          14.9760   -2.5960    9.3890 O.2       1 ALC1        0.0000 
     41 O          15.8210   -3.4180    8.5840 O.2       9 ALL1        0.0000 
     42 O          14.1310   -1.7740   10.1940 O.2       5 ALP1        0.0000 
     43 O          16.7530   -3.4720    9.5595 O.2       1 ALC1        0.0000 
     44 O          17.6850   -3.5260   10.5350 O.2       5 ALP1        0.0000 
     45 CA         16.5490  -10.0210   12.1335 C.3       4 GLC5        0.0000 
     46 CA         16.5920   -8.9840   13.8290 C.3      12 GLL5        0.0000 
     47 CA         17.7295   -9.2155   15.1330 C.3       4 GLC5        0.0000 
     48 CA         18.8670   -9.4470   16.4370 C.3       8 GLP5        0.0000 
     49 CA         18.4200   -8.0305   14.9420 C.3       4 GLC5        0.0000 
     50 CA         17.0640   -7.6070   13.7800 C.3      12 GLL5        0.0000 
     51 CA         19.7760   -8.4540   16.1040 C.3       8 GLP5        0.0000 
     52 CA         16.5720   -8.3905   16.1985 C.3       4 GLC5        0.0000 
     53 CA         15.1000   -7.4710   14.8510 C.3      12 GLL5        0.0000 
     54 CA         18.0440   -9.3100   17.5460 C.3       8 GLP5        0.0000 
     55 CA         17.6855   -8.2200   15.6910 C.3       4 GLC5        0.0000 
     56 CA         16.5040   -6.9930   14.9450 C.3      12 GLL5        0.0000 
     57 CA         16.8750   -4.8330   14.5120 C.3       4 GLC5        0.0000 
     58 CA         17.2460   -2.6730   14.0790 C.3       8 GLP5        0.0000 
     59 CA         15.6665  -10.9635   14.4685 C.3       4 GLC5        0.0000 
     60 CA         15.3910  -12.9490   14.7360 C.3       8 GLP5        0.0000 
     61 CA         13.1785   -7.7763   14.8695 C.3       4 GLC5        0.0000 
     62 CA         11.1610   -7.3310   15.0270 C.3       8 GLP5        0.0000 
     63 CA         14.0520  -11.4763   14.0045 C.3       4 GLC5        0.0000 
     64 CA         12.1360  -10.3780   13.3880 C.3      12 GLL5        0.0000 
     65 CA         11.9370   -8.6672   14.1500 C.3       4 GLC5        0.0000 
     66 CA         12.6003  -11.4951   11.4895 C.3       4 GLC5        0.0000 
     67 CA         11.1195  -12.2557   10.4655 C.3       4 GLC5        0.0000 
     68 CA         16.2717   -8.2625    9.2508 C.3       4 GLC5        0.0000 
     69 CA         14.4790   -7.4500    9.6590 C.3      12 GLL5        0.0000 
     70 CA         18.0350   -9.2790    9.6240 C.3       8 GLP5        0.0000 
     71 CA         16.9890   -5.4977    7.8197 C.3       4 GLC5        0.0000 
     72 CA         15.3530   -5.7490    7.9380 C.3      12 GLL5        0.0000 
     73 CA         18.8300   -5.8080    7.2460 C.3       8 GLP5        0.0000 
     74 CA         14.5845   -5.6910   15.1340 C.3       4 GLC5        0.0000 
     75 CA         13.3670   -4.1500   15.3700 C.3       8 GLP5        0.0000 
     76 CA         15.1120   -7.7371   16.8158 C.3       4 GLC5        0.0000 
     77 CA         14.3740   -7.8670   18.8030 C.3       8 GLP5        0.0000 
@<TRIPOS>BOND
@<TRIPOS>SUBSTRUCTURE
     1 ALC1       17 GROUP        1 X    ALC  0     ROOT ALC X 1
     2 SEC2       14 GROUP        1 X    SEC  0     **** SEC X 2
     3 ASC3       37 GROUP        1 X    ASC  0     **** ASC X 3
     4 GLC5        1 GROUP        1 X    GLC  0     **** GLC X 6
     5 ALP1       19 GROUP        1 Y    ALP  0     ROOT ALP Y 8
     6 SEP2       16 GROUP        1 Y    SEP  0     **** SEP Y 9
     7 ASP3       39 GROUP        1 Y    ASP  0     **** ASP Y 10
     8 GLP5        3 GROUP        1 Y    GLP  0     **** GLP Y 13
     9 ALL1       18 GROUP        1 Z    ALL  0     ROOT ALL Z 15
    10 SEL2       15 GROUP        1 Z    SEL  0     **** SEL Z 16
    11 ASL3       38 GROUP        1 Z    ASL  0     **** ASL Z 17
    12 GLL5        2 GROUP        1 Z    GLL  0     **** GLL Z 20
@<TRIPOS>SET

