#    Name: 1g5s_I17_1_ligand
#    Modification time : Tue Mar 25 02:36:04 2014

@<TRIPOS>MOLECULE
1g5s_I17_1_ligand
   62    66     1     0     0
SMALL
NO_CHARGES


@<TRIPOS>ATOM
      1 C26        15.2920   -8.9720   14.5730 C.3       1 I17400      0.0000 
      2 N9         13.9860   -9.6460   14.3440 N.pl3     1 I17400      0.0000 
      3 C4         13.2900   -9.6290   13.1580 C.ar      1 I17400      0.0000 
      4 N3         13.6950   -8.9990   12.0310 N.ar      1 I17400      0.0000 
      5 C2         12.8800   -9.1210   11.0260 C.ar      1 I17400      0.0000 
      6 C6         11.2420  -10.4870   12.2370 C.ar      1 I17400      0.0000 
      7 N1         11.6760   -9.8340   11.0710 N.ar      1 I17400      0.0000 
      8 C5         12.1360  -10.3780   13.3880 C.ar      1 I17400      0.0000 
      9 N7         12.0860  -10.8500   14.6690 N.2       1 I17400      0.0000 
     10 C8         13.2100  -10.4040   15.2430 C.2       1 I17400      0.0000 
     11 N18        10.0010  -11.1980   12.2600 N.pl3     1 I17400      0.0000 
     12 C19         9.1990  -11.2030   11.0400 C.3       1 I17400      0.0000 
     13 C25         7.8770  -13.1410   10.9730 C.ar      1 I17400      0.0000 
     14 C24         7.4600  -14.3220   10.3330 C.ar      1 I17400      0.0000 
     15 C23         7.9940  -14.6880    9.1090 C.ar      1 I17400      0.0000 
     16 C22         8.9610  -13.8680    8.5030 C.ar      1 I17400      0.0000 
     17 C21         9.3790  -12.6730    9.1510 C.ar      1 I17400      0.0000 
     18 C20         8.8330  -12.3300   10.3740 C.ar      1 I17400      0.0000 
     19 N10        13.2260   -8.3960    9.7540 N.pl3     1 I17400      0.0000 
     20 C11        14.4790   -7.4500    9.6590 C.3       1 I17400      0.0000 
     21 C14        14.9430   -4.6260    8.8490 C.3       1 I17400      0.0000 
     22 C15        15.1240   -5.0890   10.2750 C.3       1 I17400      0.0000 
     23 C16        14.2460   -6.3010   10.5880 C.3       1 I17400      0.0000 
     24 C12        14.5380   -7.0420    8.0960 C.3       1 I17400      0.0000 
     25 C13        15.3530   -5.7490    7.9380 C.3       1 I17400      0.0000 
     26 N17        15.8210   -3.4180    8.5840 N.4       1 I17400      0.0000 
     27 C30        16.5920   -8.9840   13.8290 C.3       1 I17400      0.0000 
     28 C29        17.0640   -7.6070   13.7800 C.3       1 I17400      0.0000 
     29 C27        15.1000   -7.4710   14.8510 C.3       1 I17400      0.0000 
     30 C28        16.5040   -6.9930   14.9450 C.3       1 I17400      0.0000 
     31 H          15.6252   -9.2944   15.6910 H         1 I17400      0.0000 
     32 H          13.4912  -10.5631   16.1657 H         1 I17400      0.0000 
     33 H           9.6837  -11.6761   13.0710 H         1 I17400      0.0000 
     34 H           9.7275  -10.4582   10.3013 H         1 I17400      0.0000 
     35 H           8.2491  -10.5526   11.2736 H         1 I17400      0.0000 
     36 H           7.4719  -12.8859   11.8792 H         1 I17400      0.0000 
     37 H           6.7490  -14.9147   10.7877 H         1 I17400      0.0000 
     38 H           7.6929  -15.5472    8.6418 H         1 I17400      0.0000 
     39 H           9.3656  -14.1219    7.6032 H         1 I17400      0.0000 
     40 H          10.0810  -12.0823    8.7000 H         1 I17400      0.0000 
     41 H          12.6683   -8.4983    8.9401 H         1 I17400      0.0000 
     42 H          15.3257   -8.0128    9.8872 H         1 I17400      0.0000 
     43 H          13.9246   -4.3771    8.6788 H         1 I17400      0.0000 
     44 H          14.8642   -4.2774   10.9606 H         1 I17400      0.0000 
     45 H          16.1707   -5.3573   10.4441 H         1 I17400      0.0000 
     46 H          14.4414   -6.6150   11.6261 H         1 I17400      0.0000 
     47 H          13.1901   -5.9894   10.5385 H         1 I17400      0.0000 
     48 H          13.5288   -6.8943    7.7650 H         1 I17400      0.0000 
     49 H          15.0081   -7.8504    7.5713 H         1 I17400      0.0000 
     50 H          16.4217   -5.9908    8.1062 H         1 I17400      0.0000 
     51 H          15.2748   -5.4173    6.8831 H         1 I17400      0.0000 
     52 H          16.4281   -9.3725   12.8304 H         1 I17400      0.0000 
     53 H          17.2982   -9.6165   14.3546 H         1 I17400      0.0000 
     54 H          16.7104   -7.1252   12.8773 H         1 I17400      0.0000 
     55 H          18.1460   -7.5841   13.8092 H         1 I17400      0.0000 
     56 H          14.5947   -7.3536   15.7721 H         1 I17400      0.0000 
     57 H          14.6012   -7.0301   14.0299 H         1 I17400      0.0000 
     58 H          16.5243   -5.9312   14.8823 H         1 I17400      0.0000 
     59 H          16.9471   -7.3614   15.8393 H         1 I17400      0.0000 
     60 H          16.6502   -3.4318    9.1428 H         1 I17400      0.0000 
     61 H          16.1121   -3.3730    7.6284 H         1 I17400      0.0000 
     62 H          15.3456   -2.5618    8.7862 H         1 I17400      0.0000 
@<TRIPOS>BOND
     1    2    1 1    
     2   27    1 1    
     3   29    1 1    
     4   31    1 1    
     5    3    2 1    
     6   10    2 1    
     7    4    3 ar   
     8    8    3 ar   
     9    5    4 ar   
    10    7    5 ar   
    11   19    5 1    
    12    7    6 ar   
    13    8    6 ar   
    14   11    6 1    
    15    9    8 1    
    16   10    9 2    
    17   32   10 1    
    18   12   11 1    
    19   33   11 1    
    20   18   12 1    
    21   34   12 1    
    22   35   12 1    
    23   14   13 ar   
    24   18   13 ar   
    25   36   13 1    
    26   15   14 ar   
    27   37   14 1    
    28   16   15 ar   
    29   38   15 1    
    30   17   16 ar   
    31   39   16 1    
    32   18   17 ar   
    33   40   17 1    
    34   20   19 1    
    35   41   19 1    
    36   23   20 1    
    37   24   20 1    
    38   42   20 1    
    39   22   21 1    
    40   25   21 1    
    41   26   21 1    
    42   43   21 1    
    43   23   22 1    
    44   44   22 1    
    45   45   22 1    
    46   46   23 1    
    47   47   23 1    
    48   25   24 1    
    49   48   24 1    
    50   49   24 1    
    51   50   25 1    
    52   51   25 1    
    53   60   26 1    
    54   61   26 1    
    55   62   26 1    
    56   28   27 1    
    57   52   27 1    
    58   53   27 1    
    59   30   28 1    
    60   54   28 1    
    61   55   28 1    
    62   30   29 1    
    63   56   29 1    
    64   57   29 1    
    65   58   30 1    
    66   59   30 1    
@<TRIPOS>SUBSTRUCTURE
     1 I17400      1 GROUP   
@<TRIPOS>SET

