#    Name: 3gsy_DEH_1_INTS_M
#    Modification time : Tue Mar 25 12:56:02 2014

@<TRIPOS>MOLECULE
3gsy_DEH_1_INTS_M
   47     0     9     0     0
SMALL
NO_CHARGES


@<TRIPOS>ATOM
      1 CA        -28.2250   -5.8430  -12.4835 C.3       3 GLC5        0.0000 
      2 CA        -30.4090   -6.2490  -12.4050 C.3       9 GLL5        0.0000 
      3 CA        -26.0410   -5.4370  -12.5620 C.3       6 GLP5        0.0000 
      4 CA        -28.1005   -4.5585  -12.0775 C.3       3 GLC5        0.0000 
      5 CA        -29.7580   -5.0130  -11.6250 C.3       9 GLL5        0.0000 
      6 CA        -26.4430   -4.1040  -12.5300 C.3       6 GLP5        0.0000 
      7 CA        -28.2355   -6.3235   -3.3810 C.3       3 GLC5        0.0000 
      8 CA        -28.8380   -5.4830   -5.2500 C.3       9 GLL5        0.0000 
      9 CA        -27.6330   -7.1640   -1.5120 C.3       6 GLP5        0.0000 
     10 N         -30.1640   -2.4570   -4.6165 N.am      2 SEC2        0.0000 
     11 N         -28.8080   -3.1650   -4.7160 N.am      8 SEL2        0.0000 
     12 N         -31.5200   -1.7490   -4.5170 N.am      5 SEP2        0.0000 
     13 CA        -27.4690   -2.9855   -2.1225 C.3       3 GLC5        0.0000 
     14 CA        -28.5620   -3.5150   -3.3470 C.3       9 GLL5        0.0000 
     15 CA        -26.3760   -2.4560   -0.8980 C.3       6 GLP5        0.0000 
     16 CA        -29.4860   -3.5045   -1.8145 C.3       3 GLC5        0.0000 
     17 CA        -30.4100   -3.4940   -0.2820 C.3       6 GLP5        0.0000 
     18 CA        -28.0975   -5.3395   -2.4295 C.3       3 GLC5        0.0000 
     19 O         -27.8340   -2.1660   -8.1840 O.2       1 ALC1        0.0000 
     20 O         -29.1940   -2.4760   -7.3560 O.2       7 ALL1        0.0000 
     21 O         -26.4740   -1.8560   -9.0120 O.2       4 ALP1        0.0000 
     22 CA        -29.8780  -10.7230  -16.3050 C.3       3 GLC5        0.0000 
     23 CA        -29.6440  -10.8580  -14.6960 C.3       9 GLL5        0.0000 
     24 CA        -30.1120  -10.5880  -17.9140 C.3       6 GLP5        0.0000 
     25 O         -27.8670  -12.4620  -11.7555 O.2       1 ALC1        0.0000 
     26 O         -27.9110  -11.1910  -11.0310 O.2       7 ALL1        0.0000 
     27 O         -27.8230  -13.7330  -12.4800 O.2       4 ALP1        0.0000 
     28 CA        -27.3828   -8.3735  -13.2945 C.3       3 GLC5        0.0000 
     29 CA        -29.5960   -8.5710  -13.0160 C.3       9 GLL5        0.0000 
     30 CA        -25.4860   -7.5550  -13.7570 C.3       6 GLP5        0.0000 
     31 CA        -30.3607   -4.6485  -13.6960 C.3       3 GLC5        0.0000 
     32 CA        -30.6380   -3.6660  -15.3770 C.3       6 GLP5        0.0000 
     33 CA        -27.2626   -6.8306  -10.6519 C.3       3 GLC5        0.0000 
     34 CA        -29.4570   -6.7440   -9.8070 C.3       9 GLL5        0.0000 
     35 CA        -25.3040   -6.1020  -11.0910 C.3       6 GLP5        0.0000 
     36 CA        -30.0648   -7.9132   -6.7142 C.3       3 GLC5        0.0000 
     37 CA        -29.2660   -7.0860   -8.4630 C.3       9 GLL5        0.0000 
     38 CA        -30.9190   -9.2250   -5.4320 C.3       6 GLP5        0.0000 
     39 CA        -29.9070   -7.6007   -5.5740 C.3       3 GLC5        0.0000 
     40 CA        -28.9520   -6.4700   -6.1820 C.3       9 GLL5        0.0000 
     41 CA        -30.9920   -6.0947   -6.0830 C.3       3 GLC5        0.0000 
     42 CA        -33.0890   -6.2130   -6.4500 C.3       6 GLP5        0.0000 
     43 CA        -26.8893   -3.8672   -6.4213 C.3       3 GLC5        0.0000 
     44 CA        -28.9200   -4.1400   -5.6350 C.3       9 GLL5        0.0000 
     45 CA        -24.7590   -3.7630   -6.5350 C.3       6 GLP5        0.0000 
     46 CA        -31.1556   -5.9509   -7.1996 C.3       3 GLC5        0.0000 
     47 CA        -29.2340   -4.7760   -7.9020 C.3       9 GLL5        0.0000 
@<TRIPOS>BOND
@<TRIPOS>SUBSTRUCTURE
     1 ALC1       19 GROUP        1 X    ALC  0     ROOT ALC X 1
     2 SEC2       10 GROUP        1 X    SEC  0     **** SEC X 2
     3 GLC5        1 GROUP        1 X    GLC  0     **** GLC X 6
     4 ALP1       21 GROUP        1 Y    ALP  0     ROOT ALP Y 8
     5 SEP2       12 GROUP        1 Y    SEP  0     **** SEP Y 9
     6 GLP5        3 GROUP        1 Y    GLP  0     **** GLP Y 13
     7 ALL1       20 GROUP        1 Z    ALL  0     ROOT ALL Z 15
     8 SEL2       11 GROUP        1 Z    SEL  0     **** SEL Z 16
     9 GLL5        2 GROUP        1 Z    GLL  0     **** GLL Z 20
@<TRIPOS>SET

