#    Name: 3gsy_DEH_1_ligand
#    Modification time : Tue Mar 25 12:56:02 2014

@<TRIPOS>MOLECULE
3gsy_DEH_1_ligand
   42    45     1     0     0
SMALL
NO_CHARGES


@<TRIPOS>ATOM
      1 C2        -28.6790   -8.9820  -10.4420 C.ar      1 DEH2        0.0000 
      2 C3        -28.5170   -9.9940  -11.3790 C.ar      1 DEH2        0.0000 
      3 C5        -28.9630   -9.8130  -12.6480 C.ar      1 DEH2        0.0000 
      4 C8        -29.5960   -8.5710  -13.0160 C.ar      1 DEH2        0.0000 
      5 C9        -29.7460   -7.5670  -12.0580 C.ar      1 DEH2        0.0000 
      6 C10       -30.4090   -6.2490  -12.4050 C.3       1 DEH2        0.0000 
      7 C11       -29.7580   -5.0130  -11.6250 C.3       1 DEH2        0.0000 
      8 N12       -29.5500   -5.3770  -10.1900 N.pl3     1 DEH2        0.0000 
      9 C14       -29.4570   -6.7440   -9.8070 C.ar      1 DEH2        0.0000 
     10 C16       -29.2660   -7.0860   -8.4630 C.ar      1 DEH2        0.0000 
     11 C17       -29.1550   -6.1170   -7.5300 C.ar      1 DEH2        0.0000 
     12 C25       -28.9520   -6.4700   -6.1820 C.ar      1 DEH2        0.0000 
     13 C24       -28.8380   -5.4830   -5.2500 C.ar      1 DEH2        0.0000 
     14 C21       -28.9200   -4.1400   -5.6350 C.ar      1 DEH2        0.0000 
     15 O22       -28.8080   -3.1650   -4.7160 O.3       1 DEH2        0.0000 
     16 C23       -28.5620   -3.5150   -3.3470 C.3       1 DEH2        0.0000 
     17 C19       -29.1190   -3.8030   -6.9800 C.ar      1 DEH2        0.0000 
     18 O20       -29.1940   -2.4760   -7.3560 O.3       1 DEH2        0.0000 
     19 C18       -29.2340   -4.7760   -7.9020 C.ar      1 DEH2        0.0000 
     20 C1        -29.2920   -7.7670  -10.7950 C.ar      1 DEH2        0.0000 
     21 C13       -29.4350   -4.4170   -9.2840 C.ar      1 DEH2        0.0000 
     22 O6        -28.8020  -10.7940  -13.5430 O.3       1 DEH2        0.0000 
     23 C7        -29.6440  -10.8580  -14.6960 C.3       1 DEH2        0.0000 
     24 O4        -27.9110  -11.1910  -11.0310 O.3       1 DEH2        0.0000 
     25 H         -28.3485   -9.1158   -9.4743 H         1 DEH2        0.0000 
     26 H         -29.9229   -8.4478  -13.9691 H         1 DEH2        0.0000 
     27 H         -31.4670   -6.2731  -12.1445 H         1 DEH2        0.0000 
     28 H         -30.3149   -6.0428  -13.4710 H         1 DEH2        0.0000 
     29 H         -30.4393   -4.1804  -11.7240 H         1 DEH2        0.0000 
     30 H         -28.8206   -4.7877  -12.1127 H         1 DEH2        0.0000 
     31 H         -29.2130   -8.0862   -8.2082 H         1 DEH2        0.0000 
     32 H         -28.8939   -7.4597   -5.9274 H         1 DEH2        0.0000 
     33 H         -28.6905   -5.7091   -4.2533 H         1 DEH2        0.0000 
     34 H         -29.4809   -3.4168   -9.5085 H         1 DEH2        0.0000 
     35 H         -27.7049   -4.0190   -3.2408 H         1 DEH2        0.0000 
     36 H         -28.5009   -2.7062   -2.7621 H         1 DEH2        0.0000 
     37 H         -29.2892   -4.0917   -2.9747 H         1 DEH2        0.0000 
     38 H         -29.5638  -10.0365  -15.2605 H         1 DEH2        0.0000 
     39 H         -29.4165  -11.6378  -15.2792 H         1 DEH2        0.0000 
     40 H         -30.6082  -10.9496  -14.4471 H         1 DEH2        0.0000 
     41 H         -28.3310   -2.2912   -7.8262 H         1 DEH2        0.0000 
     42 H         -28.1227  -11.8161  -11.7823 H         1 DEH2        0.0000 
@<TRIPOS>BOND
     1    2    1 ar   
     2   20    1 ar   
     3   25    1 1    
     4    3    2 ar   
     5   24    2 1    
     6    4    3 ar   
     7   22    3 1    
     8    5    4 ar   
     9   26    4 1    
    10    6    5 1    
    11   20    5 ar   
    12    7    6 1    
    13   27    6 1    
    14   28    6 1    
    15    8    7 1    
    16   29    7 1    
    17   30    7 1    
    18    9    8 ar   
    19   21    8 ar   
    20   10    9 ar   
    21   20    9 1    
    22   11   10 ar   
    23   31   10 1    
    24   12   11 ar   
    25   19   11 ar   
    26   13   12 ar   
    27   32   12 1    
    28   14   13 ar   
    29   33   13 1    
    30   15   14 1    
    31   17   14 ar   
    32   16   15 1    
    33   35   16 1    
    34   36   16 1    
    35   37   16 1    
    36   18   17 1    
    37   19   17 ar   
    38   41   18 1    
    39   21   19 ar   
    40   34   21 1    
    41   23   22 1    
    42   38   23 1    
    43   39   23 1    
    44   40   23 1    
    45   42   24 1    
@<TRIPOS>SUBSTRUCTURE
     1 DEH2        1 GROUP   
@<TRIPOS>SET

