#    Name: 3ndu_ROC_1_INTS_M
#    Modification time : Tue Mar 25 01:22:34 2014

@<TRIPOS>MOLECULE
3ndu_ROC_1_INTS_M
  109     0     9     0     0
SMALL
NO_CHARGES


@<TRIPOS>ATOM
      1 N          13.5880   15.7850   35.1000 N.am      2 SEC2        0.0000 
      2 N          14.4950   16.7190   34.3710 N.am      8 SEL2        0.0000 
      3 N          12.6810   14.8510   35.8290 N.am      5 SEP2        0.0000 
      4 CA         15.6015   22.0220   31.4520 C.3       3 GLC5        0.0000 
      5 CA         17.4200   21.6180   32.3000 C.3       9 GLL5        0.0000 
      6 CA         13.7830   22.4260   30.6040 C.3       6 GLP5        0.0000 
      7 CA         16.6005   20.6930   30.5900 C.3       3 GLC5        0.0000 
      8 CA         15.7810   19.7680   28.8800 C.3       6 GLP5        0.0000 
      9 O          14.4265   18.8175   31.6335 O.2       1 ALC1        0.0000 
     10 O          14.7200   17.5130   32.2290 O.2       7 ALL1        0.0000 
     11 O          14.1330   20.1220   31.0380 O.2       4 ALP1        0.0000 
     12 CA         13.5550   14.9225   32.8080 C.3       3 GLC5        0.0000 
     13 CA         13.8520   16.4730   31.6160 C.3       9 GLL5        0.0000 
     14 CA         13.2580   13.3720   34.0000 C.3       6 GLP5        0.0000 
     15 CA         12.3085   14.9695   32.1515 C.3       3 GLC5        0.0000 
     16 CA         12.4740   16.9130   31.2620 C.3       9 GLL5        0.0000 
     17 CA         12.1430   13.0260   33.0410 C.3       6 GLP5        0.0000 
     18 N          10.7475   15.9470   34.6080 N.am      2 SEC2        0.0000 
     19 N          11.4920   16.4870   33.3910 N.am      8 SEL2        0.0000 
     20 N          10.0030   15.4070   35.8250 N.am      5 SEP2        0.0000 
     21 O          10.7375   18.7125   34.1780 O.2       1 ALC1        0.0000 
     22 O          11.6370   18.5770   32.7780 O.2       7 ALL1        0.0000 
     23 O           9.8380   18.8480   35.5780 O.2       4 ALP1        0.0000 
     24 O          12.8850   19.3495   31.9080 O.2       1 ALC1        0.0000 
     25 N          16.3880   10.7160   30.8480 N.am      2 SEC2        0.0000 
     26 N          15.6760   11.8410   30.4180 N.am      8 SEL2        0.0000 
     27 N          17.1000    9.5910   31.2780 N.am      5 SEP2        0.0000 
     28 O          17.0545   11.5270   30.4910 O.2       1 ALC1        0.0000 
     29 O          15.6760   11.8410   30.4180 O.2       7 ALL1        0.0000 
     30 O          18.4330   11.2130   30.5640 O.2       4 ALP1        0.0000 
     31 CA         15.6150   10.0795   28.4045 C.3       3 GLC5        0.0000 
     32 CA         16.0590   12.1370   28.0160 C.3       9 GLL5        0.0000 
     33 CA         15.1710    8.0220   28.7930 C.3       6 GLP5        0.0000 
     34 CA         17.2435   10.5230   27.5255 C.3       3 GLC5        0.0000 
     35 CA         18.4280    8.9090   27.0350 C.3       6 GLP5        0.0000 
     36 CA         17.1930   10.6355   26.3145 C.3       3 GLC5        0.0000 
     37 CA         15.9580   12.3620   25.5940 C.3       9 GLL5        0.0000 
     38 CA         15.3430   14.6855   23.9275 C.3       3 GLC5        0.0000 
     39 CA         15.0680   13.0220   24.5500 C.3       9 GLL5        0.0000 
     40 CA         15.6180   16.3490   23.3050 C.3       6 GLP5        0.0000 
     41 CA         11.4140   11.8360   22.5970 C.3       3 GLC5        0.0000 
     42 CA         12.8350   12.7970   23.3630 C.3       9 GLL5        0.0000 
     43 CA          9.9930   10.8750   21.8310 C.3       6 GLP5        0.0000 
     44 CA         13.9550   15.2820   23.5175 C.3       3 GLC5        0.0000 
     45 CA         12.2920   14.2150   23.7300 C.3       9 GLL5        0.0000 
     46 CA         10.6505   15.1525   23.6140 C.3       3 GLC5        0.0000 
     47 CA         11.4950   13.9930   25.0150 C.3       9 GLL5        0.0000 
     48 CA          9.8060   16.3120   22.2130 C.3       6 GLP5        0.0000 
     49 CA         12.1725   15.4345   26.4345 C.3       3 GLC5        0.0000 
     50 CA         12.5300   13.6690   26.0900 C.3       9 GLL5        0.0000 
     51 CA         11.8150   17.2000   26.7790 C.3       6 GLP5        0.0000 
     52 CA         11.3220   12.3140   26.8790 C.3       3 GLC5        0.0000 
     53 CA         13.0590   12.2620   25.8270 C.3       9 GLL5        0.0000 
     54 CA          9.5850   12.3660   27.9310 C.3       6 GLP5        0.0000 
     55 CA         14.5775    9.8845   27.8435 C.3       3 GLC5        0.0000 
     56 CA         13.9840   11.7470   26.8940 C.3       9 GLL5        0.0000 
     57 CA         21.9605   10.6350   23.9425 C.3       3 GLC5        0.0000 
     58 CA         20.4720   11.7720   24.5660 C.3       9 GLL5        0.0000 
     59 CA         23.4490    9.4980   23.3190 C.3       6 GLP5        0.0000 
     60 CA         22.3285   12.5520   25.0810 C.3       3 GLC5        0.0000 
     61 CA         24.1850   13.3320   25.5960 C.3       6 GLP5        0.0000 
     62 CA         19.0830   15.7615   24.1330 C.3       3 GLC5        0.0000 
     63 CA         19.4870   14.1710   24.2640 C.3       9 GLL5        0.0000 
     64 CA         18.6790   17.3520   24.0020 C.3       6 GLP5        0.0000 
     65 CA         21.3290   14.5625   23.4750 C.3       3 GLC5        0.0000 
     66 CA         23.1710   14.9540   22.6860 C.3       6 GLP5        0.0000 
     67 CA         22.1855   13.4030   25.9815 C.3       3 GLC5        0.0000 
     68 CA         20.1860   13.4740   26.3670 C.3       9 GLL5        0.0000 
     69 CA         20.8040   14.0455   28.0010 C.3       3 GLC5        0.0000 
     70 CA         21.4220   14.6170   29.6350 C.3       6 GLP5        0.0000 
     71 CA         20.2470   22.0358   33.0318 C.3       3 GLC5        0.0000 
     72 CA         18.6820   21.7180   34.8120 C.3       9 GLL5        0.0000 
     73 CA         21.7490   21.8500   31.7050 C.3       6 GLP5        0.0000 
     74 CA         19.8667   19.8140   34.7253 C.3       3 GLC5        0.0000 
     75 CA         21.5310   18.7060   34.5730 C.3       6 GLP5        0.0000 
     76 CA         19.4010   21.7420   31.5097 C.3       3 GLC5        0.0000 
     77 CA         18.2840   22.5840   32.6410 C.3       9 GLL5        0.0000 
     78 CA         20.9500   21.3830   30.5490 C.3       6 GLP5        0.0000 
     79 CA         19.6013   14.6580   29.9315 C.3       3 GLC5        0.0000 
     80 CA         18.0140   15.3550   30.4910 C.3       9 GLL5        0.0000 
     81 CA         17.1397   18.3945   29.4112 C.3       3 GLC5        0.0000 
     82 CA         18.2950   16.4330   29.6440 C.3       9 GLL5        0.0000 
     83 CA         19.5323   17.5205   28.4652 C.3       3 GLC5        0.0000 
     84 CA         18.7020   17.6090   30.2410 C.3       9 GLL5        0.0000 
     85 CA         20.5660   18.0200   26.9880 C.3       6 GLP5        0.0000 
     86 CA         19.9603   15.8190   29.7888 C.3       3 GLC5        0.0000 
     87 CA         18.9533   14.7440   33.4753 C.3       3 GLC5        0.0000 
     88 CA         18.1570   15.4750   31.8670 C.3       9 GLL5        0.0000 
     89 CA         19.5090   13.4290   34.8160 C.3       6 GLP5        0.0000 
     90 CA         19.9098   15.3380   30.8848 C.3       3 GLC5        0.0000 
     91 CA         19.8558   19.5345   30.7320 C.3       3 GLC5        0.0000 
     92 CA         20.4958   17.3885   32.9168 C.3       3 GLC5        0.0000 
     93 CA         18.8210   17.7630   31.5890 C.3       9 GLL5        0.0000 
     94 CA         22.2620   17.5740   33.8380 C.3       6 GLP5        0.0000 
     95 CA         11.6163   14.6110   22.3487 C.3       3 GLC5        0.0000 
     96 CA         10.6690   15.7160   21.1510 C.3       6 GLP5        0.0000 
     97 CA         10.6128   12.5990   23.7912 C.3       3 GLC5        0.0000 
     98 CA          9.3320   11.0940   23.2100 C.3       6 GLP5        0.0000 
     99 CA         11.2637   15.6200   25.0938 C.3       3 GLC5        0.0000 
    100 CA         10.6340   17.1360   25.8150 C.3       6 GLP5        0.0000 
    101 CA         10.8707   13.8535   26.6747 C.3       3 GLC5        0.0000 
    102 CA          9.7290   13.8760   27.7970 C.3       6 GLP5        0.0000 
    103 CA         12.8018   10.1487   26.4198 C.3       3 GLC5        0.0000 
    104 CA         12.0820    8.2930   26.4790 C.3       6 GLP5        0.0000 
    105 CA         19.2908   15.2698   25.6092 C.3       3 GLC5        0.0000 
    106 CA         19.6610   12.9750   25.0200 C.3       9 GLL5        0.0000 
    107 CA         18.6580   17.3150   25.5250 C.3       6 GLP5        0.0000 
    108 CA         19.8266   11.2949   26.6895 C.3       3 GLC5        0.0000 
    109 CA         19.5270    9.6660   27.7990 C.3       6 GLP5        0.0000 
@<TRIPOS>BOND
@<TRIPOS>SUBSTRUCTURE
     1 ALC1        9 GROUP        1 X    ALC  0     ROOT ALC X 1
     2 SEC2        1 GROUP        1 X    SEC  0     **** SEC X 2
     3 GLC5        4 GROUP        1 X    GLC  0     **** GLC X 6
     4 ALP1       11 GROUP        1 Y    ALP  0     ROOT ALP Y 8
     5 SEP2        3 GROUP        1 Y    SEP  0     **** SEP Y 9
     6 GLP5        6 GROUP        1 Y    GLP  0     **** GLP Y 13
     7 ALL1       10 GROUP        1 Z    ALL  0     ROOT ALL Z 15
     8 SEL2        2 GROUP        1 Z    SEL  0     **** SEL Z 16
     9 GLL5        5 GROUP        1 Z    GLL  0     **** GLL Z 20
@<TRIPOS>SET

