#    Name: 3ndu_ROC_1_ligand
#    Modification time : Tue Mar 25 01:22:34 2014

@<TRIPOS>MOLECULE
3ndu_ROC_1_ligand
  100   104     1     0     0
SMALL
NO_CHARGES


@<TRIPOS>ATOM
      1 C          15.0960   17.5180   33.5170 C.2       1 ROC101      0.0000 
      2 O          14.4950   16.7190   34.3710 O.2       1 ROC101      0.0000 
      3 N1         16.3370   19.5730   32.9610 N.ar      1 ROC101      0.0000 
      4 C2         16.0990   18.5600   33.8750 C.ar      1 ROC101      0.0000 
      5 C3         16.6740   18.5930   35.1330 C.ar      1 ROC101      0.0000 
      6 C4         17.6110   19.6040   35.3920 C.ar      1 ROC101      0.0000 
      7 C5         18.6820   21.7180   34.8120 C.ar      1 ROC101      0.0000 
      8 C6         18.8080   22.7250   33.9050 C.ar      1 ROC101      0.0000 
      9 C7         18.2840   22.5840   32.6410 C.ar      1 ROC101      0.0000 
     10 C8         17.4200   21.6180   32.3000 C.ar      1 ROC101      0.0000 
     11 C4A        17.8350   20.6480   34.4940 C.ar      1 ROC101      0.0000 
     12 C8A        17.1770   20.6090   33.2500 C.ar      1 ROC101      0.0000 
     13 N          14.7200   17.5130   32.2290 N.am      1 ROC101      0.0000 
     14 CA         13.8520   16.4730   31.6160 C.3       1 ROC101      0.0000 
     15 C1         14.5800   15.8980   30.4080 C.2       1 ROC101      0.0000 
     16 O1         14.4750   16.4010   29.2720 O.2       1 ROC101      0.0000 
     17 CB         12.4740   16.9130   31.2620 C.3       1 ROC101      0.0000 
     18 CG         11.8220   17.3800   32.5530 C.2       1 ROC101      0.0000 
     19 OD1        11.4920   16.4870   33.3910 O.2       1 ROC101      0.0000 
     20 ND2        11.6370   18.5770   32.7780 N.am      1 ROC101      0.0000 
     21 C9         15.5130   12.7250   29.3160 C.3       1 ROC101      0.0000 
     22 O2         15.6760   11.8410   30.4180 O.3       1 ROC101      0.0000 
     23 CA1        16.0630   14.1200   29.5760 C.3       1 ROC101      0.0000 
     24 N2         15.3000   14.7830   30.6160 N.am      1 ROC101      0.0000 
     25 CB1        17.5470   14.0430   29.9650 C.3       1 ROC101      0.0000 
     26 CG1        18.0140   15.3550   30.4910 C.ar      1 ROC101      0.0000 
     27 CD1        18.2950   16.4330   29.6440 C.ar      1 ROC101      0.0000 
     28 CD2        18.1570   15.4750   31.8670 C.ar      1 ROC101      0.0000 
     29 CE1        18.7020   17.6090   30.2410 C.ar      1 ROC101      0.0000 
     30 CE2        18.6380   16.6430   32.4020 C.ar      1 ROC101      0.0000 
     31 CZ         18.8210   17.7630   31.5890 C.ar      1 ROC101      0.0000 
     32 N11        15.2920   12.3460   26.8640 N.4       1 ROC101      0.0000 
     33 CM         16.0590   12.1370   28.0160 C.3       1 ROC101      0.0000 
     34 C21        15.9580   12.3620   25.5940 C.3       1 ROC101      0.0000 
     35 CC         17.2510   13.1800   25.6180 C.2       1 ROC101      0.0000 
     36 O3         17.1600   14.3250   26.0450 O.2       1 ROC101      0.0000 
     37 C31        15.0680   13.0220   24.5500 C.3       1 ROC101      0.0000 
     38 C3A        13.7540   12.2210   24.4460 C.3       1 ROC101      0.0000 
     39 C41        12.8350   12.7970   23.3630 C.3       1 ROC101      0.0000 
     40 C51        12.2920   14.2150   23.7300 C.3       1 ROC101      0.0000 
     41 C61        11.4950   13.9930   25.0150 C.3       1 ROC101      0.0000 
     42 C71        12.5300   13.6690   26.0900 C.3       1 ROC101      0.0000 
     43 C7A        13.0590   12.2620   25.8270 C.3       1 ROC101      0.0000 
     44 C81        13.9840   11.7470   26.8940 C.3       1 ROC101      0.0000 
     45 N3         18.3140   12.4630   25.2210 N.am      1 ROC101      0.0000 
     46 CD         19.6610   12.9750   25.0200 C.3       1 ROC101      0.0000 
     47 C11        20.4720   11.7720   24.5660 C.3       1 ROC101      0.0000 
     48 C22        19.4870   14.1710   24.2640 C.3       1 ROC101      0.0000 
     49 C32        20.1860   13.4740   26.3670 C.3       1 ROC101      0.0000 
     50 H          16.4337   17.9176   35.8452 H         1 ROC101      0.0000 
     51 H          18.1518   19.5718   36.2782 H         1 ROC101      0.0000 
     52 H          19.1799   21.7245   35.6997 H         1 ROC101      0.0000 
     53 H          19.2981   23.6015   34.1607 H         1 ROC101      0.0000 
     54 H          18.5905   23.2877   31.9040 H         1 ROC101      0.0000 
     55 H          16.9451   21.5869   31.4036 H         1 ROC101      0.0000 
     56 H          15.0283   18.2674   31.5631 H         1 ROC101      0.0000 
     57 H          13.7741   15.6301   32.3439 H         1 ROC101      0.0000 
     58 H          11.9089   16.0911   30.8567 H         1 ROC101      0.0000 
     59 H          12.5080   17.7331   30.5653 H         1 ROC101      0.0000 
     60 H          11.9098   19.2085   32.0521 H         1 ROC101      0.0000 
     61 H          11.2321   18.8006   33.6646 H         1 ROC101      0.0000 
     62 H          14.4045   12.8675   29.1312 H         1 ROC101      0.0000 
     63 H          15.9987   14.6834   28.6458 H         1 ROC101      0.0000 
     64 H          15.3406   14.3342   31.5658 H         1 ROC101      0.0000 
     65 H          18.1216   13.7616   29.0820 H         1 ROC101      0.0000 
     66 H          17.6662   13.2665   30.7213 H         1 ROC101      0.0000 
     67 H          18.2016   16.3454   28.6446 H         1 ROC101      0.0000 
     68 H          17.9008   14.6857   32.4772 H         1 ROC101      0.0000 
     69 H          18.9317   18.4289   29.6124 H         1 ROC101      0.0000 
     70 H          18.8681   16.7048   33.4056 H         1 ROC101      0.0000 
     71 H          19.0380   18.6673   32.0094 H         1 ROC101      0.0000 
     72 H          14.9860   13.5471   26.9866 H         1 ROC101      0.0000 
     73 H          16.2262   11.0369   28.2074 H         1 ROC101      0.0000 
     74 H          17.1055   12.5434   27.8953 H         1 ROC101      0.0000 
     75 H          16.1946   11.3750   25.2426 H         1 ROC101      0.0000 
     76 H          15.5613   13.0143   23.5910 H         1 ROC101      0.0000 
     77 H          14.8408   14.0329   24.8492 H         1 ROC101      0.0000 
     78 H          13.9900   11.2020   24.2167 H         1 ROC101      0.0000 
     79 H          11.9829   12.1303   23.2151 H         1 ROC101      0.0000 
     80 H          13.3830   12.8718   22.4215 H         1 ROC101      0.0000 
     81 H          11.6533   14.5491   22.9549 H         1 ROC101      0.0000 
     82 H          13.1114   14.8595   23.9129 H         1 ROC101      0.0000 
     83 H          10.8343   13.1641   24.8895 H         1 ROC101      0.0000 
     84 H          10.9744   14.8881   25.2742 H         1 ROC101      0.0000 
     85 H          12.0636   13.7032   27.0605 H         1 ROC101      0.0000 
     86 H          13.3412   14.3756   26.0331 H         1 ROC101      0.0000 
     87 H          12.1924   11.5857   25.7548 H         1 ROC101      0.0000 
     88 H          13.4985   11.9144   27.8825 H         1 ROC101      0.0000 
     89 H          14.0565   10.6409   26.7840 H         1 ROC101      0.0000 
     90 H          18.2061   11.4182   25.0237 H         1 ROC101      0.0000 
     91 H          21.4289   12.0104   24.4001 H         1 ROC101      0.0000 
     92 H          20.4661   11.0411   25.2485 H         1 ROC101      0.0000 
     93 H          20.1154   11.3828   23.7167 H         1 ROC101      0.0000 
     94 H          20.3609   14.6132   24.0622 H         1 ROC101      0.0000 
     95 H          19.0385   13.9946   23.3878 H         1 ROC101      0.0000 
     96 H          18.9256   14.8399   24.7512 H         1 ROC101      0.0000 
     97 H          21.1135   13.8400   26.2916 H         1 ROC101      0.0000 
     98 H          19.6130   14.2027   26.7421 H         1 ROC101      0.0000 
     99 H          20.2139   12.7428   27.0486 H         1 ROC101      0.0000 
    100 H          16.6258   11.9604   30.7071 H         1 ROC101      0.0000 
@<TRIPOS>BOND
     1    2    1 2    
     2    4    1 1    
     3   13    1 am   
     4    4    3 ar   
     5   12    3 ar   
     6    5    4 ar   
     7    6    5 ar   
     8   50    5 1    
     9   11    6 ar   
    10   51    6 1    
    11    8    7 ar   
    12   11    7 ar   
    13   52    7 1    
    14    9    8 ar   
    15   53    8 1    
    16   10    9 ar   
    17   54    9 1    
    18   12   10 ar   
    19   55   10 1    
    20   12   11 ar   
    21   14   13 1    
    22   56   13 1    
    23   15   14 1    
    24   17   14 1    
    25   57   14 1    
    26   16   15 2    
    27   24   15 am   
    28   18   17 1    
    29   58   17 1    
    30   59   17 1    
    31   19   18 2    
    32   20   18 am   
    33   60   20 1    
    34   61   20 1    
    35   22   21 1    
    36   23   21 1    
    37   33   21 1    
    38   62   21 1    
    39  100   22 1    
    40   24   23 1    
    41   25   23 1    
    42   63   23 1    
    43   64   24 1    
    44   26   25 1    
    45   65   25 1    
    46   66   25 1    
    47   27   26 ar   
    48   28   26 ar   
    49   29   27 ar   
    50   67   27 1    
    51   30   28 ar   
    52   68   28 1    
    53   31   29 ar   
    54   69   29 1    
    55   31   30 ar   
    56   70   30 1    
    57   71   31 1    
    58   33   32 1    
    59   34   32 1    
    60   44   32 1    
    61   72   32 1    
    62   73   33 1    
    63   74   33 1    
    64   35   34 1    
    65   37   34 1    
    66   75   34 1    
    67   36   35 2    
    68   45   35 am   
    69   38   37 1    
    70   76   37 1    
    71   77   37 1    
    72   39   38 1    
    73   43   38 1    
    74   78   38 1    
    75   40   39 1    
    76   79   39 1    
    77   80   39 1    
    78   41   40 1    
    79   81   40 1    
    80   82   40 1    
    81   42   41 1    
    82   83   41 1    
    83   84   41 1    
    84   43   42 1    
    85   85   42 1    
    86   86   42 1    
    87   44   43 1    
    88   87   43 1    
    89   88   44 1    
    90   89   44 1    
    91   46   45 1    
    92   90   45 1    
    93   47   46 1    
    94   48   46 1    
    95   49   46 1    
    96   91   47 1    
    97   92   47 1    
    98   93   47 1    
    99   94   48 1    
   100   95   48 1    
   101   96   48 1    
   102   97   49 1    
   103   98   49 1    
   104   99   49 1    
@<TRIPOS>SUBSTRUCTURE
     1 ROC101      1 GROUP   
@<TRIPOS>SET

