#    Name: 1zzl_TZY_1_INTS_M
#    Modification time : Mon Mar 24 18:12:22 2014

@<TRIPOS>MOLECULE
1zzl_TZY_1_INTS_M
   70     0     6     0     0
SMALL
NO_CHARGES


@<TRIPOS>ATOM
      1 CA         10.3450   10.8750   31.2830 C.3       2 GLC5        0.0000 
      2 CA          8.6350   10.9600   30.5580 C.3       6 GLL5        0.0000 
      3 CA         12.0550   10.7900   32.0080 C.3       4 GLP5        0.0000 
      4 CA          9.1865    9.6005   29.5585 C.3       2 GLC5        0.0000 
      5 CA          9.7380    8.2410   28.5590 C.3       4 GLP5        0.0000 
      6 CA          7.8625    9.6175   31.4830 C.3       2 GLC5        0.0000 
      7 CA          7.0900    8.2750   32.4080 C.3       4 GLP5        0.0000 
      8 CA          8.6855   13.5080   32.3195 C.3       2 GLC5        0.0000 
      9 CA          7.1730   12.5060   31.5190 C.3       6 GLL5        0.0000 
     10 CA         10.1980   14.5100   33.1200 C.3       4 GLP5        0.0000 
     11 CA          4.1580   12.9835   27.7730 C.3       2 GLC5        0.0000 
     12 CA          5.3300   12.0640   29.4510 C.3       6 GLL5        0.0000 
     13 CA          2.9860   13.9030   26.0950 C.3       4 GLP5        0.0000 
     14 N           4.7465   15.9630   30.0700 N.am      1 SEC2        0.0000 
     15 N           3.5880   15.0770   30.4200 N.am      5 SEL2        0.0000 
     16 N           5.9050   16.8490   29.7200 N.am      3 SEP2        0.0000 
     17 CA          1.0475   14.1440   29.2285 C.3       2 GLC5        0.0000 
     18 CA          2.4440   13.2230   30.6590 C.3       6 GLL5        0.0000 
     19 CA         -0.3490   15.0650   27.7980 C.3       4 GLP5        0.0000 
     20 CA         -4.6245   11.7880   32.7645 C.3       2 GLC5        0.0000 
     21 CA         -3.0740   11.2070   31.5490 C.3       6 GLL5        0.0000 
     22 CA         -6.1750   12.3690   33.9800 C.3       4 GLP5        0.0000 
     23 CA         -2.2395   10.4105   33.3570 C.3       2 GLC5        0.0000 
     24 CA         -1.4050    9.6140   35.1650 C.3       4 GLP5        0.0000 
     25 CA         -1.7020   12.4515   32.7435 C.3       2 GLC5        0.0000 
     26 CA         -0.3300   13.6960   33.9380 C.3       4 GLP5        0.0000 
     27 CA         -3.5025   11.4650   28.8955 C.3       2 GLC5        0.0000 
     28 CA         -3.3800    9.6640   29.6030 C.3       6 GLL5        0.0000 
     29 CA         -3.6250   13.2660   28.1880 C.3       4 GLP5        0.0000 
     30 CA         -3.6375    7.6330   29.8980 C.3       2 GLC5        0.0000 
     31 CA         -3.8950    5.6020   30.1930 C.3       4 GLP5        0.0000 
     32 CA         -4.8630    8.8625   30.6850 C.3       2 GLC5        0.0000 
     33 CA         -6.3460    8.0610   31.7670 C.3       4 GLP5        0.0000 
     34 N          -0.0235    6.8545   31.7510 N.am      1 SEC2        0.0000 
     35 N           0.1400    8.2600   31.5550 N.am      5 SEL2        0.0000 
     36 N          -0.1870    5.4490   31.9470 N.am      3 SEP2        0.0000 
     37 N          -0.6385    7.0035   31.5870 N.am      1 SEC2        0.0000 
     38 N          -1.0900    8.5580   31.2270 N.am      5 SEL2        0.0000 
     39 N          -1.9485    7.1790   31.1725 N.am      1 SEC2        0.0000 
     40 N          -2.8070    5.8000   31.1180 N.am      3 SEP2        0.0000 
     41 CA          3.0005    9.3175   29.8672 C.3       2 GLC5        0.0000 
     42 CA          2.8010   10.8480   31.4050 C.3       6 GLL5        0.0000 
     43 CA          3.4530    8.4090   28.2040 C.3       4 GLP5        0.0000 
     44 CA          3.1660    9.6100   33.4207 C.3       2 GLC5        0.0000 
     45 CA          2.2950    9.6040   31.6560 C.3       6 GLL5        0.0000 
     46 CA          3.7840    8.9940   35.3110 C.3       4 GLP5        0.0000 
     47 CA          4.1400    9.5480   31.7503 C.3       2 GLC5        0.0000 
     48 CA          5.7320    8.8700   31.9700 C.3       4 GLP5        0.0000 
     49 CA          1.8410   11.1440   33.3167 C.3       2 GLC5        0.0000 
     50 CA          1.1340   12.0620   35.1030 C.3       4 GLP5        0.0000 
     51 CA         -3.3512   12.2790   30.2112 C.3       2 GLC5        0.0000 
     52 CA         -2.3850   10.5790   30.3240 C.3       6 GLL5        0.0000 
     53 CA         -3.9730   13.6650   29.4860 C.3       4 GLP5        0.0000 
     54 CA          6.5253   10.4662   31.4870 C.3       2 GLC5        0.0000 
     55 CA          7.4640   11.6190   30.4890 C.3       6 GLL5        0.0000 
     56 CA          6.1935   12.1390   33.3957 C.3       2 GLC5        0.0000 
     57 CA          5.8220   11.4280   35.2680 C.3       4 GLP5        0.0000 
     58 CA          5.6128   10.9770   31.4913 C.3       2 GLC5        0.0000 
     59 CA          5.0300   12.9740   30.4970 C.3       6 GLL5        0.0000 
     60 CA          4.6973   10.0635   28.8305 C.3       2 GLC5        0.0000 
     61 CA          6.5530   11.3720   29.4630 C.3       6 GLL5        0.0000 
     62 CA          6.3857   12.7750   27.9860 C.3       2 GLC5        0.0000 
     63 CA          6.8300   13.8320   26.5150 C.3       4 GLP5        0.0000 
     64 CA          9.0461   12.0029   29.4146 C.3       2 GLC5        0.0000 
     65 CA         10.7910   12.6750   28.8360 C.3       4 GLP5        0.0000 
     66 CA          5.8368   10.2940   30.7135 C.3       2 GLC5        0.0000 
     67 CA          5.6769   14.7945   29.7421 C.3       2 GLC5        0.0000 
     68 CA          5.9570   13.1940   31.5280 C.3       6 GLL5        0.0000 
     69 CA          6.7420   16.1780   28.7120 C.3       4 GLP5        0.0000 
     70 CA          0.7719   13.0855   32.3278 C.3       2 GLC5        0.0000 
@<TRIPOS>BOND
@<TRIPOS>SUBSTRUCTURE
     1 SEC2       14 GROUP        1 X    SEC  0     ROOT SEC X 2
     2 GLC5        1 GROUP        1 X    GLC  0     **** GLC X 6
     3 SEP2       16 GROUP        1 Y    SEP  0     ROOT SEP Y 9
     4 GLP5        3 GROUP        1 Y    GLP  0     **** GLP Y 13
     5 SEL2       15 GROUP        1 Z    SEL  0     ROOT SEL Z 16
     6 GLL5        2 GROUP        1 Z    GLL  0     **** GLL Z 20
@<TRIPOS>SET

