#    Name: 1zzl_TZY_1_ligand
#    Modification time : Mon Mar 24 18:12:22 2014

@<TRIPOS>MOLECULE
1zzl_TZY_1_ligand
   39    42     1     0     0
SMALL
NO_CHARGES


@<TRIPOS>ATOM
      1 C7          0.6320   11.5970   30.6790 C.2       1 TZY999      0.0000 
      2 C9          2.3290   15.3620   30.4860 C.2       1 TZY999      0.0000 
      3 C13         2.2950    9.6040   31.6560 C.2       1 TZY999      0.0000 
      4 C21        -2.3850   10.5790   30.3240 C.3       1 TZY999      0.0000 
      5 C8          2.8010   10.8480   31.4050 C.2       1 TZY999      0.0000 
      6 C18         7.4640   11.6190   30.4890 C.ar      1 TZY999      0.0000 
      7 C16         0.9040    9.3440   31.4150 C.2       1 TZY999      0.0000 
      8 F22         8.6350   10.9600   30.5580 F         1 TZY999      0.0000 
      9 C15         7.1730   12.5060   31.5190 C.ar      1 TZY999      0.0000 
     10 C11         5.9570   13.1940   31.5280 C.ar      1 TZY999      0.0000 
     11 C14         6.5530   11.3720   29.4630 C.ar      1 TZY999      0.0000 
     12 C10         5.3300   12.0640   29.4510 C.ar      1 TZY999      0.0000 
     13 C5          5.0300   12.9740   30.4970 C.ar      1 TZY999      0.0000 
     14 C2          3.7300   13.7380   30.5320 C.2       1 TZY999      0.0000 
     15 N6          3.5880   15.0770   30.4200 N.2       1 TZY999      0.0000 
     16 O4          1.5800   14.2650   30.6580 O.3       1 TZY999      0.0000 
     17 C1          2.4440   13.2230   30.6590 C.2       1 TZY999      0.0000 
     18 C3          1.9750   11.8570   30.8730 C.2       1 TZY999      0.0000 
     19 N12         0.0920   10.3600   30.9420 N.pl3     1 TZY999      0.0000 
     20 C17        -1.1580    9.8210   30.8110 C.2       1 TZY999      0.0000 
     21 C24        -3.0740   11.2070   31.5490 C.3       1 TZY999      0.0000 
     22 C23        -3.3800    9.6640   29.6030 C.3       1 TZY999      0.0000 
     23 N19         0.1400    8.2600   31.5550 N.2       1 TZY999      0.0000 
     24 N20        -1.0900    8.5580   31.2270 N.2       1 TZY999      0.0000 
     25 H           0.0146   12.3599   30.3241 H         1 TZY999      0.0000 
     26 H           1.9368   16.2794   30.4197 H         1 TZY999      0.0000 
     27 H           2.8768    8.8433   32.0130 H         1 TZY999      0.0000 
     28 H          -2.0829   11.3682   29.6688 H         1 TZY999      0.0000 
     29 H           3.7900   11.0678   31.5996 H         1 TZY999      0.0000 
     30 H           7.8511   12.6581   32.2763 H         1 TZY999      0.0000 
     31 H           5.7412   13.8531   32.2782 H         1 TZY999      0.0000 
     32 H           6.7667   10.6985   28.7280 H         1 TZY999      0.0000 
     33 H           4.6595   11.9173   28.6989 H         1 TZY999      0.0000 
     34 H          -2.4689   11.8405   32.0313 H         1 TZY999      0.0000 
     35 H          -3.8921   11.7215   31.2919 H         1 TZY999      0.0000 
     36 H          -3.3597   10.5136   32.2105 H         1 TZY999      0.0000 
     37 H          -2.9712    9.2303   28.8000 H         1 TZY999      0.0000 
     38 H          -3.7077    8.9299   30.1977 H         1 TZY999      0.0000 
     39 H          -4.1848   10.1664   29.2869 H         1 TZY999      0.0000 
@<TRIPOS>BOND
     1   18    1 2    
     2   19    1 1    
     3   25    1 1    
     4   15    2 2    
     5   16    2 1    
     6   26    2 1    
     7    5    3 2    
     8    7    3 1    
     9   27    3 1    
    10   20    4 1    
    11   21    4 1    
    12   22    4 1    
    13   28    4 1    
    14   18    5 1    
    15   29    5 1    
    16    8    6 1    
    17    9    6 ar   
    18   11    6 ar   
    19   19    7 1    
    20   23    7 2    
    21   10    9 ar   
    22   30    9 1    
    23   13   10 ar   
    24   31   10 1    
    25   12   11 ar   
    26   32   11 1    
    27   13   12 ar   
    28   33   12 1    
    29   14   13 1    
    30   15   14 1    
    31   17   14 2    
    32   17   16 1    
    33   18   17 1    
    34   20   19 1    
    35   24   20 2    
    36   34   21 1    
    37   35   21 1    
    38   36   21 1    
    39   37   22 1    
    40   38   22 1    
    41   39   22 1    
    42   24   23 1    
@<TRIPOS>SUBSTRUCTURE
     1 TZY999      1 GROUP   
@<TRIPOS>SET

