#    Name: 1xm1_GAH_1_INTS_M
#    Modification time : Mon Apr  7 15:22:01 2014

@<TRIPOS>MOLECULE
1xm1_GAH_1_INTS_M
   85     0     9     0     0
SMALL
NO_CHARGES


@<TRIPOS>ATOM
      1 CA          7.6260  -15.0765    8.6820 C.3       3 GLC5        0.0000 
      2 CA          6.4210  -15.2160   10.5670 C.3       9 GLL5        0.0000 
      3 CA          8.8310  -14.9370    6.7970 C.3       6 GLP5        0.0000 
      4 CA          7.7615  -13.8575    8.1855 C.3       3 GLC5        0.0000 
      5 CA          6.6920  -12.7780    9.5740 C.3       9 GLL5        0.0000 
      6 CA          8.0710  -11.0490   11.4805 C.3       3 GLC5        0.0000 
      7 CA          8.1560  -12.7400   10.1430 C.3       9 GLL5        0.0000 
      8 CA          7.9860   -9.3580   12.8180 C.3       6 GLP5        0.0000 
      9 CA          9.4210  -11.6920    9.3790 C.3       3 GLC5        0.0000 
     10 CA         10.6860  -10.6440    8.6150 C.3       6 GLP5        0.0000 
     11 CA         10.8615  -12.4630   11.7895 C.3       3 GLC5        0.0000 
     12 CA         10.5220  -14.5770   12.4180 C.3       9 GLL5        0.0000 
     13 CA         11.2010  -10.3490   11.1610 C.3       6 GLP5        0.0000 
     14 CA          9.5795  -14.4950    8.8505 C.3       3 GLC5        0.0000 
     15 CA         10.3280  -14.0530   10.9040 C.3       9 GLL5        0.0000 
     16 N          13.0090  -12.3610   11.9130 N.am      2 SEC2        0.0000 
     17 N          12.2000  -13.1210   13.1950 N.am      8 SEL2        0.0000 
     18 N          13.8180  -11.6010   10.6310 N.am      5 SEP2        0.0000 
     19 CA         10.7640  -10.7315   13.0070 C.3       3 GLC5        0.0000 
     20 CA         10.3270  -11.1140   14.8530 C.3       9 GLL5        0.0000 
     21 O          12.1825   -9.2905   14.5495 O.2       1 ALC1        0.0000 
     22 O          12.8270  -10.3140   15.7160 O.2       7 ALL1        0.0000 
     23 O          11.5380   -8.2670   13.3830 O.2       4 ALP1        0.0000 
     24 CA         13.5165   -7.3945   12.8065 C.3       3 GLC5        0.0000 
     25 CA         15.2300   -8.6680   13.2710 C.3       9 GLL5        0.0000 
     26 CA         11.8030   -6.1210   12.3420 C.3       6 GLP5        0.0000 
     27 O          19.0525   -9.4740   10.4815 O.2       1 ALC1        0.0000 
     28 O          17.7830   -9.6220   10.5380 O.2       7 ALL1        0.0000 
     29 O          20.3220   -9.3260   10.4250 O.2       4 ALP1        0.0000 
     30 CA         17.7160  -14.1775   14.9520 C.3       3 GLC5        0.0000 
     31 CA         15.5660  -14.3410   15.0850 C.3       9 GLL5        0.0000 
     32 CA         19.8660  -14.0140   14.8190 C.3       6 GLP5        0.0000 
     33 CA         15.1335  -14.5655   18.6740 C.3       3 GLC5        0.0000 
     34 CA         14.1360  -15.5770   16.9490 C.3       9 GLL5        0.0000 
     35 CA         16.1310  -13.5540   20.3990 C.3       6 GLP5        0.0000 
     36 N          16.1755  -15.8990   11.8995 N.am      2 SEC2        0.0000 
     37 N          15.4680  -15.1870   12.8500 N.am      8 SEL2        0.0000 
     38 N          16.8830  -16.6110   10.9490 N.am      5 SEP2        0.0000 
     39 O          17.6335  -14.0360   12.0105 O.2       1 ALC1        0.0000 
     40 O          16.7470  -13.3900   12.9960 O.2       7 ALL1        0.0000 
     41 O          18.5200  -14.6820   11.0250 O.2       4 ALP1        0.0000 
     42 CA         14.1260  -17.4272   10.2050 C.3       3 GLC5        0.0000 
     43 CA         13.7060  -19.2670   10.7670 C.3       9 GLL5        0.0000 
     44 CA         15.1640  -16.0920    9.3800 C.3       6 GLP5        0.0000 
     45 CA          8.6698  -14.2075    8.5033 C.3       3 GLC5        0.0000 
     46 CA          8.8610  -14.2160   10.2760 C.3       9 GLL5        0.0000 
     47 CA         10.4467  -12.9853    9.4015 C.3       3 GLC5        0.0000 
     48 CA         11.2990  -11.8360    8.2130 C.3       6 GLP5        0.0000 
     49 CA          5.2780  -12.1397    8.9665 C.3       3 GLC5        0.0000 
     50 CA          4.3340  -10.9990    7.9650 C.3       6 GLP5        0.0000 
     51 CA          5.9465  -11.7622   11.3870 C.3       3 GLC5        0.0000 
     52 CA          5.6710  -10.2440   12.8060 C.3       6 GLP5        0.0000 
     53 CA          9.5240   -9.9183   16.3472 C.3       3 GLC5        0.0000 
     54 CA          9.0910  -11.5050   15.5140 C.3       9 GLL5        0.0000 
     55 CA          9.3390   -8.5270   17.5110 C.3       6 GLP5        0.0000 
     56 CA          7.1820  -12.8933   15.5418 C.3       3 GLC5        0.0000 
     57 CA          5.2760  -13.5600   15.8840 C.3       6 GLP5        0.0000 
     58 CA          9.4940  -13.4032   16.5678 C.3       3 GLC5        0.0000 
     59 CA          9.0850  -12.9480   14.8850 C.3       9 GLL5        0.0000 
     60 CA          9.9000  -14.5800   17.9360 C.3       6 GLP5        0.0000 
     61 CA          8.6915  -10.7434   13.9261 C.3       3 GLC5        0.0000 
     62 CA         13.9812   -8.5175   16.7602 C.3       3 GLC5        0.0000 
     63 CA         14.2020  -10.6690   16.3170 C.3       9 GLL5        0.0000 
     64 CA         13.2930   -6.9980   17.4060 C.3       6 GLP5        0.0000 
     65 CA         15.8227   -7.5478   14.7315 C.3       3 GLC5        0.0000 
     66 CA         15.1370   -9.4050   15.9120 C.3       9 GLL5        0.0000 
     67 CA         16.1900   -5.6790   14.2950 C.3       6 GLP5        0.0000 
     68 CA         17.9385   -8.5670   14.1130 C.3       3 GLC5        0.0000 
     69 CA         15.7740   -9.4280   14.4240 C.3       9 GLL5        0.0000 
     70 CA         19.5050   -7.3150   13.9260 C.3       6 GLP5        0.0000 
     71 CA         18.5045  -10.5965   14.8963 C.3       3 GLC5        0.0000 
     72 CA         16.9700  -10.2100   14.1760 C.3       9 GLL5        0.0000 
     73 CA         19.7150  -10.9550   16.2630 C.3       6 GLP5        0.0000 
     74 CA         15.8813   -7.1890   13.4485 C.3       3 GLC5        0.0000 
     75 CA         18.0729   -8.3155   13.0264 C.3       3 GLC5        0.0000 
     76 CA         17.1150   -9.5380   11.7580 C.3       9 GLL5        0.0000 
     77 CA         14.1412   -9.3020   12.1316 C.3       3 GLC5        0.0000 
     78 CA         15.9150   -8.7300   11.9330 C.3       9 GLL5        0.0000 
     79 CA         12.5740   -9.7150   11.3730 C.3       6 GLP5        0.0000 
     80 CA         15.6060  -10.7450   10.8057 C.3       3 GLC5        0.0000 
     81 CA         14.6970  -12.3560    9.7660 C.3       6 GLP5        0.0000 
     82 CA         16.9400   -8.8815    9.8102 C.3       3 GLC5        0.0000 
     83 CA         17.3650   -8.6290    7.7750 C.3       6 GLP5        0.0000 
     84 CA         11.5546  -15.4765   17.9718 C.3       3 GLC5        0.0000 
     85 CA         12.7830  -16.5960   18.8670 C.3       9 GLL5        0.0000 
@<TRIPOS>BOND
@<TRIPOS>SUBSTRUCTURE
     1 ALC1       21 GROUP        1 X    ALC  0     ROOT ALC X 1
     2 SEC2       16 GROUP        1 X    SEC  0     **** SEC X 2
     3 GLC5        1 GROUP        1 X    GLC  0     **** GLC X 6
     4 ALP1       23 GROUP        1 Y    ALP  0     ROOT ALP Y 8
     5 SEP2       18 GROUP        1 Y    SEP  0     **** SEP Y 9
     6 GLP5        3 GROUP        1 Y    GLP  0     **** GLP Y 13
     7 ALL1       22 GROUP        1 Z    ALL  0     ROOT ALL Z 15
     8 SEL2       17 GROUP        1 Z    SEL  0     **** SEL Z 16
     9 GLL5        2 GROUP        1 Z    GLL  0     **** GLL Z 20
@<TRIPOS>SET

