#    Name: 1xm1_GAH_1_ligand
#    Modification time : Mon Apr  7 15:22:01 2014

@<TRIPOS>MOLECULE
1xm1_GAH_1_ligand
  117   120     1     0     0
SMALL
NO_CHARGES


@<TRIPOS>ATOM
      1 C1         13.7060  -19.2670   10.7670 C.3       1 GAH1001     0.0000 
      2 C6         14.1280  -20.3570   11.9360 C.3       1 GAH1001     0.0000 
      3 C7         15.2980  -21.4620   11.7250 C.3       1 GAH1001     0.0000 
      4 N8         15.6760  -22.1860   13.0470 N.pl3     1 GAH1001     0.0000 
      5 C9         14.9220  -23.2880   13.5180 C.cat     1 GAH1001     0.0000 
      6 N11        13.8490  -23.7540   12.8280 N.pl3     1 GAH1001     0.0000 
      7 N10        15.2670  -23.8870   14.6630 N.pl3     1 GAH1001     0.0000 
      8 C5         14.4740  -19.5630   13.2350 C.3       1 GAH1001     0.0000 
      9 C4         13.6420  -18.2730   13.5800 C.3       1 GAH1001     0.0000 
     10 C3         12.2280  -18.1780   12.9690 C.3       1 GAH1001     0.0000 
     11 C12        11.5290  -16.9310   13.6410 C.2       1 GAH1001     0.0000 
     12 O13        11.2270  -16.9330   14.8490 O.2       1 GAH1001     0.0000 
     13 C2         12.4700  -18.2580   11.2930 C.3       1 GAH1001     0.0000 
     14 C18         8.8610  -14.2160   10.2760 C.3       1 GAH1001     0.0000 
     15 C23         7.8490  -15.1160   11.2310 C.3       1 GAH1001     0.0000 
     16 C22         6.4210  -15.2160   10.5670 C.3       1 GAH1001     0.0000 
     17 C21         5.7520  -13.7830   10.3620 C.3       1 GAH1001     0.0000 
     18 C20         6.6920  -12.7780    9.5740 C.3       1 GAH1001     0.0000 
     19 C19         8.1560  -12.7400   10.1430 C.3       1 GAH1001     0.0000 
     20 N14        11.1710  -15.9630   12.6680 N.am      1 GAH1001     0.0000 
     21 C15        10.5220  -14.5770   12.4180 C.3       1 GAH1001     0.0000 
     22 C16        10.3280  -14.0530   10.9040 C.3       1 GAH1001     0.0000 
     23 C17        11.0410  -13.3620   13.3350 C.2       1 GAH1001     0.0000 
     24 O24        12.2000  -13.1210   13.1950 O.2       1 GAH1001     0.0000 
     25 N25        10.3280  -12.4840   14.2480 N.am      1 GAH1001     0.0000 
     26 C28        10.3270  -11.1140   14.8530 C.3       1 GAH1001     0.0000 
     27 C29        11.6130  -11.0880   15.8110 C.2       1 GAH1001     0.0000 
     28 O30        11.5230  -11.8760   16.7840 O.2       1 GAH1001     0.0000 
     29 C27         9.0910  -11.5050   15.5140 C.3       1 GAH1001     0.0000 
     30 C26         9.0850  -12.9480   14.8850 C.3       1 GAH1001     0.0000 
     31 N31        12.8270  -10.3140   15.7160 N.am      1 GAH1001     0.0000 
     32 C32        14.2020  -10.6690   16.3170 C.3       1 GAH1001     0.0000 
     33 C41        15.0560  -11.9750   16.1630 C.2       1 GAH1001     0.0000 
     34 O42        16.1310  -11.9720   16.7790 O.2       1 GAH1001     0.0000 
     35 C33        15.1370   -9.4050   15.9120 C.3       1 GAH1001     0.0000 
     36 C34        15.7740   -9.4280   14.4240 C.ar      1 GAH1001     0.0000 
     37 C39        16.9700  -10.2100   14.1760 C.ar      1 GAH1001     0.0000 
     38 C35        15.2300   -8.6680   13.2710 C.ar      1 GAH1001     0.0000 
     39 C38        17.6180  -10.2660   12.8830 C.ar      1 GAH1001     0.0000 
     40 C36        15.9150   -8.7300   11.9330 C.ar      1 GAH1001     0.0000 
     41 C37        17.1150   -9.5380   11.7580 C.ar      1 GAH1001     0.0000 
     42 O40        17.7830   -9.6220   10.5380 O.3       1 GAH1001     0.0000 
     43 N43        14.9460  -13.1220   15.5170 N.am      1 GAH1001     0.0000 
     44 C44        15.5660  -14.3410   15.0850 C.3       1 GAH1001     0.0000 
     45 C48        14.6100  -15.4850   15.4940 C.3       1 GAH1001     0.0000 
     46 C50        13.1350  -16.7230   17.3470 C.3       1 GAH1001     0.0000 
     47 C49        14.1360  -15.5770   16.9490 C.3       1 GAH1001     0.0000 
     48 C51        12.7830  -16.5960   18.8670 C.3       1 GAH1001     0.0000 
     49 N52        11.8000  -17.6380   19.3280 N.pl3     1 GAH1001     0.0000 
     50 C53        10.9210  -17.4290   20.3100 C.cat     1 GAH1001     0.0000 
     51 N55        10.7860  -16.3220   21.0050 N.pl3     1 GAH1001     0.0000 
     52 N54        10.0960  -18.4500   20.6140 N.pl3     1 GAH1001     0.0000 
     53 C45        15.9070  -14.3710   13.5660 C.2       1 GAH1001     0.0000 
     54 O46        15.4680  -15.1870   12.8500 O.2       1 GAH1001     0.0000 
     55 N47        16.7470  -13.3900   12.9960 N.am      1 GAH1001     0.0000 
     56 H          13.3475  -19.7985    9.9216 H         1 GAH1001     0.0000 
     57 H          14.5475  -18.6574   10.5524 H         1 GAH1001     0.0000 
     58 H          13.1981  -20.9158   12.1914 H         1 GAH1001     0.0000 
     59 H          16.1615  -20.9437   11.3266 H         1 GAH1001     0.0000 
     60 H          14.9349  -22.1802   11.0002 H         1 GAH1001     0.0000 
     61 H          16.4788  -21.8217   13.5330 H         1 GAH1001     0.0000 
     62 H          13.6376  -23.2822   11.9720 H         1 GAH1001     0.0000 
     63 H          13.3652  -24.5278   13.2369 H         1 GAH1001     0.0000 
     64 H          16.0556  -23.5007   15.1415 H         1 GAH1001     0.0000 
     65 H          14.7054  -24.6674   14.9379 H         1 GAH1001     0.0000 
     66 H          15.5512  -19.2728   13.1913 H         1 GAH1001     0.0000 
     67 H          14.3969  -20.2611   14.1028 H         1 GAH1001     0.0000 
     68 H          14.2331  -17.3927   13.2586 H         1 GAH1001     0.0000 
     69 H          13.5629  -18.2059   14.6831 H         1 GAH1001     0.0000 
     70 H          11.7154  -19.0882   13.2430 H         1 GAH1001     0.0000 
     71 H          11.5479  -18.6067   10.8524 H         1 GAH1001     0.0000 
     72 H          12.6923  -17.2575   10.9533 H         1 GAH1001     0.0000 
     73 H           8.8947  -14.6441    9.3319 H         1 GAH1001     0.0000 
     74 H           7.7827  -14.6174   12.1720 H         1 GAH1001     0.0000 
     75 H           8.2830  -16.0869   11.3173 H         1 GAH1001     0.0000 
     76 H           5.7760  -15.8047   11.2054 H         1 GAH1001     0.0000 
     77 H           6.5149  -15.6895    9.5990 H         1 GAH1001     0.0000 
     78 H           5.5336  -13.3645   11.3368 H         1 GAH1001     0.0000 
     79 H           4.8328  -13.9110    9.8038 H         1 GAH1001     0.0000 
     80 H           6.2616  -11.7827    9.6403 H         1 GAH1001     0.0000 
     81 H           6.7259  -13.0855    8.5326 H         1 GAH1001     0.0000 
     82 H           8.7878  -12.1444    9.4897 H         1 GAH1001     0.0000 
     83 H           8.1518  -12.2998   11.1364 H         1 GAH1001     0.0000 
     84 H          11.4918  -16.3524   11.5780 H         1 GAH1001     0.0000 
     85 H           9.4053  -14.6828   12.7833 H         1 GAH1001     0.0000 
     86 H          10.5968  -12.9906   10.8783 H         1 GAH1001     0.0000 
     87 H          11.0368  -14.5945   10.2668 H         1 GAH1001     0.0000 
     88 H          10.2665  -10.4287   14.1930 H         1 GAH1001     0.0000 
     89 H           8.2697  -11.0009   15.1516 H         1 GAH1001     0.0000 
     90 H           9.1999  -11.6068   16.5327 H         1 GAH1001     0.0000 
     91 H           9.2627  -13.5983   15.6175 H         1 GAH1001     0.0000 
     92 H           8.3297  -12.9931   14.2379 H         1 GAH1001     0.0000 
     93 H          12.8101   -9.4076   15.1897 H         1 GAH1001     0.0000 
     94 H          14.1127  -10.4676   17.4552 H         1 GAH1001     0.0000 
     95 H          15.9584   -9.3498   16.6323 H         1 GAH1001     0.0000 
     96 H          14.5354   -8.4967   16.0099 H         1 GAH1001     0.0000 
     97 H          17.3751  -10.7487   14.9549 H         1 GAH1001     0.0000 
     98 H          14.4102   -8.1133   13.3744 H         1 GAH1001     0.0000 
     99 H          18.4575  -10.8432   12.7773 H         1 GAH1001     0.0000 
    100 H          15.5289   -8.2066   11.1725 H         1 GAH1001     0.0000 
    101 H          13.7894  -13.2007   15.0758 H         1 GAH1001     0.0000 
    102 H          16.4962  -14.5058   15.6409 H         1 GAH1001     0.0000 
    103 H          15.0982  -16.4586   15.2178 H         1 GAH1001     0.0000 
    104 H          13.7058  -15.4339   14.8290 H         1 GAH1001     0.0000 
    105 H          13.6048  -17.6717   17.1715 H         1 GAH1001     0.0000 
    106 H          12.2383  -16.6185   16.7670 H         1 GAH1001     0.0000 
    107 H          13.6630  -14.6050   17.2382 H         1 GAH1001     0.0000 
    108 H          15.0297  -15.6675   17.6163 H         1 GAH1001     0.0000 
    109 H          12.3761  -15.5920   19.0339 H         1 GAH1001     0.0000 
    110 H          13.7167  -16.6791   19.4352 H         1 GAH1001     0.0000 
    111 H          11.8643  -18.5433   18.8116 H         1 GAH1001     0.0000 
    112 H           9.4208  -18.2720   21.3298 H         1 GAH1001     0.0000 
    113 H          10.2324  -19.2949   20.0967 H         1 GAH1001     0.0000 
    114 H          16.9307  -13.4827   12.0174 H         1 GAH1001     0.0000 
    115 H          17.0869  -12.6857   13.6193 H         1 GAH1001     0.0000 
    116 H          18.7424   -9.4425   10.7555 H         1 GAH1001     0.0000 
    117 H          11.5363  -15.7339   20.7030 H         1 GAH1001     0.0000 
@<TRIPOS>BOND
     1    2    1 1    
     2   13    1 1    
     3   56    1 1    
     4   57    1 1    
     5    3    2 1    
     6    8    2 1    
     7   58    2 1    
     8    4    3 1    
     9   59    3 1    
    10   60    3 1    
    11    5    4 ar   
    12   61    4 1    
    13    6    5 ar   
    14    7    5 ar   
    15   62    6 1    
    16   63    6 1    
    17   64    7 1    
    18   65    7 1    
    19    9    8 1    
    20   66    8 1    
    21   67    8 1    
    22   10    9 1    
    23   68    9 1    
    24   69    9 1    
    25   11   10 1    
    26   13   10 1    
    27   70   10 1    
    28   12   11 2    
    29   20   11 am   
    30   71   13 1    
    31   72   13 1    
    32   15   14 1    
    33   19   14 1    
    34   22   14 1    
    35   73   14 1    
    36   16   15 1    
    37   74   15 1    
    38   75   15 1    
    39   17   16 1    
    40   76   16 1    
    41   77   16 1    
    42   18   17 1    
    43   78   17 1    
    44   79   17 1    
    45   19   18 1    
    46   80   18 1    
    47   81   18 1    
    48   82   19 1    
    49   83   19 1    
    50   21   20 1    
    51   84   20 1    
    52   22   21 1    
    53   23   21 1    
    54   85   21 1    
    55   86   22 1    
    56   87   22 1    
    57   24   23 2    
    58   25   23 am   
    59   26   25 1    
    60   30   25 1    
    61   27   26 1    
    62   29   26 1    
    63   88   26 1    
    64   28   27 2    
    65   31   27 am   
    66   30   29 1    
    67   89   29 1    
    68   90   29 1    
    69   91   30 1    
    70   92   30 1    
    71   32   31 1    
    72   93   31 1    
    73   33   32 1    
    74   35   32 1    
    75   94   32 1    
    76   34   33 2    
    77   43   33 am   
    78   36   35 1    
    79   95   35 1    
    80   96   35 1    
    81   37   36 ar   
    82   38   36 ar   
    83   39   37 ar   
    84   97   37 1    
    85   40   38 ar   
    86   98   38 1    
    87   41   39 ar   
    88   99   39 1    
    89   41   40 ar   
    90  100   40 1    
    91   42   41 1    
    92  116   42 1    
    93   44   43 1    
    94  101   43 1    
    95   45   44 1    
    96   53   44 1    
    97  102   44 1    
    98   47   45 1    
    99  103   45 1    
   100  104   45 1    
   101   47   46 1    
   102   48   46 1    
   103  105   46 1    
   104  106   46 1    
   105  107   47 1    
   106  108   47 1    
   107   49   48 1    
   108  109   48 1    
   109  110   48 1    
   110   50   49 ar   
   111  111   49 1    
   112   51   50 ar   
   113   52   50 ar   
   114  117   51 1    
   115  112   52 1    
   116  113   52 1    
   117   54   53 2    
   118   55   53 am   
   119  114   55 1    
   120  115   55 1    
@<TRIPOS>SUBSTRUCTURE
     1 GAH1001     1 GROUP   
@<TRIPOS>SET

