#    Name: 1cja_AMP_2_INTS_M
#    Modification time : Mon Mar 24 20:45:06 2014

@<TRIPOS>MOLECULE
1cja_AMP_2_INTS_M
   44     0    12     0     0
SMALL
NO_CHARGES


@<TRIPOS>ATOM
      1 NZ         53.2475   37.5325   17.1685 N.4       3 LYC4        0.0000 
      2 NZ         53.5100   39.0900   17.7920 N.4      11 LYL4        0.0000 
      3 NZ         52.9850   35.9750   16.5450 N.4       7 LYP4        0.0000 
      4 N          53.2475   37.5325   17.1685 N.am      2 SEC2        0.0000 
      5 N          53.5100   39.0900   17.7920 N.am     10 SEL2        0.0000 
      6 N          52.9850   35.9750   16.5450 N.am      6 SEP2        0.0000 
      7 N          55.6130   39.4845   20.8150 N.am      2 SEC2        0.0000 
      8 N          54.9920   39.5550   19.5270 N.am     10 SEL2        0.0000 
      9 N          56.2340   39.4140   22.1030 N.am      6 SEP2        0.0000 
     10 CA         55.6500   42.1620   20.2020 C.3       4 GLC5        0.0000 
     11 CA         55.3280   42.5140   18.3500 C.3      12 GLL5        0.0000 
     12 CA         55.9720   41.8100   22.0540 C.3       8 GLP5        0.0000 
     13 CA         52.0240   45.8270   16.1420 C.3       4 GLC5        0.0000 
     14 CA         53.7860   44.6200   15.7110 C.3      12 GLL5        0.0000 
     15 CA         50.2620   47.0340   16.5730 C.3       8 GLP5        0.0000 
     16 CA         54.2260   41.6465    8.7920 C.3       4 GLC5        0.0000 
     17 CA         53.4150   41.8760   10.8770 C.3      12 GLL5        0.0000 
     18 CA         55.0370   41.4170    6.7070 C.3       8 GLP5        0.0000 
     19 CA         52.1980   42.6750    9.5395 C.3       4 GLC5        0.0000 
     20 CA         50.9810   43.4740    8.2020 C.3       8 GLP5        0.0000 
     21 O          53.2205   40.1460    8.9920 O.2       1 ALC1        0.0000 
     22 O          52.8600   40.8990   10.1150 O.2       9 ALL1        0.0000 
     23 O          53.5810   39.3930    7.8690 O.2       5 ALP1        0.0000 
     24 N          53.5805   42.9535    8.8485 N.am      2 SEC2        0.0000 
     25 N          53.9170   43.0040   10.3190 N.am     10 SEL2        0.0000 
     26 N          53.2440   42.9030    7.3780 N.am      6 SEP2        0.0000 
     27 CA         55.4660   42.0395   10.8805 C.3       4 GLC5        0.0000 
     28 CA         54.4590   43.9600   11.0750 C.3      12 GLL5        0.0000 
     29 CA         56.4730   40.1190   10.6860 C.3       8 GLP5        0.0000 
     30 CA         55.7655   43.5815    9.6485 C.3       4 GLC5        0.0000 
     31 CA         57.0720   43.2030    8.2220 C.3       8 GLP5        0.0000 
     32 CA         52.5645   44.4470   11.6920 C.3       4 GLC5        0.0000 
     33 CA         50.6700   44.9340   12.3090 C.3       8 GLP5        0.0000 
     34 CA         56.5195   44.1995   19.0225 C.3       4 GLC5        0.0000 
     35 CA         55.2260   43.6740   17.3520 C.3      12 GLL5        0.0000 
     36 CA         57.7620   45.3050   20.1940 C.3       8 GLP5        0.0000 
     37 CA         53.3825   40.0475   11.5400 C.3       4 GLC5        0.0000 
     38 CA         53.3040   38.2610   11.5100 C.3       8 GLP5        0.0000 
     39 CA         55.1280   41.2370   11.4750 C.3       4 GLC5        0.0000 
     40 CA         53.5070   41.7920   12.2630 C.3      12 GLL5        0.0000 
     41 CA         52.2265   43.6445   12.2865 C.3       4 GLC5        0.0000 
     42 CA         51.9200   42.1690   12.7160 C.3       4 GLC5        0.0000 
     43 CA         54.1050   42.8760   12.9580 C.3      12 GLL5        0.0000 
     44 CA         50.0570   41.9830   13.1680 C.3       8 GLP5        0.0000 
@<TRIPOS>BOND
@<TRIPOS>SUBSTRUCTURE
     1 ALC1       21 GROUP        1 X    ALC  0     ROOT ALC X 1
     2 SEC2        4 GROUP        1 X    SEC  0     **** SEC X 2
     3 LYC4        1 GROUP        1 X    LYC  0     **** LYC X 4
     4 GLC5       10 GROUP        1 X    GLC  0     **** GLC X 6
     5 ALP1       23 GROUP        1 Y    ALP  0     ROOT ALP Y 8
     6 SEP2        6 GROUP        1 Y    SEP  0     **** SEP Y 9
     7 LYP4        3 GROUP        1 Y    LYP  0     **** LYP Y 11
     8 GLP5       12 GROUP        1 Y    GLP  0     **** GLP Y 13
     9 ALL1       22 GROUP        1 Z    ALL  0     ROOT ALL Z 15
    10 SEL2        5 GROUP        1 Z    SEL  0     **** SEL Z 16
    11 LYL4        2 GROUP        1 Z    LYL  0     **** LYL Z 18
    12 GLL5       11 GROUP        1 Z    GLL  0     **** GLL Z 20
@<TRIPOS>SET

