#    Name: 1cja_AMP_2_ligand
#    Modification time : Mon Mar 24 20:45:06 2014

@<TRIPOS>MOLECULE
1cja_AMP_2_ligand
   35    37     1     0     0
SMALL
NO_CHARGES


@<TRIPOS>ATOM
      1 P          53.8860   40.2550   18.6170 P.3       1 AMP525      0.0000 
      2 O1P        52.8090   41.0390   19.2590 O.co2     1 AMP525      0.0000 
      3 O2P        53.5100   39.0900   17.7920 O.co2     1 AMP525      0.0000 
      4 O3P        54.9920   39.5550   19.5270 O.co2     1 AMP525      0.0000 
      5 O5'        54.7280   41.2190   17.7870 O.3       1 AMP525      0.0000 
      6 C5'        55.3280   42.5140   18.3500 C.3       1 AMP525      0.0000 
      7 C4'        55.2260   43.6740   17.3520 C.3       1 AMP525      0.0000 
      8 O4'        55.6680   43.1720   16.0530 O.3       1 AMP525      0.0000 
      9 C3'        53.7390   44.1790   17.1050 C.3       1 AMP525      0.0000 
     10 O3'        53.2780   45.2860   17.8790 O.3       1 AMP525      0.0000 
     11 C2'        53.7860   44.6200   15.7110 C.3       1 AMP525      0.0000 
     12 O2'        54.6090   45.7630   15.4720 O.3       1 AMP525      0.0000 
     13 C1'        54.5250   43.3980   15.2690 C.3       1 AMP525      0.0000 
     14 N9         54.0640   42.5440   14.2430 N.pl3     1 AMP525      0.0000 
     15 C8         53.4730   41.3170   14.3560 C.2       1 AMP525      0.0000 
     16 N7         53.1300   40.8420   13.2010 N.2       1 AMP525      0.0000 
     17 C5         53.5070   41.7920   12.2630 C.ar      1 AMP525      0.0000 
     18 C6         53.4150   41.8760   10.8770 C.ar      1 AMP525      0.0000 
     19 N6         52.8600   40.8990   10.1150 N.pl3     1 AMP525      0.0000 
     20 N1         53.9170   43.0040   10.3190 N.ar      1 AMP525      0.0000 
     21 C2         54.4590   43.9600   11.0750 C.ar      1 AMP525      0.0000 
     22 N3         54.6070   44.0070   12.4000 N.ar      1 AMP525      0.0000 
     23 C4         54.1050   42.8760   12.9580 C.ar      1 AMP525      0.0000 
     24 H          56.3788   42.3440   18.5946 H         1 AMP525      0.0000 
     25 H          54.7993   42.7835   19.2669 H         1 AMP525      0.0000 
     26 H          55.8106   44.4909   17.6571 H         1 AMP525      0.0000 
     27 H          53.1050   43.3191   17.1606 H         1 AMP525      0.0000 
     28 H          52.8550   44.6091   15.2873 H         1 AMP525      0.0000 
     29 H          55.2799   44.1982   14.3621 H         1 AMP525      0.0000 
     30 H          53.3401   40.8750   15.2369 H         1 AMP525      0.0000 
     31 H          53.4692   40.4528    9.4594 H         1 AMP525      0.0000 
     32 H          51.8911   40.7119   10.2768 H         1 AMP525      0.0000 
     33 H          54.8422   44.8440   10.5219 H         1 AMP525      0.0000 
     34 H          53.4389   46.0884   17.3043 H         1 AMP525      0.0000 
     35 H          55.5225   45.3931   15.3025 H         1 AMP525      0.0000 
@<TRIPOS>BOND
     1    2    1 ar   
     2    3    1 ar   
     3    4    1 ar   
     4    5    1 1    
     5    6    5 1    
     6    7    6 1    
     7   24    6 1    
     8   25    6 1    
     9    8    7 1    
    10    9    7 1    
    11   26    7 1    
    12   13    8 1    
    13   10    9 1    
    14   11    9 1    
    15   27    9 1    
    16   34   10 1    
    17   12   11 1    
    18   13   11 1    
    19   28   11 1    
    20   35   12 1    
    21   14   13 1    
    22   29   13 1    
    23   15   14 1    
    24   23   14 1    
    25   16   15 2    
    26   30   15 1    
    27   17   16 1    
    28   18   17 ar   
    29   23   17 ar   
    30   19   18 1    
    31   20   18 ar   
    32   31   19 1    
    33   32   19 1    
    34   21   20 ar   
    35   22   21 ar   
    36   33   21 1    
    37   23   22 ar   
@<TRIPOS>SUBSTRUCTURE
     1 AMP525      1 GROUP   
@<TRIPOS>SET

