#    Name: 1gp5_DQH_1_INTS_M
#    Modification time : Tue Mar 25 03:22:42 2014

@<TRIPOS>MOLECULE
1gp5_DQH_1_INTS_M
   38     0     9     0     0
SMALL
NO_CHARGES


@<TRIPOS>ATOM
      1 CA         15.8935   32.8065   -0.0510 C.3       3 GLC5        0.0000 
      2 CA         16.7370   30.8970    0.7030 C.3       9 GLL5        0.0000 
      3 CA         15.0500   34.7160   -0.8050 C.3       6 GLP5        0.0000 
      4 CA         16.6905   28.4705    4.7165 C.3       3 GLC5        0.0000 
      5 CA         16.1520   26.8130    3.8280 C.3       9 GLL5        0.0000 
      6 CA         17.2290   30.1280    5.6050 C.3       6 GLP5        0.0000 
      7 CA         10.1065   27.5065    4.7555 C.3       3 GLC5        0.0000 
      8 CA         11.1120   26.4210    3.3500 C.3       9 GLL5        0.0000 
      9 CA          9.1010   28.5920    6.1610 C.3       6 GLP5        0.0000 
     10 O          11.1830   22.5995    4.6975 O.2       1 ALC1        0.0000 
     11 O          12.2670   22.9670    3.9910 O.2       7 ALL1        0.0000 
     12 O          10.0990   22.2320    5.4040 O.2       4 ALP1        0.0000 
     13 O          10.0075   23.2885    4.6195 O.2       1 ALC1        0.0000 
     14 O           9.9160   24.3450    3.8350 O.2       7 ALL1        0.0000 
     15 N          15.6605   25.1975    5.4325 N.am      2 SEC2        0.0000 
     16 N          16.3810   25.4520    4.1320 N.am      8 SEL2        0.0000 
     17 N          14.9400   24.9430    6.7330 N.am      5 SEP2        0.0000 
     18 O          15.3645   32.2460   -0.3525 O.2       1 ALC1        0.0000 
     19 O          16.5400   31.9900   -0.0820 O.2       7 ALL1        0.0000 
     20 O          14.1890   32.5020   -0.6230 O.2       4 ALP1        0.0000 
     21 N          20.4015   29.2525    0.4610 N.am      2 SEC2        0.0000 
     22 N          19.5920   28.9650    1.9160 N.am      8 SEL2        0.0000 
     23 N          21.2110   29.5400   -0.9940 N.am      5 SEP2        0.0000 
     24 CA         18.0072   29.9738   -0.7430 C.3       3 GLC5        0.0000 
     25 CA         18.0760   30.4740    0.9130 C.3       9 GLL5        0.0000 
     26 CA         18.6080   29.2620   -2.2940 C.3       6 GLP5        0.0000 
     27 CA         18.6332   32.2848    0.5930 C.3       3 GLC5        0.0000 
     28 CA         19.8600   33.8840    0.3780 C.3       6 GLP5        0.0000 
     29 CA         16.6921   32.0309    2.0522 C.3       3 GLC5        0.0000 
     30 CA         16.8570   33.6050    3.0640 C.3       6 GLP5        0.0000 
     31 CA         14.8797   27.1107    5.2797 C.3       3 GLC5        0.0000 
     32 CA         14.9330   27.0360    2.9310 C.3       9 GLL5        0.0000 
     33 CA         14.2170   27.2970    7.1800 C.3       6 GLP5        0.0000 
     34 CA         13.5983   27.0003    5.1803 C.3       3 GLC5        0.0000 
     35 CA         13.5930   26.3470    3.2140 C.3       9 GLL5        0.0000 
     36 CA         13.4573   25.2287    5.5347 C.3       3 GLC5        0.0000 
     37 CA         13.5340   24.9580    3.5010 C.3       9 GLL5        0.0000 
     38 CA         13.9970   25.8190    7.4640 C.3       6 GLP5        0.0000 
@<TRIPOS>BOND
@<TRIPOS>SUBSTRUCTURE
     1 ALC1       10 GROUP        1 X    ALC  0     ROOT ALC X 1
     2 SEC2       15 GROUP        1 X    SEC  0     **** SEC X 2
     3 GLC5        1 GROUP        1 X    GLC  0     **** GLC X 6
     4 ALP1       12 GROUP        1 Y    ALP  0     ROOT ALP Y 8
     5 SEP2       17 GROUP        1 Y    SEP  0     **** SEP Y 9
     6 GLP5        3 GROUP        1 Y    GLP  0     **** GLP Y 13
     7 ALL1       11 GROUP        1 Z    ALL  0     ROOT ALL Z 15
     8 SEL2       16 GROUP        1 Z    SEL  0     **** SEL Z 16
     9 GLL5        2 GROUP        1 Z    GLL  0     **** GLL Z 20
@<TRIPOS>SET

