#    Name: 1gp5_DQH_1_ligand
#    Modification time : Tue Mar 25 03:22:42 2014

@<TRIPOS>MOLECULE
1gp5_DQH_1_ligand
   33    35     1     0     0
SMALL
NO_CHARGES


@<TRIPOS>ATOM
      1 C1         18.0760   30.4740    0.9130 C.ar      1 DQH380      0.0000 
      2 C2         18.3130   29.3510    1.7230 C.ar      1 DQH380      0.0000 
      3 C3         17.2220   28.6250    2.3520 C.ar      1 DQH380      0.0000 
      4 C4         15.8710   29.1070    2.0810 C.ar      1 DQH380      0.0000 
      5 C5         15.6480   30.2280    1.2730 C.ar      1 DQH380      0.0000 
      6 C6         16.7370   30.8970    0.7030 C.ar      1 DQH380      0.0000 
      7 C9         17.4040   27.4550    3.2180 C.2       1 DQH380      0.0000 
      8 C10        16.1520   26.8130    3.8280 C.3       1 DQH380      0.0000 
      9 C11        14.9330   27.0360    2.9310 C.3       1 DQH380      0.0000 
     10 C14        13.5930   26.3470    3.2140 C.ar      1 DQH380      0.0000 
     11 C15        12.3660   27.0600    3.1470 C.ar      1 DQH380      0.0000 
     12 C16        11.1120   26.4210    3.3500 C.ar      1 DQH380      0.0000 
     13 C17        11.0870   25.0450    3.6310 C.ar      1 DQH380      0.0000 
     14 C18        12.3010   24.3190    3.7100 C.ar      1 DQH380      0.0000 
     15 C19        13.5340   24.9580    3.5010 C.ar      1 DQH380      0.0000 
     16 O12        14.7560   28.4670    2.6150 O.3       1 DQH380      0.0000 
     17 O13        18.5460   26.9830    3.4790 O.2       1 DQH380      0.0000 
     18 O23        12.2670   22.9670    3.9910 O.3       1 DQH380      0.0000 
     19 O24         9.9160   24.3450    3.8350 O.3       1 DQH380      0.0000 
     20 O27        16.3810   25.4520    4.1320 O.3       1 DQH380      0.0000 
     21 O29        16.5400   31.9900   -0.0820 O.3       1 DQH380      0.0000 
     22 O30        19.5920   28.9650    1.9160 O.co2     1 DQH380      0.0000 
     23 H          18.8423   30.9779    0.4831 H         1 DQH380      0.0000 
     24 H          14.6951   30.5560    1.1003 H         1 DQH380      0.0000 
     25 H          15.9539   27.3809    4.7698 H         1 DQH380      0.0000 
     26 H          15.2668   26.5805    1.8889 H         1 DQH380      0.0000 
     27 H          12.3848   28.0720    2.9450 H         1 DQH380      0.0000 
     28 H          10.2539   26.9570    3.2912 H         1 DQH380      0.0000 
     29 H          14.4068   24.4200    3.5550 H         1 DQH380      0.0000 
     30 H          11.3951   22.8219    4.4588 H         1 DQH380      0.0000 
     31 H          10.2059   23.4454    4.1615 H         1 DQH380      0.0000 
     32 H          17.3549   25.3964    4.3519 H         1 DQH380      0.0000 
     33 H          15.6265   32.3190    0.1571 H         1 DQH380      0.0000 
@<TRIPOS>BOND
     1    2    1 ar   
     2    6    1 ar   
     3   23    1 1    
     4    3    2 ar   
     5   22    2 ar   
     6    4    3 ar   
     7    7    3 1    
     8    5    4 ar   
     9   16    4 1    
    10    6    5 ar   
    11   24    5 1    
    12   21    6 1    
    13    8    7 1    
    14   17    7 2    
    15    9    8 1    
    16   20    8 1    
    17   25    8 1    
    18   10    9 1    
    19   16    9 1    
    20   26    9 1    
    21   11   10 ar   
    22   15   10 ar   
    23   12   11 ar   
    24   27   11 1    
    25   13   12 ar   
    26   28   12 1    
    27   14   13 ar   
    28   19   13 1    
    29   15   14 ar   
    30   18   14 1    
    31   29   15 1    
    32   30   18 1    
    33   31   19 1    
    34   32   20 1    
    35   33   21 1    
@<TRIPOS>SUBSTRUCTURE
     1 DQH380      1 GROUP   
@<TRIPOS>SET

