#    Name: 3ntg_D72_4_INTS_M
#    Modification time : Tue Mar 25 02:34:15 2014

@<TRIPOS>MOLECULE
3ntg_D72_4_INTS_M
   82     0     9     0     0
SMALL
NO_CHARGES


@<TRIPOS>ATOM
      1 CA         60.0045   47.9830   77.3910 C.3       3 GLC5        0.0000 
      2 CA         58.7970   47.6130   78.8910 C.3       9 GLL5        0.0000 
      3 CA         61.2120   48.3530   75.8910 C.3       6 GLP5        0.0000 
      4 CA         61.7555   41.9015   77.7115 C.3       3 GLC5        0.0000 
      5 CA         61.5050   43.7520   76.9110 C.3       9 GLL5        0.0000 
      6 CA         62.0060   40.0510   78.5120 C.3       6 GLP5        0.0000 
      7 CA         62.9645   43.3625   75.5355 C.3       3 GLC5        0.0000 
      8 CA         64.4240   42.9730   74.1600 C.3       6 GLP5        0.0000 
      9 CA         62.3610   45.3805   76.0865 C.3       3 GLC5        0.0000 
     10 CA         63.2170   47.0090   75.2620 C.3       6 GLP5        0.0000 
     11 NZ         56.7590   50.7170   79.0290 N.4       2 LYC4        0.0000 
     12 NZ         56.4430   49.8520   80.1630 N.4       8 LYL4        0.0000 
     13 NZ         56.8400   51.4210   76.6030 N.4       5 LYP4        0.0000 
     14 N          56.7590   50.7170   79.0290 N.am      1 SEC2        0.0000 
     15 N          56.4430   49.8520   80.1630 N.am      7 SEL2        0.0000 
     16 N          57.0750   51.5820   77.8950 N.am      4 SEP2        0.0000 
     17 NZ         57.7565   50.7505   78.1715 N.4       2 LYC4        0.0000 
     18 NZ         58.6730   50.0800   79.7400 N.4       8 LYL4        0.0000 
     19 N          59.8820   49.7305   80.1180 N.am      1 SEC2        0.0000 
     20 N          58.6730   50.0800   79.7400 N.am      7 SEL2        0.0000 
     21 N          61.0910   49.3810   80.4960 N.am      4 SEP2        0.0000 
     22 CA         57.1645   44.5695   74.7645 C.3       3 GLC5        0.0000 
     23 CA         58.2300   42.7400   75.1470 C.3       9 GLL5        0.0000 
     24 CA         56.0990   46.3990   74.3820 C.3       6 GLP5        0.0000 
     25 CA         56.1925   42.5465   74.6055 C.3       3 GLC5        0.0000 
     26 CA         54.1550   42.3530   74.0640 C.3       6 GLP5        0.0000 
     27 CA         60.8240   41.0770   72.6710 C.3       3 GLC5        0.0000 
     28 CA         60.1600   42.3930   73.7270 C.3       9 GLL5        0.0000 
     29 CA         61.4880   39.7610   71.6150 C.3       6 GLP5        0.0000 
     30 CA         61.9595   42.0840   73.8955 C.3       3 GLC5        0.0000 
     31 CA         63.7590   41.7750   74.0640 C.3       6 GLP5        0.0000 
     32 CA         56.5920   41.6770   71.3915 C.3       3 GLC5        0.0000 
     33 CA         58.0030   41.6620   72.9320 C.3       9 GLL5        0.0000 
     34 CA         55.1810   41.6920   69.8510 C.3       6 GLP5        0.0000 
     35 CA         57.5110   40.1790   71.9140 C.3       3 GLC5        0.0000 
     36 CA         57.0190   38.6960   70.8960 C.3       6 GLP5        0.0000 
     37 CA         57.8440   43.5005   72.0135 C.3       3 GLC5        0.0000 
     38 CA         57.6850   45.3390   71.0950 C.3       6 GLP5        0.0000 
     39 CA         56.0790   42.0075   73.4980 C.3       3 GLC5        0.0000 
     40 CA         55.1950   48.8280   82.5960 C.3       3 GLC5        0.0000 
     41 CA         56.2960   47.2130   81.8650 C.3       9 GLL5        0.0000 
     42 CA         54.0940   50.4430   83.3270 C.3       6 GLP5        0.0000 
     43 CA         56.0785   46.3330   83.3265 C.3       3 GLC5        0.0000 
     44 CA         55.8610   45.4530   84.7880 C.3       6 GLP5        0.0000 
     45 CA         59.3300   44.9805   81.3030 C.3       3 GLC5        0.0000 
     46 CA         57.4240   45.5640   81.0900 C.3       9 GLL5        0.0000 
     47 CA         61.2360   44.3970   81.5160 C.3       6 GLP5        0.0000 
     48 CA         56.6520   42.9495   78.5930 C.3       3 GLC5        0.0000 
     49 CA         56.0870   43.6980   77.0450 C.3       9 GLL5        0.0000 
     50 CA         57.2170   42.2010   80.1410 C.3       6 GLP5        0.0000 
     51 CA         56.0930   45.0485   75.7135 C.3       3 GLC5        0.0000 
     52 CA         55.1210   43.0255   75.5545 C.3       3 GLC5        0.0000 
     53 CA         54.2725   44.4610   77.2985 C.3       3 GLC5        0.0000 
     54 CA         52.4580   45.2240   77.5520 C.3       6 GLP5        0.0000 
     55 CA         60.3377   45.2022   79.8213 C.3       3 GLC5        0.0000 
     56 CA         58.8430   46.2990   78.3030 C.3       9 GLL5        0.0000 
     57 CA         57.4458   45.7685   76.3127 C.3       3 GLC5        0.0000 
     58 CA         57.6190   44.4440   77.3870 C.3       9 GLL5        0.0000 
     59 CA         56.6730   47.3900   75.4110 C.3       6 GLP5        0.0000 
     60 CA         57.4600   46.6863   76.7850 C.3       3 GLC5        0.0000 
     61 CA         57.6510   45.6660   78.0150 C.3       9 GLL5        0.0000 
     62 CA         61.6227   43.9973   78.9725 C.3       3 GLC5        0.0000 
     63 CA         60.0100   44.4810   77.3370 C.3       9 GLL5        0.0000 
     64 CA         62.4880   43.8780   80.8210 C.3       6 GLP5        0.0000 
     65 CA         60.4684   46.7986   76.8114 C.3       3 GLC5        0.0000 
     66 CA         57.5759   43.5538   78.8779 C.3       3 GLC5        0.0000 
     67 CA         59.0990   47.9928   80.6998 C.3       3 GLC5        0.0000 
     68 CA         59.9860   48.1820   82.2570 C.3       6 GLP5        0.0000 
     69 CA         57.0025   47.4189   77.3591 C.3       3 GLC5        0.0000 
     70 CA         60.4342   40.6085   75.1298 C.3       3 GLC5        0.0000 
     71 CA         58.8550   41.7830   74.1640 C.3       9 GLL5        0.0000 
     72 CA         61.3610   39.1290   76.3140 C.3       6 GLP5        0.0000 
     73 CA         59.7875   40.3537   73.1175 C.3       3 GLC5        0.0000 
     74 CA         61.1460   38.9850   72.6870 C.3       6 GLP5        0.0000 
     75 CA         58.4312   47.1788   81.7360 C.3       3 GLC5        0.0000 
     76 CA         56.6367   43.9986   80.5306 C.3       3 GLC5        0.0000 
     77 CA         56.3620   46.3610   80.8150 C.3       9 GLL5        0.0000 
     78 CA         56.3312   44.6081   82.2366 C.3       3 GLC5        0.0000 
     79 CA         56.6060   43.4200   83.5530 C.3       6 GLP5        0.0000 
     80 CA         54.3748   46.3666   79.3229 C.3       3 GLC5        0.0000 
     81 CA         55.2200   45.6300   80.8880 C.3       9 GLL5        0.0000 
     82 CA         52.9360   46.5550   78.1300 C.3       6 GLP5        0.0000 
@<TRIPOS>BOND
@<TRIPOS>SUBSTRUCTURE
     1 SEC2       14 GROUP        1 X    SEC  0     ROOT SEC X 2
     2 LYC4       11 GROUP        1 X    LYC  0     **** LYC X 4
     3 GLC5        1 GROUP        1 X    GLC  0     **** GLC X 6
     4 SEP2       16 GROUP        1 Y    SEP  0     ROOT SEP Y 9
     5 LYP4       13 GROUP        1 Y    LYP  0     **** LYP Y 11
     6 GLP5        3 GROUP        1 Y    GLP  0     **** GLP Y 13
     7 SEL2       15 GROUP        1 Z    SEL  0     ROOT SEL Z 16
     8 LYL4       12 GROUP        1 Z    LYL  0     **** LYL Z 18
     9 GLL5        2 GROUP        1 Z    GLL  0     **** GLL Z 20
@<TRIPOS>SET

