#    Name: 3ntg_D72_4_ligand
#    Modification time : Tue Mar 25 02:34:15 2014

@<TRIPOS>MOLECULE
3ntg_D72_4_ligand
   36    37     1     0     0
SMALL
NO_CHARGES


@<TRIPOS>ATOM
      1 C1         60.0360   45.7160   77.9500 C.ar      1 D72701      0.0000 
      2 C2         57.6190   44.4440   77.3870 C.ar      1 D72701      0.0000 
      3 C3         58.8430   46.2990   78.3030 C.ar      1 D72701      0.0000 
      4 C4         60.0100   44.4810   77.3370 C.ar      1 D72701      0.0000 
      5 C5         58.8180   43.8500   77.0420 C.ar      1 D72701      0.0000 
      6 C6         57.6510   45.6660   78.0150 C.ar      1 D72701      0.0000 
      7 C7         58.7970   47.6130   78.8910 C.2       1 D72701      0.0000 
      8 CL8        61.5050   43.7520   76.9110 Cl        1 D72701      0.0000 
      9 O9         58.8520   42.6110   76.4250 O.3       1 D72701      0.0000 
     10 O10        56.4270   46.2090   78.3280 O.3       1 D72701      0.0000 
     11 C11        57.6270   47.9940   79.3940 C.2       1 D72701      0.0000 
     12 C12        57.5930   49.4310   79.8390 C.2       1 D72701      0.0000 
     13 C13        56.4520   47.0920   79.4720 C.3       1 D72701      0.0000 
     14 C14        56.3620   46.3610   80.8150 C.3       1 D72701      0.0000 
     15 O15        56.4430   49.8520   80.1630 O.co2     1 D72701      0.0000 
     16 O16        58.6730   50.0800   79.7400 O.co2     1 D72701      0.0000 
     17 C17        58.2300   42.7400   75.1470 C.3       1 D72701      0.0000 
     18 C18        58.8550   41.7830   74.1640 C.3       1 D72701      0.0000 
     19 C19        60.1600   42.3930   73.7270 C.3       1 D72701      0.0000 
     20 C20        58.0030   41.6620   72.9320 C.3       1 D72701      0.0000 
     21 F21        56.2960   47.2130   81.8650 F         1 D72701      0.0000 
     22 F22        57.4240   45.5640   81.0900 F         1 D72701      0.0000 
     23 F23        55.2200   45.6300   80.8880 F         1 D72701      0.0000 
     24 CL24       56.0870   43.6980   77.0450 Cl        1 D72701      0.0000 
     25 H          60.9252   46.1858   78.1368 H         1 D72701      0.0000 
     26 H          59.6345   48.1710   78.8943 H         1 D72701      0.0000 
     27 H          55.5407   47.7514   79.4177 H         1 D72701      0.0000 
     28 H          58.3377   43.7600   74.7489 H         1 D72701      0.0000 
     29 H          57.1528   42.5222   75.2006 H         1 D72701      0.0000 
     30 H          59.0232   40.8495   74.6011 H         1 D72701      0.0000 
     31 H          60.7801   42.5355   74.4985 H         1 D72701      0.0000 
     32 H          60.6394   41.8124   73.0689 H         1 D72701      0.0000 
     33 H          60.0263   43.2826   73.2902 H         1 D72701      0.0000 
     34 H          57.8916   42.5417   72.4696 H         1 D72701      0.0000 
     35 H          58.3996   41.0294   72.2668 H         1 D72701      0.0000 
     36 H          57.0861   41.3252   73.1462 H         1 D72701      0.0000 
@<TRIPOS>BOND
     1    3    1 ar   
     2    4    1 ar   
     3   25    1 1    
     4    5    2 ar   
     5    6    2 ar   
     6   24    2 1    
     7    6    3 ar   
     8    7    3 1    
     9    5    4 ar   
    10    8    4 1    
    11    9    5 1    
    12   10    6 1    
    13   11    7 2    
    14   26    7 1    
    15   17    9 1    
    16   13   10 1    
    17   12   11 1    
    18   13   11 1    
    19   15   12 ar   
    20   16   12 ar   
    21   14   13 1    
    22   27   13 1    
    23   21   14 1    
    24   22   14 1    
    25   23   14 1    
    26   18   17 1    
    27   28   17 1    
    28   29   17 1    
    29   19   18 1    
    30   20   18 1    
    31   30   18 1    
    32   31   19 1    
    33   32   19 1    
    34   33   19 1    
    35   34   20 1    
    36   35   20 1    
    37   36   20 1    
@<TRIPOS>SUBSTRUCTURE
     1 D72701      1 GROUP   
@<TRIPOS>SET

