#    Name: 2qzl_IXS_1_INTS_M
#    Modification time : Mon Mar 24 22:59:00 2014

@<TRIPOS>MOLECULE
2qzl_IXS_1_INTS_M
  114     0     9     0     0
SMALL
NO_CHARGES


@<TRIPOS>ATOM
      1 N          26.2585   45.5035    3.9135 N.am      2 SEC2        0.0000 
      2 N          26.6530   45.2250    2.4670 N.am      8 SEL2        0.0000 
      3 N          25.8640   45.7820    5.3600 N.am      5 SEP2        0.0000 
      4 CA         26.1135   41.2100   -1.2490 C.3       3 GLC5        0.0000 
      5 CA         26.2110   43.0260   -0.5700 C.3       9 GLL5        0.0000 
      6 CA         26.0160   39.3940   -1.9280 C.3       6 GLP5        0.0000 
      7 CA         24.7935   42.4160    0.7400 C.3       3 GLC5        0.0000 
      8 CA         23.3760   41.8060    2.0500 C.3       6 GLP5        0.0000 
      9 CA         28.8360   45.6590    2.9920 C.3       3 GLC5        0.0000 
     10 CA         29.1470   44.2500    1.3000 C.3       9 GLL5        0.0000 
     11 CA         28.5250   47.0680    4.6840 C.3       6 GLP5        0.0000 
     12 N          31.9285   45.3110    0.1795 N.am      2 SEC2        0.0000 
     13 N          31.6230   45.8520    1.5700 N.am      8 SEL2        0.0000 
     14 N          32.2340   44.7700   -1.2110 N.am      5 SEP2        0.0000 
     15 O          31.8625   43.0890    3.8450 O.2       1 ALC1        0.0000 
     16 O          32.2110   44.3900    3.1900 O.2       7 ALL1        0.0000 
     17 O          31.5140   41.7880    4.5000 O.2       4 ALP1        0.0000 
     18 CA         35.7950   43.7580    5.3145 C.3       3 GLC5        0.0000 
     19 CA         34.5580   44.4320    3.8770 C.3       9 GLL5        0.0000 
     20 CA         37.0320   43.0840    6.7520 C.3       6 GLP5        0.0000 
     21 CA         36.4175   44.1565    3.1875 C.3       3 GLC5        0.0000 
     22 CA         38.2770   43.8810    2.4980 C.3       6 GLP5        0.0000 
     23 CA         32.2225   42.6000    6.3055 C.3       3 GLC5        0.0000 
     24 CA         32.4640   44.7360    6.1820 C.3       9 GLL5        0.0000 
     25 CA         31.9810   40.4640    6.4290 C.3       6 GLP5        0.0000 
     26 CA         30.6385   47.0450    5.0750 C.3       3 GLC5        0.0000 
     27 CA         32.7520   47.0220    5.4660 C.3       9 GLL5        0.0000 
     28 CA         30.4940   47.9540    6.0440 C.3       3 GLC5        0.0000 
     29 CA         32.3590   47.4720    6.7280 C.3       9 GLL5        0.0000 
     30 CA         28.6290   48.4360    5.3600 C.3       6 GLP5        0.0000 
     31 CA         32.3415   47.0755   10.3620 C.3       3 GLC5        0.0000 
     32 CA         31.6340   46.9780    8.9320 C.3       9 GLL5        0.0000 
     33 CA         33.0490   47.1730   11.7920 C.3       6 GLP5        0.0000 
     34 CA         27.7720   40.1820   -0.2675 C.3       3 GLC5        0.0000 
     35 CA         28.4620   41.9590    0.9160 C.3       9 GLL5        0.0000 
     36 CA         27.0820   38.4050   -1.4510 C.3       6 GLP5        0.0000 
     37 N          29.7075   39.5040   -1.1010 N.am      2 SEC2        0.0000 
     38 N          29.6430   39.2960    0.4740 N.am      8 SEL2        0.0000 
     39 N          29.7720   39.7120   -2.6760 N.am      5 SEP2        0.0000 
     40 O          31.1615   40.7045    3.4225 O.2       1 ALC1        0.0000 
     41 O          30.8090   39.6210    2.3450 O.2       7 ALL1        0.0000 
     42 CA         32.4735   39.4800    4.5745 C.3       3 GLC5        0.0000 
     43 CA         32.9660   38.4960    2.7200 C.3       9 GLL5        0.0000 
     44 CA         32.7560   38.3755   -0.3840 C.3       3 GLC5        0.0000 
     45 CA         33.4940   39.8480    0.6160 C.3       9 GLL5        0.0000 
     46 CA         32.0180   36.9030   -1.3840 C.3       6 GLP5        0.0000 
     47 CA         30.4610   36.1080    4.9955 C.3       3 GLC5        0.0000 
     48 CA         30.8160   37.4040    3.2960 C.3       9 GLL5        0.0000 
     49 CA         30.1060   34.8120    6.6950 C.3       6 GLP5        0.0000 
     50 CA         29.5180   35.3260    4.7500 C.3       3 GLC5        0.0000 
     51 CA         28.9300   35.8400    2.8050 C.3       9 GLL5        0.0000 
     52 CA         26.2950   35.3725    4.1745 C.3       3 GLC5        0.0000 
     53 CA         27.4130   35.8410    2.6540 C.3       9 GLL5        0.0000 
     54 CA         25.1770   34.9040    5.6950 C.3       6 GLP5        0.0000 
     55 N          29.3905   36.4260   -0.7680 N.am      2 SEC2        0.0000 
     56 N          29.6580   35.7180    0.5620 N.am      8 SEL2        0.0000 
     57 N          29.1230   37.1340   -2.0980 N.am      5 SEP2        0.0000 
     58 O          30.0815   33.6515    3.2775 O.2       1 ALC1        0.0000 
     59 O          30.0330   33.8960    1.8120 O.2       7 ALL1        0.0000 
     60 O          30.1300   33.4070    4.7430 O.2       4 ALP1        0.0000 
     61 CA         31.5755   31.6795    3.5390 C.3       3 GLC5        0.0000 
     62 CA         30.4680   30.9060    1.9350 C.3       9 GLL5        0.0000 
     63 CA         32.6830   32.4530    5.1430 C.3       6 GLP5        0.0000 
     64 CA         30.1045   30.1290    3.6400 C.3       3 GLC5        0.0000 
     65 CA         29.7410   29.3520    5.3450 C.3       6 GLP5        0.0000 
     66 CA         28.5610   30.9845    2.5455 C.3       3 GLC5        0.0000 
     67 CA         26.6540   31.0630    3.1560 C.3       6 GLP5        0.0000 
     68 CA         33.5055   31.6720   -0.7465 C.3       3 GLC5        0.0000 
     69 CA         31.7490   31.0980   -0.2040 C.3       9 GLL5        0.0000 
     70 CA         35.2620   32.2460   -1.2890 C.3       6 GLP5        0.0000 
     71 CA         29.5747   42.9013   -0.6142 C.3       3 GLC5        0.0000 
     72 CA         28.1620   43.3310    0.9110 C.3       9 GLL5        0.0000 
     73 CA         30.4950   42.0120   -2.3340 C.3       6 GLP5        0.0000 
     74 CA         27.3680   42.4415    2.6132 C.3       3 GLC5        0.0000 
     75 CA         26.4240   42.2380    4.3130 C.3       6 GLP5        0.0000 
     76 CA         29.3055   43.1277    3.3225 C.3       3 GLC5        0.0000 
     77 CA         28.8320   42.2250    5.1470 C.3       6 GLP5        0.0000 
     78 CA         30.5237   42.5693   -0.3198 C.3       3 GLC5        0.0000 
     79 CA         30.4110   43.8110    1.6960 C.3       9 GLL5        0.0000 
     80 CA         34.8608   45.6080    5.5793 C.3       3 GLC5        0.0000 
     81 CA         33.2370   45.2040    3.8300 C.3       9 GLL5        0.0000 
     82 CA         35.8240   46.3980    7.3050 C.3       6 GLP5        0.0000 
     83 CA         34.8407   45.6075    2.3898 C.3       3 GLC5        0.0000 
     84 CA         35.7840   46.3970    0.9260 C.3       6 GLP5        0.0000 
     85 CA         34.2302   45.7957    6.4942 C.3       3 GLC5        0.0000 
     86 CA         32.8090   45.6510    5.1850 C.3       9 GLL5        0.0000 
     87 CA         33.9315   46.1333    7.4413 C.3       3 GLC5        0.0000 
     88 CA         32.0650   45.1850    7.4430 C.3       9 GLL5        0.0000 
     89 CA         34.0977   48.3690    5.5955 C.3       3 GLC5        0.0000 
     90 CA         35.6400   49.4910    5.0940 C.3       6 GLP5        0.0000 
     91 CA         34.1897   46.8225    6.7010 C.3       3 GLC5        0.0000 
     92 CA         30.1964   45.8571    6.4936 C.3       3 GLC5        0.0000 
     93 CA         32.0130   46.5520    7.7120 C.3       9 GLL5        0.0000 
     94 CA         28.2540   45.9580    5.7250 C.3       6 GLP5        0.0000 
     95 CA         30.3663   46.2711    9.0309 C.3       3 GLC5        0.0000 
     96 CA         28.8960   46.1190    9.8070 C.3       6 GLP5        0.0000 
     97 CA         29.7942   41.8743   -0.6108 C.3       3 GLC5        0.0000 
     98 CA         29.7250   41.5140    1.3090 C.3       9 GLL5        0.0000 
     99 CA         29.5207   42.1015    3.3240 C.3       3 GLC5        0.0000 
    100 CA         35.6822   41.0068    3.8440 C.3       3 GLC5        0.0000 
    101 CA         34.6450   40.3650    2.6640 C.3       9 GLL5        0.0000 
    102 CA         36.3670   41.1360    5.3490 C.3       6 GLP5        0.0000 
    103 CA         35.2981   38.5463    3.0948 C.3       3 GLC5        0.0000 
    104 CA         36.6040   37.3880    3.6840 C.3       6 GLP5        0.0000 
    105 CA         32.4075   36.8205    1.6910 C.3       3 GLC5        0.0000 
    106 CA         31.4980   38.3480    2.3120 C.3       9 GLL5        0.0000 
    107 CA         33.2910   35.7280    0.4760 C.3       6 GLP5        0.0000 
    108 CA         27.6808   33.8803    3.4127 C.3       3 GLC5        0.0000 
    109 CA         27.1900   31.9200    4.0960 C.3       6 GLP5        0.0000 
    110 CA         32.1790   32.8233    2.4497 C.3       3 GLC5        0.0000 
    111 CA         30.5110   33.1110    0.6710 C.3       9 GLL5        0.0000 
    112 CA         33.4640   33.1710    4.0430 C.3       6 GLP5        0.0000 
    113 CA         32.0925   34.1017    0.6663 C.3       3 GLC5        0.0000 
    114 CA         31.2770   31.8400    1.0420 C.3       9 GLL5        0.0000 
@<TRIPOS>BOND
@<TRIPOS>SUBSTRUCTURE
     1 ALC1       15 GROUP        1 X    ALC  0     ROOT ALC X 1
     2 SEC2        1 GROUP        1 X    SEC  0     **** SEC X 2
     3 GLC5        4 GROUP        1 X    GLC  0     **** GLC X 6
     4 ALP1       17 GROUP        1 Y    ALP  0     ROOT ALP Y 8
     5 SEP2        3 GROUP        1 Y    SEP  0     **** SEP Y 9
     6 GLP5        6 GROUP        1 Y    GLP  0     **** GLP Y 13
     7 ALL1       16 GROUP        1 Z    ALL  0     ROOT ALL Z 15
     8 SEL2        2 GROUP        1 Z    SEL  0     **** SEL Z 16
     9 GLL5        5 GROUP        1 Z    GLL  0     **** GLL Z 20
@<TRIPOS>SET

