#    Name: 2qzl_IXS_1_ligand
#    Modification time : Mon Mar 24 22:59:00 2014

@<TRIPOS>MOLECULE
2qzl_IXS_1_ligand
   89    91     1     0     0
SMALL
NO_CHARGES


@<TRIPOS>ATOM
      1 O2         26.6530   45.2250    2.4670 O.2       1 IXS449      0.0000 
      2 S1         26.1400   44.9570    1.1600 S.o2      1 IXS449      0.0000 
      3 O1         24.7310   44.7160    1.1860 O.2       1 IXS449      0.0000 
      4 C22        26.4340   46.3350    0.2570 C.3       1 IXS449      0.0000 
      5 N24        26.8700   43.7580    0.5120 N.pl3     1 IXS449      0.0000 
      6 C29        26.2110   43.0260   -0.5700 C.3       1 IXS449      0.0000 
      7 C19        28.1620   43.3310    0.9110 C.ar      1 IXS449      0.0000 
      8 C20        29.1470   44.2500    1.3000 C.ar      1 IXS449      0.0000 
      9 C15        30.4110   43.8110    1.6960 C.ar      1 IXS449      0.0000 
     10 C14        31.4740   44.7740    2.1410 C.2       1 IXS449      0.0000 
     11 O5         31.6230   45.8520    1.5700 O.2       1 IXS449      0.0000 
     12 N13        32.2110   44.3900    3.1900 N.am      1 IXS449      0.0000 
     13 C12        33.2370   45.2040    3.8300 C.3       1 IXS449      0.0000 
     14 C50        34.5580   44.4320    3.8770 C.3       1 IXS449      0.0000 
     15 C5         32.8090   45.6510    5.1850 C.ar      1 IXS449      0.0000 
     16 C6         32.4640   44.7360    6.1820 C.ar      1 IXS449      0.0000 
     17 C7         32.0650   45.1850    7.4430 C.ar      1 IXS449      0.0000 
     18 C4         32.7520   47.0220    5.4660 C.ar      1 IXS449      0.0000 
     19 C3         32.3590   47.4720    6.7280 C.ar      1 IXS449      0.0000 
     20 C2         32.0130   46.5520    7.7120 C.ar      1 IXS449      0.0000 
     21 F1         31.6340   46.9780    8.9320 F         1 IXS449      0.0000 
     22 C18        28.4620   41.9590    0.9160 C.ar      1 IXS449      0.0000 
     23 C17        29.7250   41.5140    1.3090 C.ar      1 IXS449      0.0000 
     24 C16        30.6940   42.4420    1.6930 C.ar      1 IXS449      0.0000 
     25 C34        30.0580   40.0520    1.3360 C.2       1 IXS449      0.0000 
     26 O4         29.6430   39.2960    0.4740 O.2       1 IXS449      0.0000 
     27 N35        30.8090   39.6210    2.3450 N.am      1 IXS449      0.0000 
     28 C36        31.4980   38.3480    2.3120 C.3       1 IXS449      0.0000 
     29 C56        32.9660   38.4960    2.7200 C.3       1 IXS449      0.0000 
     30 C58        33.7130   39.5920    1.9740 C.ar      1 IXS449      0.0000 
     31 C65        33.4940   39.8480    0.6160 C.ar      1 IXS449      0.0000 
     32 C64        34.1970   40.8670   -0.0380 C.ar      1 IXS449      0.0000 
     33 C63        35.1280   41.6340    0.6590 C.ar      1 IXS449      0.0000 
     34 C62        35.3500   41.3900    2.0140 C.ar      1 IXS449      0.0000 
     35 C61        34.6450   40.3650    2.6640 C.ar      1 IXS449      0.0000 
     36 C37        30.8160   37.4040    3.2960 C.3       1 IXS449      0.0000 
     37 N38        29.4180   37.2110    2.9330 N.4       1 IXS449      0.0000 
     38 C39        28.9300   35.8400    2.8050 C.3       1 IXS449      0.0000 
     39 C8         27.4130   35.8410    2.6540 C.3       1 IXS449      0.0000 
     40 C1         29.5730   35.1370    1.6370 C.2       1 IXS449      0.0000 
     41 O3         29.6580   35.7180    0.5620 O.2       1 IXS449      0.0000 
     42 N9         30.0330   33.8960    1.8120 N.am      1 IXS449      0.0000 
     43 C10        30.5110   33.1110    0.6710 C.3       1 IXS449      0.0000 
     44 C51        31.2770   31.8400    1.0420 C.3       1 IXS449      0.0000 
     45 C52        30.4680   30.9060    1.9350 C.3       1 IXS449      0.0000 
     46 C53        31.7490   31.0980   -0.2040 C.3       1 IXS449      0.0000 
     47 H          28.9328   45.2571    1.2924 H         1 IXS449      0.0000 
     48 H          32.0741   43.4301    3.6224 H         1 IXS449      0.0000 
     49 H          33.4160   46.0990    3.2110 H         1 IXS449      0.0000 
     50 H          32.5039   43.7271    5.9870 H         1 IXS449      0.0000 
     51 H          31.8102   44.5075    8.1711 H         1 IXS449      0.0000 
     52 H          33.0023   47.7020    4.7347 H         1 IXS449      0.0000 
     53 H          32.3264   48.4777    6.9262 H         1 IXS449      0.0000 
     54 H          27.7445   41.2817    0.6279 H         1 IXS449      0.0000 
     55 H          31.6299   42.1151    1.9780 H         1 IXS449      0.0000 
     56 H          30.9383   40.1862    3.2173 H         1 IXS449      0.0000 
     57 H          31.4545   37.9034    1.3380 H         1 IXS449      0.0000 
     58 H          33.4787   37.5328    2.5542 H         1 IXS449      0.0000 
     59 H          33.0137   38.7001    3.8036 H         1 IXS449      0.0000 
     60 H          32.8109   39.2831    0.0934 H         1 IXS449      0.0000 
     61 H          34.0236   41.0472   -1.0346 H         1 IXS449      0.0000 
     62 H          35.6484   42.3753    0.1782 H         1 IXS449      0.0000 
     63 H          36.0252   41.9553    2.5373 H         1 IXS449      0.0000 
     64 H          34.8219   40.1853    3.6638 H         1 IXS449      0.0000 
     65 H          30.9041   37.8335    4.3004 H         1 IXS449      0.0000 
     66 H          31.3576   36.4513    3.2887 H         1 IXS449      0.0000 
     67 H          29.1667   35.2811    3.7130 H         1 IXS449      0.0000 
     68 H          30.0757   33.4357    2.7332 H         1 IXS449      0.0000 
     69 H          31.1740   33.7308    0.0267 H         1 IXS449      0.0000 
     70 H          29.6571   32.8150    0.0213 H         1 IXS449      0.0000 
     71 H          32.1763   32.1413    1.6022 H         1 IXS449      0.0000 
     72 H          27.4103   46.5459    0.2084 H         1 IXS449      0.0000 
     73 H          26.1076   46.2394   -0.6834 H         1 IXS449      0.0000 
     74 H          25.9798   47.1371    0.6448 H         1 IXS449      0.0000 
     75 H          26.7755   42.2720   -0.9059 H         1 IXS449      0.0000 
     76 H          25.3405   42.6318   -0.2753 H         1 IXS449      0.0000 
     77 H          26.0152   43.6168   -1.3527 H         1 IXS449      0.0000 
     78 H          34.8785   44.1883    2.9616 H         1 IXS449      0.0000 
     79 H          35.2848   44.9655    4.3096 H         1 IXS449      0.0000 
     80 H          34.4722   43.5803    4.3940 H         1 IXS449      0.0000 
     81 H          27.1208   36.3480    1.8431 H         1 IXS449      0.0000 
     82 H          27.0478   34.9141    2.5675 H         1 IXS449      0.0000 
     83 H          26.9617   36.2616    3.4411 H         1 IXS449      0.0000 
     84 H          30.9793   30.0784    2.1666 H         1 IXS449      0.0000 
     85 H          30.2137   31.3443    2.7971 H         1 IXS449      0.0000 
     86 H          29.6198   30.6127    1.4939 H         1 IXS449      0.0000 
     87 H          32.3551   31.6620   -0.7648 H         1 IXS449      0.0000 
     88 H          32.2537   30.2664    0.0278 H         1 IXS449      0.0000 
     89 H          30.9830   30.8235   -0.7853 H         1 IXS449      0.0000 
@<TRIPOS>BOND
     1    2    1 2    
     2    3    2 2    
     3    4    2 1    
     4    5    2 1    
     5   72    4 1    
     6   73    4 1    
     7   74    4 1    
     8    6    5 1    
     9    7    5 1    
    10   75    6 1    
    11   76    6 1    
    12   77    6 1    
    13    8    7 ar   
    14   22    7 ar   
    15    9    8 ar   
    16   47    8 1    
    17   10    9 1    
    18   24    9 ar   
    19   11   10 2    
    20   12   10 am   
    21   13   12 1    
    22   48   12 1    
    23   14   13 1    
    24   15   13 1    
    25   49   13 1    
    26   78   14 1    
    27   79   14 1    
    28   80   14 1    
    29   16   15 ar   
    30   18   15 ar   
    31   17   16 ar   
    32   50   16 1    
    33   20   17 ar   
    34   51   17 1    
    35   19   18 ar   
    36   52   18 1    
    37   20   19 ar   
    38   53   19 1    
    39   21   20 1    
    40   23   22 ar   
    41   54   22 1    
    42   24   23 ar   
    43   25   23 1    
    44   55   24 1    
    45   26   25 2    
    46   27   25 am   
    47   28   27 1    
    48   56   27 1    
    49   29   28 1    
    50   36   28 1    
    51   57   28 1    
    52   30   29 1    
    53   58   29 1    
    54   59   29 1    
    55   31   30 ar   
    56   35   30 ar   
    57   32   31 ar   
    58   60   31 1    
    59   33   32 ar   
    60   61   32 1    
    61   34   33 ar   
    62   62   33 1    
    63   35   34 ar   
    64   63   34 1    
    65   64   35 1    
    66   37   36 1    
    67   65   36 1    
    68   66   36 1    
    69   38   37 1    
    70   39   38 1    
    71   40   38 1    
    72   67   38 1    
    73   81   39 1    
    74   82   39 1    
    75   83   39 1    
    76   41   40 2    
    77   42   40 am   
    78   43   42 1    
    79   68   42 1    
    80   44   43 1    
    81   69   43 1    
    82   70   43 1    
    83   45   44 1    
    84   46   44 1    
    85   71   44 1    
    86   84   45 1    
    87   85   45 1    
    88   86   45 1    
    89   87   46 1    
    90   88   46 1    
    91   89   46 1    
@<TRIPOS>SUBSTRUCTURE
     1 IXS449      1 GROUP   
@<TRIPOS>SET

