#    Name: 1c3x_8IG_2_INTS_M
#    Modification time : Mon Mar 24 20:16:55 2014

@<TRIPOS>MOLECULE
1c3x_8IG_2_INTS_M
   25     0     6     0     0
SMALL
NO_CHARGES


@<TRIPOS>ATOM
      1 CA         -0.4795   10.1085  -13.4355 C.3       2 GLC5        0.0000 
      2 CA          1.5010   10.6680  -13.3320 C.3       6 GLL5        0.0000 
      3 CA         -2.4600    9.5490  -13.5390 C.3       4 GLP5        0.0000 
      4 CA          1.1790    9.1265  -14.3565 C.3       2 GLC5        0.0000 
      5 CA          0.8570    7.5850  -15.3810 C.3       4 GLP5        0.0000 
      6 CA          3.0055    9.1500  -13.8810 C.3       2 GLC5        0.0000 
      7 CA          4.5100    7.6320  -14.4300 C.3       4 GLP5        0.0000 
      8 CA          2.3875   11.1490  -14.8985 C.3       2 GLC5        0.0000 
      9 CA          3.2740   11.6300  -16.4650 C.3       4 GLP5        0.0000 
     10 O           8.0160    8.8070   -8.6415 O.2       1 ALC1        0.0000 
     11 O           6.6830    8.3040   -8.3660 O.2       5 ALL1        0.0000 
     12 O           9.3490    9.3100   -8.9170 O.2       3 ALP1        0.0000 
     13 O           7.6940    8.2845   -7.7140 O.2       1 ALC1        0.0000 
     14 O           8.7050    8.2650   -7.0620 O.2       3 ALP1        0.0000 
     15 O           8.2315    9.4585   -9.5930 O.2       1 ALC1        0.0000 
     16 O           7.1140    9.6070  -10.2690 O.2       5 ALL1        0.0000 
     17 CA          4.8095    7.5160  -10.6320 C.3       2 GLC5        0.0000 
     18 CA          4.4660    9.4880  -10.7750 C.3       6 GLL5        0.0000 
     19 CA          5.1530    5.5440  -10.4890 C.3       4 GLP5        0.0000 
     20 CA          4.3225    9.3135   -8.7015 C.3       2 GLC5        0.0000 
     21 CA          4.1790    9.1390   -6.6280 C.3       4 GLP5        0.0000 
     22 CA          6.5745    9.6730  -13.3490 C.3       2 GLC5        0.0000 
     23 CA          5.2420   10.1950  -11.6670 C.3       6 GLL5        0.0000 
     24 CA          7.9070    9.1510  -15.0310 C.3       4 GLP5        0.0000 
     25 CA          4.6820    8.7367  -12.8255 C.3       2 GLC5        0.0000 
@<TRIPOS>BOND
@<TRIPOS>SUBSTRUCTURE
     1 ALC1       10 GROUP        1 X    ALC  0     ROOT ALC X 1
     2 GLC5        1 GROUP        1 X    GLC  0     **** GLC X 6
     3 ALP1       12 GROUP        1 Y    ALP  0     ROOT ALP Y 8
     4 GLP5        3 GROUP        1 Y    GLP  0     **** GLP Y 13
     5 ALL1       11 GROUP        1 Z    ALL  0     ROOT ALL Z 15
     6 GLL5        2 GROUP        1 Z    GLL  0     **** GLL Z 20
@<TRIPOS>SET

