#    Name: 1c3x_8IG_2_ligand
#    Modification time : Mon Mar 24 20:16:55 2014

@<TRIPOS>MOLECULE
1c3x_8IG_2_ligand
   16    17     1     0     0
SMALL
NO_CHARGES


@<TRIPOS>ATOM
      1 I           1.5010   10.6680  -13.3320 I         1 8IG305      0.0000 
      2 O6          7.5290   10.9210  -12.1670 O.2       1 8IG305      0.0000 
      3 C8          3.2350   10.2310  -12.2510 C.2       1 8IG305      0.0000 
      4 N9          3.1870    9.4960  -11.1000 N.pl3     1 8IG305      0.0000 
      5 N2          6.6830    8.3040   -8.3660 N.pl3     1 8IG305      0.0000 
      6 N1          7.1140    9.6070  -10.2690 N.am      1 8IG305      0.0000 
      7 C2          6.1830    8.9070   -9.4420 C.2       1 8IG305      0.0000 
      8 N3          4.8420    8.8220   -9.6580 N.2       1 8IG305      0.0000 
      9 C4          4.4660    9.4880  -10.7750 C.2       1 8IG305      0.0000 
     10 C5          5.2420   10.1950  -11.6670 C.2       1 8IG305      0.0000 
     11 C6          6.6640   10.2990  -11.4530 C.2       1 8IG305      0.0000 
     12 N7          4.4370   10.6830  -12.6300 N.2       1 8IG305      0.0000 
     13 H           2.4531    9.1252  -10.6927 H         1 8IG305      0.0000 
     14 H           7.4833    8.7369   -7.9511 H         1 8IG305      0.0000 
     15 H           6.2133    7.4724   -8.0694 H         1 8IG305      0.0000 
     16 H           8.1012    9.6217  -10.0276 H         1 8IG305      0.0000 
@<TRIPOS>BOND
     1    3    1 1    
     2   11    2 2    
     3    4    3 1    
     4   12    3 2    
     5    9    4 1    
     6   13    4 1    
     7    7    5 1    
     8   14    5 1    
     9   15    5 1    
    10    7    6 1    
    11   11    6 am   
    12   16    6 1    
    13    8    7 2    
    14    9    8 1    
    15   10    9 2    
    16   11   10 1    
    17   12   10 1    
@<TRIPOS>SUBSTRUCTURE
     1 8IG305      1 GROUP   
@<TRIPOS>SET

