#    Name: 2ow3_BIM_2_INTS_M
#    Modification time : Mon Mar 24 17:55:00 2014

@<TRIPOS>MOLECULE
2ow3_BIM_2_INTS_M
   72     0     9     0     0
SMALL
NO_CHARGES


@<TRIPOS>ATOM
      1 CA         78.3580    4.3595  -17.6445 C.3       3 GLC5        0.0000 
      2 CA         76.6800    3.0520  -18.0390 C.3       9 GLL5        0.0000 
      3 CA         80.0360    5.6670  -17.2500 C.3       6 GLP5        0.0000 
      4 CA         73.6375    7.7105  -17.4315 C.3       3 GLC5        0.0000 
      5 CA         72.4720    6.1980  -17.2370 C.3       9 GLL5        0.0000 
      6 CA         74.8030    9.2230  -17.6260 C.3       6 GLP5        0.0000 
      7 CA         70.8120    2.8840  -13.1625 C.3       3 GLC5        0.0000 
      8 CA         71.5420    2.1960  -14.7360 C.3       9 GLL5        0.0000 
      9 CA         70.0820    3.5720  -11.5890 C.3       6 GLP5        0.0000 
     10 CA         75.6560    6.1545  -21.6865 C.3       3 GLC5        0.0000 
     11 CA         73.7040    5.3090  -21.4810 C.3       9 GLL5        0.0000 
     12 CA         77.6080    7.0000  -21.8920 C.3       6 GLP5        0.0000 
     13 CA         74.6085    4.7515  -23.4470 C.3       3 GLC5        0.0000 
     14 CA         75.5130    4.1940  -25.4130 C.3       6 GLP5        0.0000 
     15 CA         69.6295    2.9000  -22.8925 C.3       3 GLC5        0.0000 
     16 CA         70.6070    3.0360  -21.1500 C.3       9 GLL5        0.0000 
     17 CA         68.6520    2.7640  -24.6350 C.3       6 GLP5        0.0000 
     18 CA         71.6565    1.4900  -21.6100 C.3       3 GLC5        0.0000 
     19 CA         72.0130    3.4680  -21.6420 C.3       9 GLL5        0.0000 
     20 CA         71.3000   -0.4880  -21.5780 C.3       6 GLP5        0.0000 
     21 CA         73.7640   -0.3725  -15.4210 C.3       3 GLC5        0.0000 
     22 CA         72.5180    1.0060  -14.5440 C.3       9 GLL5        0.0000 
     23 CA         75.0100   -1.7510  -16.2980 C.3       6 GLP5        0.0000 
     24 CA         73.4090   -0.4595  -13.5430 C.3       3 GLC5        0.0000 
     25 CA         74.3000   -1.9250  -12.5420 C.3       6 GLP5        0.0000 
     26 CA         69.9000    3.1310  -13.9780 C.3       3 GLC5        0.0000 
     27 CA         70.2390    1.7860  -15.4490 C.3       9 GLL5        0.0000 
     28 CA         69.5610    4.4760  -12.5070 C.3       6 GLP5        0.0000 
     29 N          78.7305    3.2500  -21.2865 N.am      2 SEC2        0.0000 
     30 N          78.2970    3.5140  -19.7220 N.am      8 SEL2        0.0000 
     31 N          79.1640    2.9860  -22.8510 N.am      5 SEP2        0.0000 
     32 O          80.1960    2.0925  -18.9280 O.2       1 ALC1        0.0000 
     33 O          78.8690    2.1660  -17.9900 O.2       7 ALL1        0.0000 
     34 O          81.5230    2.0190  -19.8660 O.2       4 ALP1        0.0000 
     35 CA         76.9193    0.9495  -18.6733 C.3       3 GLC5        0.0000 
     36 CA         77.1130   -0.7620  -19.8610 C.3       6 GLP5        0.0000 
     37 CA         75.3335    2.1167  -20.2300 C.3       3 GLC5        0.0000 
     38 CA         75.5870    3.8780  -18.6680 C.3       9 GLL5        0.0000 
     39 CA         75.2080    0.2550  -21.1160 C.3       6 GLP5        0.0000 
     40 CA         75.3720    6.1914  -18.8490 C.3       3 GLC5        0.0000 
     41 CA         75.3310    4.0790  -20.0200 C.3       9 GLL5        0.0000 
     42 CA         75.5310    8.2210  -18.5170 C.3       6 GLP5        0.0000 
     43 CA         75.1901    0.0405  -16.2521 C.3       3 GLC5        0.0000 
     44 CA         76.7710    2.2700  -16.9320 C.3       9 GLL5        0.0000 
     45 CA         75.1990    0.0998  -15.2392 C.3       3 GLC5        0.0000 
     46 CA         75.9710    2.1200  -14.5000 C.3       9 GLL5        0.0000 
     47 CA         74.5305   -0.0608  -12.8550 C.3       3 GLC5        0.0000 
     48 CA         74.8050    1.7810  -13.8610 C.3       9 GLL5        0.0000 
     49 CA         74.6757    6.7030  -17.4952 C.3       3 GLC5        0.0000 
     50 CA         74.3570    4.7880  -16.6670 C.3       9 GLL5        0.0000 
     51 CA         75.2057    6.2945  -15.6963 C.3       3 GLC5        0.0000 
     52 CA         76.5910    7.4040  -14.9190 C.3       6 GLP5        0.0000 
     53 CA         72.1970    7.5510  -15.6288 C.3       3 GLC5        0.0000 
     54 CA         73.2840    5.5820  -16.2800 C.3       9 GLL5        0.0000 
     55 CA         71.5160    9.2120  -14.4990 C.3       6 GLP5        0.0000 
     56 CA         74.3967    6.9175  -18.6480 C.3       3 GLC5        0.0000 
     57 CA         72.7260    6.0150  -18.5960 C.3       9 GLL5        0.0000 
     58 CA         77.2158    3.2082  -10.4855 C.3       3 GLC5        0.0000 
     59 CA         77.0190    2.5900  -12.3880 C.3       9 GLL5        0.0000 
     60 CA         78.0040    4.0040   -8.9070 C.3       6 GLP5        0.0000 
     61 CA         79.0535    2.6475  -13.4968 C.3       3 GLC5        0.0000 
     62 CA         81.0520    2.7330  -13.9090 C.3       6 GLP5        0.0000 
     63 CA         73.6058    2.3803  -11.1082 C.3       3 GLC5        0.0000 
     64 CA         75.8360    2.2350  -11.7400 C.3       9 GLL5        0.0000 
     65 CA         71.9350    2.7300  -10.1090 C.3       6 GLP5        0.0000 
     66 CA         71.2762    0.5945  -19.9900 C.3       3 GLC5        0.0000 
     67 CA         71.2130    1.5220  -17.7320 C.3       9 GLL5        0.0000 
     68 CA         70.9152    1.2070  -20.9902 C.3       3 GLC5        0.0000 
     69 CA         70.4540    2.7680  -19.6550 C.3       9 GLL5        0.0000 
     70 CA         76.2236    4.5016  -12.8332 C.3       3 GLC5        0.0000 
     71 CA         77.0910    2.5340  -13.7810 C.3       9 GLL5        0.0000 
     72 CA         75.6880    6.5300  -12.7440 C.3       6 GLP5        0.0000 
@<TRIPOS>BOND
@<TRIPOS>SUBSTRUCTURE
     1 ALC1       32 GROUP        1 X    ALC  0     ROOT ALC X 1
     2 SEC2       29 GROUP        1 X    SEC  0     **** SEC X 2
     3 GLC5        1 GROUP        1 X    GLC  0     **** GLC X 6
     4 ALP1       34 GROUP        1 Y    ALP  0     ROOT ALP Y 8
     5 SEP2       31 GROUP        1 Y    SEP  0     **** SEP Y 9
     6 GLP5        3 GROUP        1 Y    GLP  0     **** GLP Y 13
     7 ALL1       33 GROUP        1 Z    ALL  0     ROOT ALL Z 15
     8 SEL2       30 GROUP        1 Z    SEL  0     **** SEL Z 16
     9 GLL5        2 GROUP        1 Z    GLL  0     **** GLL Z 20
@<TRIPOS>SET

