#    Name: 2ow3_BIM_2_ligand
#    Modification time : Mon Mar 24 17:55:00 2014

@<TRIPOS>MOLECULE
2ow3_BIM_2_ligand
   74    80     1     0     0
SMALL
NO_CHARGES


@<TRIPOS>ATOM
      1 C1         78.1420    1.7290  -16.9050 C.2       1 BIM387      0.0000 
      2 C3         76.7710    2.2700  -16.9320 C.2       1 BIM387      0.0000 
      3 C4         77.9970    2.9630  -18.6930 C.2       1 BIM387      0.0000 
      4 C5         76.6800    3.0520  -18.0390 C.2       1 BIM387      0.0000 
      5 C6         75.5870    3.8780  -18.6680 C.2       1 BIM387      0.0000 
      6 C7         74.6030    4.6110  -18.0160 C.ar      1 BIM387      0.0000 
      7 C8         75.3310    4.0790  -20.0200 C.2       1 BIM387      0.0000 
      8 N10        74.2530    4.8850  -20.1780 N.pl3     1 BIM387      0.0000 
      9 C11        75.7740    1.9640  -15.8650 C.2       1 BIM387      0.0000 
     10 C12        74.4680    1.5470  -16.0140 C.2       1 BIM387      0.0000 
     11 C15        74.8050    1.7810  -13.8610 C.ar      1 BIM387      0.0000 
     12 C16        74.3570    4.7880  -16.6670 C.ar      1 BIM387      0.0000 
     13 C17        73.2840    5.5820  -16.2800 C.ar      1 BIM387      0.0000 
     14 C18        72.7260    6.0150  -18.5960 C.ar      1 BIM387      0.0000 
     15 C19        72.4720    6.1980  -17.2370 C.ar      1 BIM387      0.0000 
     16 C21        77.0190    2.5900  -12.3880 C.ar      1 BIM387      0.0000 
     17 C23        75.8360    2.2350  -11.7400 C.ar      1 BIM387      0.0000 
     18 O25        78.5900    0.9890  -16.0530 O.2       1 BIM387      0.0000 
     19 C27        71.5420    2.1960  -14.7360 C.3       1 BIM387      0.0000 
     20 C30        71.2130    1.5220  -17.7320 C.ar      1 BIM387      0.0000 
     21 C32        71.2920    1.8320  -19.0720 C.ar      1 BIM387      0.0000 
     22 C33        69.5020    3.4010  -18.8410 C.ar      1 BIM387      0.0000 
     23 C34        70.4540    2.7680  -19.6550 C.ar      1 BIM387      0.0000 
     24 C35        73.7040    5.3090  -21.4810 C.3       1 BIM387      0.0000 
     25 C36        72.2240    4.9830  -21.8000 C.3       1 BIM387      0.0000 
     26 C37        70.6070    3.0360  -21.1500 C.3       1 BIM387      0.0000 
     27 C38        72.0130    3.4680  -21.6420 C.3       1 BIM387      0.0000 
     28 C40        67.5750    4.3210  -20.3670 C.3       1 BIM387      0.0000 
     29 C13        75.9710    2.1200  -14.5000 C.ar      1 BIM387      0.0000 
     30 C20        77.0910    2.5340  -13.7810 C.ar      1 BIM387      0.0000 
     31 C22        74.7170    1.8260  -12.4750 C.ar      1 BIM387      0.0000 
     32 N14        73.9050    1.4270  -14.7900 N.pl3     1 BIM387      0.0000 
     33 C26        72.5180    1.0060  -14.5440 C.3       1 BIM387      0.0000 
     34 C28        70.2390    1.7860  -15.4490 C.3       1 BIM387      0.0000 
     35 C29        70.2880    2.1440  -16.9210 C.ar      1 BIM387      0.0000 
     36 N31        69.4330    3.0810  -17.4860 N.ar      1 BIM387      0.0000 
     37 N39        68.5830    4.3790  -19.2950 N.3       1 BIM387      0.0000 
     38 C41        68.5590    5.7100  -18.6640 C.3       1 BIM387      0.0000 
     39 O24        78.2970    3.5140  -19.7220 O.2       1 BIM387      0.0000 
     40 N2         78.8690    2.1660  -17.9900 N.am      1 BIM387      0.0000 
     41 C9         73.7990    5.2130  -18.9620 C.ar      1 BIM387      0.0000 
     42 H          75.8593    3.6897  -20.7322 H         1 BIM387      0.0000 
     43 H          74.0406    1.3736  -16.8585 H         1 BIM387      0.0000 
     44 H          74.9515    4.3444  -15.9646 H         1 BIM387      0.0000 
     45 H          73.0817    5.7204  -15.2779 H         1 BIM387      0.0000 
     46 H          72.1400    6.4578  -19.2976 H         1 BIM387      0.0000 
     47 H          71.6854    6.7876  -16.9363 H         1 BIM387      0.0000 
     48 H          77.8337    2.8913  -11.8433 H         1 BIM387      0.0000 
     49 H          75.7830    2.2733  -10.7121 H         1 BIM387      0.0000 
     50 H          72.0431    2.9698  -15.3227 H         1 BIM387      0.0000 
     51 H          71.2981    2.6116  -13.7553 H         1 BIM387      0.0000 
     52 H          71.8549    0.8145  -17.3295 H         1 BIM387      0.0000 
     53 H          72.0017    1.3501  -19.6668 H         1 BIM387      0.0000 
     54 H          74.3241    4.8756  -22.3157 H         1 BIM387      0.0000 
     55 H          73.8303    6.4216  -21.6046 H         1 BIM387      0.0000 
     56 H          72.0099    5.2727  -22.8135 H         1 BIM387      0.0000 
     57 H          71.5903    5.5090  -21.1082 H         1 BIM387      0.0000 
     58 H          69.8799    3.8221  -21.4528 H         1 BIM387      0.0000 
     59 H          70.3108    2.1231  -21.7132 H         1 BIM387      0.0000 
     60 H          72.7659    3.0739  -20.9342 H         1 BIM387      0.0000 
     61 H          72.2083    2.9764  -22.6133 H         1 BIM387      0.0000 
     62 H          77.9510    2.7925  -14.2647 H         1 BIM387      0.0000 
     63 H          73.8551    1.5668  -11.9975 H         1 BIM387      0.0000 
     64 H          72.2200    0.2148  -15.2359 H         1 BIM387      0.0000 
     65 H          72.3960    0.6355  -13.5236 H         1 BIM387      0.0000 
     66 H          69.4035    2.2987  -14.9732 H         1 BIM387      0.0000 
     67 H          70.1016    0.7110  -15.3361 H         1 BIM387      0.0000 
     68 H          79.7535    1.9655  -18.1993 H         1 BIM387      0.0000 
     69 H          67.9901    4.1346  -21.2575 H         1 BIM387      0.0000 
     70 H          66.8990    3.6027  -20.2026 H         1 BIM387      0.0000 
     71 H          67.0732    5.1818  -20.4520 H         1 BIM387      0.0000 
     72 H          69.4373    6.1796  -18.7541 H         1 BIM387      0.0000 
     73 H          67.8661    6.3030  -19.0742 H         1 BIM387      0.0000 
     74 H          68.3554    5.6540  -17.6865 H         1 BIM387      0.0000 
@<TRIPOS>BOND
     1    2    1 1    
     2   18    1 2    
     3   40    1 am   
     4    4    2 2    
     5    9    2 1    
     6    4    3 1    
     7   39    3 2    
     8   40    3 am   
     9    5    4 1    
    10    6    5 1    
    11    7    5 2    
    12   12    6 ar   
    13   41    6 ar   
    14    8    7 1    
    15   42    7 1    
    16   24    8 1    
    17   41    8 1    
    18   10    9 2    
    19   29    9 1    
    20   32   10 1    
    21   43   10 1    
    22   29   11 ar   
    23   31   11 ar   
    24   32   11 1    
    25   13   12 ar   
    26   44   12 1    
    27   15   13 ar   
    28   45   13 1    
    29   15   14 ar   
    30   41   14 ar   
    31   46   14 1    
    32   47   15 1    
    33   17   16 ar   
    34   30   16 ar   
    35   48   16 1    
    36   31   17 ar   
    37   49   17 1    
    38   33   19 1    
    39   34   19 1    
    40   50   19 1    
    41   51   19 1    
    42   21   20 ar   
    43   35   20 ar   
    44   52   20 1    
    45   23   21 ar   
    46   53   21 1    
    47   23   22 ar   
    48   36   22 ar   
    49   37   22 1    
    50   26   23 1    
    51   25   24 1    
    52   54   24 1    
    53   55   24 1    
    54   27   25 1    
    55   56   25 1    
    56   57   25 1    
    57   27   26 1    
    58   58   26 1    
    59   59   26 1    
    60   60   27 1    
    61   61   27 1    
    62   37   28 1    
    63   69   28 1    
    64   70   28 1    
    65   71   28 1    
    66   30   29 ar   
    67   62   30 1    
    68   63   31 1    
    69   33   32 1    
    70   64   33 1    
    71   65   33 1    
    72   35   34 1    
    73   66   34 1    
    74   67   34 1    
    75   36   35 ar   
    76   38   37 1    
    77   72   38 1    
    78   73   38 1    
    79   74   38 1    
    80   68   40 1    
@<TRIPOS>SUBSTRUCTURE
     1 BIM387      1 GROUP   
@<TRIPOS>SET

