#    Name: 2dt5_NAD_1_INTS_M
#    Modification time : Mon Apr  7 17:27:23 2014

@<TRIPOS>MOLECULE
2dt5_NAD_1_INTS_M
  109     0    12     0     0
SMALL
NO_CHARGES


@<TRIPOS>ATOM
      1 NZ         33.2215   36.0725   27.0735 N.4       3 LYC4        0.0000 
      2 NZ         32.2100   34.9800   27.2830 N.4      11 LYL4        0.0000 
      3 NZ         35.2020   37.2650   27.7720 N.4       7 LYP4        0.0000 
      4 N          31.7430   35.1315   25.7865 N.am      2 SEC2        0.0000 
      5 N          32.2100   34.9800   27.2830 N.am     10 SEL2        0.0000 
      6 N          31.2760   35.2830   24.2900 N.am      6 SEP2        0.0000 
      7 N          33.2215   36.0725   27.0735 N.am      2 SEC2        0.0000 
      8 N          34.2330   37.1650   26.8640 N.am      6 SEP2        0.0000 
      9 CA         30.7545   29.4295   27.6820 C.3       4 GLC5        0.0000 
     10 CA         30.5030   31.5810   27.8570 C.3      12 GLL5        0.0000 
     11 CA         31.0060   27.2780   27.5070 C.3       8 GLP5        0.0000 
     12 CA         28.3340   30.0700   26.2265 C.3       4 GLC5        0.0000 
     13 CA         29.0250   31.4620   27.5320 C.3      12 GLL5        0.0000 
     14 CA         27.6430   28.6780   24.9210 C.3       8 GLP5        0.0000 
     15 CA         27.0300   34.1310   27.7905 C.3       4 GLC5        0.0000 
     16 CA         28.1050   32.4280   28.3420 C.3      12 GLL5        0.0000 
     17 CA         25.9550   35.8340   27.2390 C.3       8 GLP5        0.0000 
     18 N          26.6900   34.1930   28.0130 N.am      2 SEC2        0.0000 
     19 N          27.2740   33.1620   27.4080 N.am     10 SEL2        0.0000 
     20 N          26.1060   35.2240   28.6180 N.am      6 SEP2        0.0000 
     21 O          26.3265   32.2980   26.8060 O.2       1 ALC1        0.0000 
     22 O          27.2740   33.1620   27.4080 O.2       9 ALL1        0.0000 
     23 O          25.3790   31.4340   26.2040 O.2       5 ALP1        0.0000 
     24 N          26.0595   33.6320   29.1175 N.am      2 SEC2        0.0000 
     25 N          26.0130   32.0400   29.6170 N.am     10 SEL2        0.0000 
     26 O          25.0360   31.7920   28.7915 O.2       1 ALC1        0.0000 
     27 O          26.0130   32.0400   29.6170 O.2       9 ALL1        0.0000 
     28 O          24.0590   31.5440   27.9660 O.2       5 ALP1        0.0000 
     29 CA         27.4820   29.4480   26.7090 C.3       4 GLC5        0.0000 
     30 CA         27.3210   30.2180   28.4970 C.3      12 GLL5        0.0000 
     31 CA         28.0370   28.2130   27.8710 C.3       4 GLC5        0.0000 
     32 CA         28.7530   26.2080   27.2450 C.3       8 GLP5        0.0000 
     33 CA         29.2640   29.5125   29.3205 C.3       4 GLC5        0.0000 
     34 CA         31.2070   28.8070   30.1440 C.3       8 GLP5        0.0000 
     35 CA         24.2590   27.0110   30.4410 C.3       4 GLC5        0.0000 
     36 CA         25.7500   25.7570   29.9750 C.3      12 GLL5        0.0000 
     37 CA         22.7680   28.2650   30.9070 C.3       8 GLP5        0.0000 
     38 CA         25.5080   25.4035   26.3600 C.3       4 GLC5        0.0000 
     39 CA         24.9590   26.4950   27.8020 C.3      12 GLL5        0.0000 
     40 CA         26.0570   24.3120   24.9180 C.3       8 GLP5        0.0000 
     41 CA         23.9295   27.8535   27.0120 C.3       4 GLC5        0.0000 
     42 CA         22.9000   29.2120   26.2220 C.3       8 GLP5        0.0000 
     43 CA         23.8635   27.3800   29.3545 C.3       4 GLC5        0.0000 
     44 CA         23.2270   25.7515   27.5635 C.3       4 GLC5        0.0000 
     45 CA         21.4950   25.0080   27.3250 C.3       8 GLP5        0.0000 
     46 CA         26.8560   26.3515   27.5235 C.3       4 GLC5        0.0000 
     47 N          24.1305   28.4560   28.2485 N.am      2 SEC2        0.0000 
     48 N          25.6270   27.7180   27.8580 N.am     10 SEL2        0.0000 
     49 N          22.6340   29.1940   28.6390 N.am      6 SEP2        0.0000 
     50 CA         27.0120   28.3085   26.9680 C.3       4 GLC5        0.0000 
     51 CA         26.3810   27.9390   29.0150 C.3      12 GLL5        0.0000 
     52 NZ         35.5035   35.0750   27.4485 N.4       3 LYC4        0.0000 
     53 NZ         35.3720   33.9680   26.4980 N.4      11 LYL4        0.0000 
     54 N          34.8025   35.5665   26.6810 N.am      2 SEC2        0.0000 
     55 N          35.3720   33.9680   26.4980 N.am     10 SEL2        0.0000 
     56 N          35.5035   35.0750   27.4485 N.am      2 SEC2        0.0000 
     57 N          35.6350   36.1820   28.3990 N.am      6 SEP2        0.0000 
     58 N          33.2735   33.5475   23.8370 N.am      2 SEC2        0.0000 
     59 N          33.3370   33.0960   25.1260 N.am     10 SEL2        0.0000 
     60 N          33.2100   33.9990   22.5480 N.am      6 SEP2        0.0000 
     61 CA         34.3980   31.1380   24.0535 C.3       4 GLC5        0.0000 
     62 CA         34.2040   30.2800   26.0080 C.3      12 GLL5        0.0000 
     63 CA         34.5920   31.9960   22.0990 C.3       8 GLP5        0.0000 
     64 CA         35.4975   29.4800   23.9990 C.3       4 GLC5        0.0000 
     65 CA         35.0630   29.0900   26.1170 C.3      12 GLL5        0.0000 
     66 CA         35.9320   29.8700   21.8810 C.3       8 GLP5        0.0000 
     67 CA         34.6210   28.4125   28.9555 C.3       4 GLC5        0.0000 
     68 CA         35.8110   28.9350   27.5130 C.3      12 GLL5        0.0000 
     69 CA         33.4310   27.8900   30.3980 C.3       8 GLP5        0.0000 
     70 O          34.5905   27.1145   27.9565 O.2       1 ALC1        0.0000 
     71 O          35.9040   27.5370   27.9120 O.2       9 ALL1        0.0000 
     72 O          33.2770   26.6920   28.0010 O.2       5 ALP1        0.0000 
     73 CA         36.6620   29.3895   23.8180 C.3       4 GLC5        0.0000 
     74 CA         37.3920   28.9090   25.7550 C.3      12 GLL5        0.0000 
     75 CA         37.1125   26.7215   26.1205 C.3       4 GLC5        0.0000 
     76 CA         36.8330   24.5340   26.4860 C.3       8 GLP5        0.0000 
     77 CA         39.5340   29.2540   25.9915 C.3       4 GLC5        0.0000 
     78 CA         41.6760   29.5990   26.2280 C.3       8 GLP5        0.0000 
     79 CA         37.6860   27.3485   23.1460 C.3       4 GLC5        0.0000 
     80 CA         39.1820   28.6700   24.1330 C.3      12 GLL5        0.0000 
     81 CA         36.1900   26.0270   22.1590 C.3       8 GLP5        0.0000 
     82 O          39.2495   26.1790   23.3275 O.2       1 ALC1        0.0000 
     83 O          40.2170   26.7860   22.2980 O.2       9 ALL1        0.0000 
     84 O          38.2820   25.5720   24.3570 O.2       5 ALP1        0.0000 
     85 O          40.6470   25.5195   21.8290 O.2       1 ALC1        0.0000 
     86 O          41.0770   24.2530   21.3600 O.2       5 ALP1        0.0000 
     87 CA         41.2945   31.2885   24.7185 C.3       4 GLC5        0.0000 
     88 CA         40.1890   30.5790   22.9100 C.3      12 GLL5        0.0000 
     89 CA         42.4000   31.9980   26.5270 C.3       8 GLP5        0.0000 
     90 CA         40.4365   31.4635   25.6105 C.3       4 GLC5        0.0000 
     91 CA         38.4730   30.9290   24.6940 C.3      12 GLL5        0.0000 
     92 CA         30.4855   30.1642   28.9192 C.3       4 GLC5        0.0000 
     93 CA         29.1363   32.9939   26.5036 C.3       4 GLC5        0.0000 
     94 CA         29.3380   34.0130   24.9890 C.3       8 GLP5        0.0000 
     95 CA         25.1540   28.3395   30.4783 C.3       4 GLC5        0.0000 
     96 CA         23.8790   29.1990   31.4080 C.3       8 GLP5        0.0000 
     97 CA         27.5001   26.6860   28.3834 C.3       4 GLC5        0.0000 
     98 CA         26.4770   27.0210   30.0820 C.3      12 GLL5        0.0000 
     99 CA         33.3777   28.4265   24.9588 C.3       4 GLC5        0.0000 
    100 CA         32.1220   27.1680   23.8550 C.3       8 GLP5        0.0000 
    101 CA         38.0798   27.4597   27.3517 C.3       4 GLC5        0.0000 
    102 CA         38.8770   25.7130   28.2300 C.3       8 GLP5        0.0000 
    103 CA         37.7450   29.3760   22.7587 C.3       4 GLC5        0.0000 
    104 CA         40.8088   32.2662   22.5218 C.3       4 GLC5        0.0000 
    105 CA         39.0380   31.3840   23.4650 C.3      12 GLL5        0.0000 
    106 CA         42.0040   33.5510   21.8560 C.3       8 GLP5        0.0000 
    107 CA         37.8577   33.0808   23.9848 C.3       4 GLC5        0.0000 
    108 CA         36.9600   35.0050   23.8900 C.3       8 GLP5        0.0000 
    109 CA         37.4876   30.4126   22.9109 C.3       4 GLC5        0.0000 
@<TRIPOS>BOND
@<TRIPOS>SUBSTRUCTURE
     1 ALC1       21 GROUP        1 X    ALC  0     ROOT ALC X 1
     2 SEC2        4 GROUP        1 X    SEC  0     **** SEC X 2
     3 LYC4        1 GROUP        1 X    LYC  0     **** LYC X 4
     4 GLC5        9 GROUP        1 X    GLC  0     **** GLC X 6
     5 ALP1       23 GROUP        1 Y    ALP  0     ROOT ALP Y 8
     6 SEP2        6 GROUP        1 Y    SEP  0     **** SEP Y 9
     7 LYP4        3 GROUP        1 Y    LYP  0     **** LYP Y 11
     8 GLP5       11 GROUP        1 Y    GLP  0     **** GLP Y 13
     9 ALL1       22 GROUP        1 Z    ALL  0     ROOT ALL Z 15
    10 SEL2        5 GROUP        1 Z    SEL  0     **** SEL Z 16
    11 LYL4        2 GROUP        1 Z    LYL  0     **** LYL Z 18
    12 GLL5       10 GROUP        1 Z    GLL  0     **** GLL Z 20
@<TRIPOS>SET

