#    Name: 2dt5_NAD_1_ligand
#    Modification time : Mon Apr  7 17:27:24 2014

@<TRIPOS>MOLECULE
2dt5_NAD_1_ligand
   70    74     1     0     0
SMALL
NO_CHARGES


@<TRIPOS>ATOM
      1 PA         32.1480   33.6900   28.0220 P.3       1 NAD301      0.0000 
      2 O1A        32.2100   34.9800   27.2830 O.co2     1 NAD301      0.0000 
      3 O2A        32.1100   33.6870   29.5000 O.co2     1 NAD301      0.0000 
      4 O5B        30.9250   32.9070   27.4200 O.3       1 NAD301      0.0000 
      5 C5B        30.5030   31.5810   27.8570 C.3       1 NAD301      0.0000 
      6 C4B        29.0250   31.4620   27.5320 C.3       1 NAD301      0.0000 
      7 O4B        28.6340   30.1060   27.9880 O.3       1 NAD301      0.0000 
      8 C3B        28.1050   32.4280   28.3420 C.3       1 NAD301      0.0000 
      9 O3B        27.2740   33.1620   27.4080 O.3       1 NAD301      0.0000 
     10 C2B        27.2780   31.5630   29.2680 C.3       1 NAD301      0.0000 
     11 O2B        26.0130   32.0400   29.6170 O.3       1 NAD301      0.0000 
     12 C1B        27.3210   30.2180   28.4970 C.3       1 NAD301      0.0000 
     13 N9A        27.1570   29.0620   29.3510 N.pl3     1 NAD301      0.0000 
     14 C8A        27.6660   28.7270   30.5990 C.2       1 NAD301      0.0000 
     15 N7A        27.2670   27.5390   31.0280 N.2       1 NAD301      0.0000 
     16 C5A        26.4770   27.0210   30.0820 C.ar      1 NAD301      0.0000 
     17 C6A        25.7500   25.7570   29.9750 C.ar      1 NAD301      0.0000 
     18 N6A        25.7810   24.8410   30.9140 N.pl3     1 NAD301      0.0000 
     19 N1A        25.0350   25.6030   28.8000 N.ar      1 NAD301      0.0000 
     20 C2A        24.9590   26.4950   27.8020 C.ar      1 NAD301      0.0000 
     21 N3A        25.6270   27.7180   27.8580 N.ar      1 NAD301      0.0000 
     22 C4A        26.3810   27.9390   29.0150 C.ar      1 NAD301      0.0000 
     23 O3         33.4110   32.8310   27.5890 O.3       1 NAD301      0.0000 
     24 PN         34.3200   32.9250   26.2570 P.3       1 NAD301      0.0000 
     25 O1N        35.3720   33.9680   26.4980 O.co2     1 NAD301      0.0000 
     26 O2N        33.3370   33.0960   25.1260 O.co2     1 NAD301      0.0000 
     27 O5D        35.0090   31.4760   26.2570 O.3       1 NAD301      0.0000 
     28 C5D        34.2040   30.2800   26.0080 C.3       1 NAD301      0.0000 
     29 C4D        35.0630   29.0900   26.1170 C.3       1 NAD301      0.0000 
     30 O4D        36.1610   29.2060   25.1120 O.3       1 NAD301      0.0000 
     31 C3D        35.8110   28.9350   27.5130 C.3       1 NAD301      0.0000 
     32 O3D        35.9040   27.5370   27.9120 O.3       1 NAD301      0.0000 
     33 C2D        37.1730   29.5040   27.1920 C.3       1 NAD301      0.0000 
     34 O2D        38.1700   29.2210   28.1210 O.3       1 NAD301      0.0000 
     35 C1D        37.3920   28.9090   25.7550 C.3       1 NAD301      0.0000 
     36 N1N        38.5630   29.5220   25.0750 N.pl3     1 NAD301      0.0000 
     37 C2N        39.1820   28.6700   24.1330 C.ar      1 NAD301      0.0000 
     38 C3N        39.9340   29.0940   23.1400 C.ar      1 NAD301      0.0000 
     39 C7N        40.5870   28.0930   22.2280 C.2       1 NAD301      0.0000 
     40 O7N        41.4840   28.5080   21.4670 O.2       1 NAD301      0.0000 
     41 N7N        40.2170   26.7860   22.2980 N.am      1 NAD301      0.0000 
     42 C4N        40.1890   30.5790   22.9100 C.ar      1 NAD301      0.0000 
     43 C5N        39.0380   31.3840   23.4650 C.ar      1 NAD301      0.0000 
     44 C6N        38.4730   30.9290   24.6940 C.ar      1 NAD301      0.0000 
     45 H          30.6354   31.4605   28.9234 H         1 NAD301      0.0000 
     46 H          31.0391   30.8059   27.3270 H         1 NAD301      0.0000 
     47 H          28.8423   31.5631   26.5109 H         1 NAD301      0.0000 
     48 H          28.7355   33.0638   28.9118 H         1 NAD301      0.0000 
     49 H          27.9351   31.3821   30.1510 H         1 NAD301      0.0000 
     50 H          26.6098   30.2453   27.7194 H         1 NAD301      0.0000 
     51 H          28.2698   29.3432   31.0961 H         1 NAD301      0.0000 
     52 H          26.3287   25.0577   31.7222 H         1 NAD301      0.0000 
     53 H          25.2541   24.0100   30.7356 H         1 NAD301      0.0000 
     54 H          24.3883   26.2896   26.9469 H         1 NAD301      0.0000 
     55 H          33.7608   30.3261   25.0077 H         1 NAD301      0.0000 
     56 H          33.3892   30.2163   26.7368 H         1 NAD301      0.0000 
     57 H          34.5300   28.1851   25.9392 H         1 NAD301      0.0000 
     58 H          35.3215   29.5543   28.1972 H         1 NAD301      0.0000 
     59 H          37.0139   30.5778   27.0174 H         1 NAD301      0.0000 
     60 H          37.5156   27.8554   25.8842 H         1 NAD301      0.0000 
     61 H          39.0050   27.6280   24.2689 H         1 NAD301      0.0000 
     62 H          40.6863   26.1618   21.6734 H         1 NAD301      0.0000 
     63 H          39.5083   26.5646   22.9678 H         1 NAD301      0.0000 
     64 H          40.9249   30.9209   22.5000 H         1 NAD301      0.0000 
     65 H          38.7242   32.1716   22.9771 H         1 NAD301      0.0000 
     66 H          38.0026   31.5761   25.3173 H         1 NAD301      0.0000 
     67 H          26.6414   32.4829   27.0356 H         1 NAD301      0.0000 
     68 H          25.4223   31.7924   28.8491 H         1 NAD301      0.0000 
     69 H          35.0467   27.3470   28.3904 H         1 NAD301      0.0000 
     70 H          37.8772   28.3742   28.5650 H         1 NAD301      0.0000 
@<TRIPOS>BOND
     1    2    1 ar   
     2    3    1 ar   
     3    4    1 1    
     4   23    1 1    
     5    5    4 1    
     6    6    5 1    
     7   45    5 1    
     8   46    5 1    
     9    7    6 1    
    10    8    6 1    
    11   47    6 1    
    12   12    7 1    
    13    9    8 1    
    14   10    8 1    
    15   48    8 1    
    16   67    9 1    
    17   11   10 1    
    18   12   10 1    
    19   49   10 1    
    20   68   11 1    
    21   13   12 1    
    22   50   12 1    
    23   14   13 1    
    24   22   13 1    
    25   15   14 2    
    26   51   14 1    
    27   16   15 1    
    28   17   16 ar   
    29   22   16 ar   
    30   18   17 1    
    31   19   17 ar   
    32   52   18 1    
    33   53   18 1    
    34   20   19 ar   
    35   21   20 ar   
    36   54   20 1    
    37   22   21 ar   
    38   24   23 1    
    39   25   24 ar   
    40   26   24 ar   
    41   27   24 1    
    42   28   27 1    
    43   29   28 1    
    44   55   28 1    
    45   56   28 1    
    46   30   29 1    
    47   31   29 1    
    48   57   29 1    
    49   35   30 1    
    50   32   31 1    
    51   33   31 1    
    52   58   31 1    
    53   69   32 1    
    54   34   33 1    
    55   35   33 1    
    56   59   33 1    
    57   70   34 1    
    58   36   35 1    
    59   60   35 1    
    60   37   36 ar   
    61   44   36 ar   
    62   38   37 ar   
    63   61   37 1    
    64   39   38 1    
    65   42   38 ar   
    66   40   39 2    
    67   41   39 am   
    68   62   41 1    
    69   63   41 1    
    70   43   42 ar   
    71   64   42 1    
    72   44   43 ar   
    73   65   43 1    
    74   66   44 1    
@<TRIPOS>SUBSTRUCTURE
     1 NAD301      1 GROUP   
@<TRIPOS>SET

