#    Name: 1wm0_PLB_1_INTS_M
#    Modification time : Tue Mar 25 09:09:09 2014

@<TRIPOS>MOLECULE
1wm0_PLB_1_INTS_M
   78     0     6     0     0
SMALL
NO_CHARGES


@<TRIPOS>ATOM
      1 CA         23.8665   22.8365   12.2885 C.3       2 GLC5        0.0000 
      2 CA         24.3700   24.0370   13.8390 C.3       6 GLL5        0.0000 
      3 CA         23.3630   21.6360   10.7380 C.3       4 GLP5        0.0000 
      4 CA         22.3510   24.8350   13.5460 C.3       2 GLC5        0.0000 
      5 CA         20.3320   25.6330   13.2530 C.3       4 GLP5        0.0000 
      6 CA         23.4245   22.4990   14.0990 C.3       2 GLC5        0.0000 
      7 CA         22.4790   20.9610   14.3590 C.3       4 GLP5        0.0000 
      8 CA         24.1650   26.4865   15.1655 C.3       2 GLC5        0.0000 
      9 CA         25.1280   25.5980   13.4860 C.3       6 GLL5        0.0000 
     10 CA         23.2020   27.3750   16.8450 C.3       4 GLP5        0.0000 
     11 CA         27.1385   25.2650   16.1510 C.3       2 GLC5        0.0000 
     12 CA         26.1770   25.8540   14.3240 C.3       6 GLL5        0.0000 
     13 CA         28.1000   24.6760   17.9780 C.3       4 GLP5        0.0000 
     14 CA         26.3340   27.5995   16.3455 C.3       2 GLC5        0.0000 
     15 CA         28.2010   27.3380   15.2620 C.3       6 GLL5        0.0000 
     16 CA         24.4670   27.8610   17.4290 C.3       4 GLP5        0.0000 
     17 CA         28.1505   26.0070   16.6200 C.3       2 GLC5        0.0000 
     18 CA         30.1690   27.9495   15.6335 C.3       2 GLC5        0.0000 
     19 CA         32.1370   28.5610   16.0050 C.3       4 GLP5        0.0000 
     20 CA         24.2490   26.0540   10.4070 C.3       2 GLC5        0.0000 
     21 CA         24.7160   26.5070   12.5130 C.3       6 GLL5        0.0000 
     22 CA         23.7820   25.6010    8.3010 C.3       4 GLP5        0.0000 
     23 CA         24.5730   29.4245   11.5610 C.3       2 GLC5        0.0000 
     24 CA         25.3620   27.7220   12.3400 C.3       6 GLL5        0.0000 
     25 CA         23.7840   31.1270   10.7820 C.3       4 GLP5        0.0000 
     26 CA         26.3580   29.3805   11.4440 C.3       2 GLC5        0.0000 
     27 CA         26.4330   27.9790   13.1790 C.3       6 GLL5        0.0000 
     28 CA         26.2830   30.7820    9.7090 C.3       4 GLP5        0.0000 
     29 CA         28.4950   28.2190   11.1750 C.3       2 GLC5        0.0000 
     30 CA         29.2400   30.1170   12.0830 C.3       6 GLL5        0.0000 
     31 CA         27.7500   26.3210   10.2670 C.3       4 GLP5        0.0000 
     32 CA         29.0170   34.3750   11.4775 C.3       2 GLC5        0.0000 
     33 CA         29.4460   32.3940   11.3270 C.3       6 GLL5        0.0000 
     34 CA         28.5880   36.3560   11.6280 C.3       4 GLP5        0.0000 
     35 CA         30.0940   33.4130   13.0795 C.3       2 GLC5        0.0000 
     36 CA         30.7420   34.4320   14.8320 C.3       4 GLP5        0.0000 
     37 CA         32.4220   31.2680   12.8525 C.3       2 GLC5        0.0000 
     38 CA         31.2570   30.8220   11.0450 C.3       6 GLL5        0.0000 
     39 CA         33.5870   31.7140   14.6600 C.3       4 GLP5        0.0000 
     40 CA         31.2410   29.9050   13.5285 C.3       2 GLC5        0.0000 
     41 CA         30.5110   29.8120   11.6440 C.3       6 GLL5        0.0000 
     42 CA         31.9710   29.9980   15.4130 C.3       4 GLP5        0.0000 
     43 N          31.8700   27.3935   13.3095 N.am      1 SEC2        0.0000 
     44 N          30.5210   27.4600   12.3320 N.am      5 SEL2        0.0000 
     45 N          33.2190   27.3270   14.2870 N.am      3 SEP2        0.0000 
     46 N          31.9690   32.7025    8.8300 N.am      1 SEC2        0.0000 
     47 N          31.4070   33.1260   10.2630 N.am      5 SEL2        0.0000 
     48 N          32.5310   32.2790    7.3970 N.am      3 SEP2        0.0000 
     49 CA         33.1515   32.5525   12.6530 C.3       2 GLC5        0.0000 
     50 CA         32.7160   33.3910   10.6460 C.3       6 GLL5        0.0000 
     51 CA         34.7550   34.8730   14.2380 C.3       2 GLC5        0.0000 
     52 CA         33.4150   34.6800   12.5980 C.3       6 GLL5        0.0000 
     53 CA         36.0950   35.0660   15.8780 C.3       4 GLP5        0.0000 
     54 CA         33.5010   33.1970   13.6290 C.3       2 GLC5        0.0000 
     55 CA         32.0785   34.5560   13.7150 C.3       2 GLC5        0.0000 
     56 CA         32.2790   36.6610   10.5500 C.3       2 GLC5        0.0000 
     57 CA         33.9700   35.4690   10.3510 C.3       6 GLL5        0.0000 
     58 CA         30.5880   37.8530   10.7490 C.3       4 GLP5        0.0000 
     59 N          32.9245   33.3590    8.6015 N.am      1 SEC2        0.0000 
     60 N          33.3180   34.4390    9.8060 N.am      5 SEL2        0.0000 
     61 CA         26.3650   24.5793   12.6913 C.3       2 GLC5        0.0000 
     62 CA         27.9810   24.3410   11.7200 C.3       4 GLP5        0.0000 
     63 CA         27.2420   25.3970   12.9785 C.3       2 GLC5        0.0000 
     64 CA         25.4850   27.1570   15.8330 C.3       2 GLC5        0.0000 
     65 CA         26.7430   26.9339   11.5349 C.3       2 GLC5        0.0000 
     66 CA         29.8340   30.7197   13.9597 C.3       2 GLC5        0.0000 
     67 CA         28.7320   31.4040   11.9320 C.3       6 GLL5        0.0000 
     68 CA         30.6820   30.6790   15.9120 C.3       4 GLP5        0.0000 
     69 CA         29.2055   31.6035    9.6013 C.3       2 GLC5        0.0000 
     70 CA         29.3220   31.3080    7.5730 C.3       4 GLP5        0.0000 
     71 CA         27.7495   31.1796   10.6881 C.3       2 GLC5        0.0000 
     72 CA         30.0362   30.9730    9.4383 C.3       2 GLC5        0.0000 
     73 CA         30.7230   32.1060   10.8810 C.3       6 GLL5        0.0000 
     74 CA         32.2410   36.6595   12.1623 C.3       2 GLC5        0.0000 
     75 CA         34.0190   35.5860   11.7310 C.3       6 GLL5        0.0000 
     76 CA         30.7650   38.1860   12.1600 C.3       4 GLP5        0.0000 
     77 CA         34.3122   37.0085   12.1484 C.3       2 GLC5        0.0000 
     78 CA         34.7810   38.7160   13.0390 C.3       4 GLP5        0.0000 
@<TRIPOS>BOND
@<TRIPOS>SUBSTRUCTURE
     1 SEC2       43 GROUP        1 X    SEC  0     ROOT SEC X 2
     2 GLC5        1 GROUP        1 X    GLC  0     **** GLC X 6
     3 SEP2       45 GROUP        1 Y    SEP  0     ROOT SEP Y 9
     4 GLP5        3 GROUP        1 Y    GLP  0     **** GLP Y 13
     5 SEL2       44 GROUP        1 Z    SEL  0     ROOT SEL Z 16
     6 GLL5        2 GROUP        1 Z    GLL  0     **** GLL Z 20
@<TRIPOS>SET

