#    Name: 1wm0_PLB_1_ligand
#    Modification time : Tue Mar 25 09:09:09 2014

@<TRIPOS>MOLECULE
1wm0_PLB_1_ligand
   37    39     1     0     0
SMALL
NO_CHARGES


@<TRIPOS>ATOM
      1 CL20       24.3700   24.0370   13.8390 Cl        1 PLB1        0.0000 
      2 C16        25.1280   25.5980   13.4860 C.ar      1 PLB1        0.0000 
      3 C15        26.1770   25.8540   14.3240 C.ar      1 PLB1        0.0000 
      4 C14        26.8290   27.0520   14.1500 C.ar      1 PLB1        0.0000 
      5 CL19       28.2010   27.3380   15.2620 Cl        1 PLB1        0.0000 
      6 C17        24.7160   26.5070   12.5130 C.ar      1 PLB1        0.0000 
      7 C18        25.3620   27.7220   12.3400 C.ar      1 PLB1        0.0000 
      8 C13        26.4330   27.9790   13.1790 C.ar      1 PLB1        0.0000 
      9 C11        27.1930   29.2590   13.0800 C.2       1 PLB1        0.0000 
     10 O12        26.5140   30.2730   13.2520 O.2       1 PLB1        0.0000 
     11 N10        28.4890   29.1510   12.7010 N.am      1 PLB1        0.0000 
     12 C2         29.2400   30.1170   12.0830 C.ar      1 PLB1        0.0000 
     13 C3         28.7320   31.4040   11.9320 C.ar      1 PLB1        0.0000 
     14 C4         29.4460   32.3940   11.3270 C.ar      1 PLB1        0.0000 
     15 C5         30.7230   32.1060   10.8810 C.ar      1 PLB1        0.0000 
     16 C6         31.2570   30.8220   11.0450 C.ar      1 PLB1        0.0000 
     17 C1         30.5110   29.8120   11.6440 C.ar      1 PLB1        0.0000 
     18 C7         31.1060   28.4270   11.7940 C.2       1 PLB1        0.0000 
     19 O9         30.5210   27.4600   12.3320 O.co2     1 PLB1        0.0000 
     20 O8         32.2620   28.2480   11.3680 O.co2     1 PLB1        0.0000 
     21 O21        31.4070   33.1260   10.2630 O.3       1 PLB1        0.0000 
     22 C22        32.7160   33.3910   10.6460 C.ar      1 PLB1        0.0000 
     23 N27        32.7700   33.6340   12.1000 N.ar      1 PLB1        0.0000 
     24 C26        33.4150   34.6800   12.5980 C.ar      1 PLB1        0.0000 
     25 C25        34.0190   35.5860   11.7310 C.ar      1 PLB1        0.0000 
     26 C24        33.9700   35.4690   10.3510 C.ar      1 PLB1        0.0000 
     27 N23        33.3180   34.4390    9.8060 N.ar      1 PLB1        0.0000 
     28 H          26.4629   25.1966   15.0388 H         1 PLB1        0.0000 
     29 H          23.9084   26.2668   11.9066 H         1 PLB1        0.0000 
     30 H          25.0667   28.3821   11.6404 H         1 PLB1        0.0000 
     31 H          28.9865   28.2111   12.9035 H         1 PLB1        0.0000 
     32 H          27.7725   31.6043   12.2981 H         1 PLB1        0.0000 
     33 H          29.0554   33.3315   11.2010 H         1 PLB1        0.0000 
     34 H          32.2156   30.6266   10.7163 H         1 PLB1        0.0000 
     35 H          33.4857   34.8479   13.6169 H         1 PLB1        0.0000 
     36 H          34.5391   36.4010   12.1473 H         1 PLB1        0.0000 
     37 H          34.4402   36.1830    9.7703 H         1 PLB1        0.0000 
@<TRIPOS>BOND
     1    2    1 1    
     2    3    2 ar   
     3    6    2 ar   
     4    4    3 ar   
     5   28    3 1    
     6    5    4 1    
     7    8    4 ar   
     8    7    6 ar   
     9   29    6 1    
    10    8    7 ar   
    11   30    7 1    
    12    9    8 1    
    13   10    9 2    
    14   11    9 am   
    15   12   11 1    
    16   31   11 1    
    17   13   12 ar   
    18   17   12 ar   
    19   14   13 ar   
    20   32   13 1    
    21   15   14 ar   
    22   33   14 1    
    23   16   15 ar   
    24   21   15 1    
    25   17   16 ar   
    26   34   16 1    
    27   18   17 1    
    28   19   18 ar   
    29   20   18 ar   
    30   22   21 1    
    31   23   22 ar   
    32   27   22 ar   
    33   24   23 ar   
    34   25   24 ar   
    35   35   24 1    
    36   26   25 ar   
    37   36   25 1    
    38   27   26 ar   
    39   37   26 1    
@<TRIPOS>SUBSTRUCTURE
     1 PLB1        1 GROUP   
@<TRIPOS>SET

