#    Name: 3ah5_FAD_5_INTS_M
#    Modification time : Tue Mar 25 11:54:38 2014

@<TRIPOS>MOLECULE
3ah5_FAD_5_INTS_M
  100     0    12     0     0
SMALL
NO_CHARGES


@<TRIPOS>ATOM
      1 NZ         22.0670   25.6025   49.2205 N.4       3 LYC4        0.0000 
      2 NZ         22.5940   26.3610   50.6790 N.4      11 LYL4        0.0000 
      3 NZ         21.5400   24.8440   47.7620 N.4       7 LYP4        0.0000 
      4 N          22.4425   25.4510   51.5780 N.am      2 SEC2        0.0000 
      5 N          22.5940   26.3610   50.6790 N.am     10 SEL2        0.0000 
      6 N          22.2910   24.5410   52.4770 N.am      6 SEP2        0.0000 
      7 CA         27.1330   29.8465   49.0405 C.3       4 GLC5        0.0000 
      8 CA         25.2990   29.4880   49.3050 C.3      12 GLL5        0.0000 
      9 CA         28.9670   30.2050   48.7760 C.3       8 GLP5        0.0000 
     10 CA         27.1385   28.0045   46.3785 C.3       4 GLC5        0.0000 
     11 CA         25.8190   29.0710   47.0200 C.3      12 GLL5        0.0000 
     12 CA         28.4580   26.9380   45.7370 C.3       8 GLP5        0.0000 
     13 CA         27.3930   29.6380   47.8980 C.3       4 GLC5        0.0000 
     14 CA         22.9885   26.0955   42.9780 C.3       4 GLC5        0.0000 
     15 CA         24.4970   25.4240   44.0000 C.3      12 GLL5        0.0000 
     16 CA         21.4800   26.7670   41.9560 C.3       8 GLP5        0.0000 
     17 CA         26.4310   25.6985   43.5090 C.3       4 GLC5        0.0000 
     18 CA         28.3650   25.9730   43.0180 C.3       8 GLP5        0.0000 
     19 N          24.6965   25.8390   41.5065 N.am      2 SEC2        0.0000 
     20 N          24.6470   26.1630   42.8600 N.am     10 SEL2        0.0000 
     21 N          24.7460   25.5150   40.1530 N.am      6 SEP2        0.0000 
     22 CA         23.2625   27.1175   42.4610 C.3       4 GLC5        0.0000 
     23 CA         25.0450   27.4680   42.9660 C.3      12 GLL5        0.0000 
     24 CA         26.7050   26.7205   42.9920 C.3       4 GLC5        0.0000 
     25 CA         23.6425   28.8490   43.1130 C.3       4 GLC5        0.0000 
     26 CA         22.2400   30.2300   43.2600 C.3       8 GLP5        0.0000 
     27 CA         26.5010   28.1380   41.5460 C.3       4 GLC5        0.0000 
     28 CA         27.9570   28.8080   40.1260 C.3       8 GLP5        0.0000 
     29 N          13.0585   25.0320   48.4830 N.am      2 SEC2        0.0000 
     30 N          12.4910   26.5860   47.9380 N.am     10 SEL2        0.0000 
     31 N          13.6260   23.4780   49.0280 N.am      6 SEP2        0.0000 
     32 N          11.4825   23.9770   45.9005 N.am      2 SEC2        0.0000 
     33 N          11.9780   24.8730   46.5510 N.am     10 SEL2        0.0000 
     34 N          10.9870   23.0810   45.2500 N.am      6 SEP2        0.0000 
     35 N          12.8020   24.1755   47.7895 N.am      2 SEC2        0.0000 
     36 N          13.5870   24.5860   47.0575 N.am      2 SEC2        0.0000 
     37 N          15.1960   24.2990   47.5640 N.am      6 SEP2        0.0000 
     38 O           9.4570   25.3160   46.7455 O.2       1 ALC1        0.0000 
     39 O          10.3320   26.4390   46.9520 O.2       9 ALL1        0.0000 
     40 O           8.5820   24.1930   46.5390 O.2       5 ALP1        0.0000 
     41 CA         11.4635   30.9555   47.9185 C.3       4 GLC5        0.0000 
     42 CA         11.3400   30.1650   49.8380 C.3      12 GLL5        0.0000 
     43 CA         11.5870   31.7460   45.9990 C.3       8 GLP5        0.0000 
     44 CA         10.5635   35.2110   52.4185 C.3       4 GLC5        0.0000 
     45 CA         11.3470   33.3380   52.0340 C.3      12 GLL5        0.0000 
     46 CA          9.7800   37.0840   52.8030 C.3       8 GLP5        0.0000 
     47 CA         10.7340   33.6320   54.0590 C.3       4 GLC5        0.0000 
     48 CA         10.1210   33.9260   56.0840 C.3       8 GLP5        0.0000 
     49 CA         11.7230   34.5640   50.6435 C.3       4 GLC5        0.0000 
     50 CA         12.0990   35.7900   49.2530 C.3       8 GLP5        0.0000 
     51 CA         15.8560   33.1135   53.1040 C.3       4 GLC5        0.0000 
     52 CA         14.1380   32.1770   52.5260 C.3      12 GLL5        0.0000 
     53 CA         17.5740   34.0500   53.6820 C.3       8 GLP5        0.0000 
     54 CA         14.6145   31.7520   54.4825 C.3       4 GLC5        0.0000 
     55 CA         15.0910   31.3270   56.4390 C.3       8 GLP5        0.0000 
     56 CA         11.2505   28.3025   50.7010 C.3       4 GLC5        0.0000 
     57 CA         12.6680   29.5990   50.0660 C.3      12 GLL5        0.0000 
     58 CA          9.8330   27.0060   51.3360 C.3       8 GLP5        0.0000 
     59 CA         12.9335   26.4270   50.1950 C.3       4 GLC5        0.0000 
     60 CA         14.2900   27.6110   49.4630 C.3      12 GLL5        0.0000 
     61 CA         11.5770   25.2430   50.9270 C.3       8 GLP5        0.0000 
     62 N          15.9170   28.4760   46.4430 N.am      2 SEC2        0.0000 
     63 N          15.1740   28.9140   47.7350 N.am     10 SEL2        0.0000 
     64 N          16.6600   28.0380   45.1510 N.am      6 SEP2        0.0000 
     65 O          15.0750   30.3905   47.6775 O.2       1 ALC1        0.0000 
     66 O          15.1740   28.9140   47.7350 O.2       9 ALL1        0.0000 
     67 O          14.9760   31.8670   47.6200 O.2       5 ALP1        0.0000 
     68 CA         16.5905   26.1010   50.6070 C.3       4 GLC5        0.0000 
     69 CA         16.7640   27.6620   49.0980 C.3      12 GLL5        0.0000 
     70 CA         16.4170   24.5400   52.1160 C.3       8 GLP5        0.0000 
     71 O          18.1795   26.0585   50.9420 O.2       1 ALC1        0.0000 
     72 O          16.9820   27.1800   50.4100 O.2       9 ALL1        0.0000 
     73 O          19.3770   24.9370   51.4740 O.2       5 ALP1        0.0000 
     74 N          17.1625   28.5970   46.2975 N.am      2 SEC2        0.0000 
     75 N          17.6650   29.1560   47.4440 N.am     10 SEL2        0.0000 
     76 N          17.4640   30.1965   46.8050 N.am      2 SEC2        0.0000 
     77 N          17.2630   31.2370   46.1660 N.am      6 SEP2        0.0000 
     78 N          20.6730   29.3355   47.1925 N.am      2 SEC2        0.0000 
     79 N          20.0360   29.1480   48.5430 N.am     10 SEL2        0.0000 
     80 N          21.3100   29.5230   45.8420 N.am      6 SEP2        0.0000 
     81 NZ         21.3275   31.3400   47.9485 N.4       3 LYC4        0.0000 
     82 NZ         21.4010   30.9490   49.4380 N.4      11 LYL4        0.0000 
     83 NZ         21.5040   30.8010   45.5470 N.4       7 LYP4        0.0000 
     84 N          22.0210   31.4245   50.7855 N.am      2 SEC2        0.0000 
     85 N          21.4010   30.9490   49.4380 N.am     10 SEL2        0.0000 
     86 N          22.6410   31.9000   52.1330 N.am      6 SEP2        0.0000 
     87 N          21.3275   31.3400   47.9485 N.am      2 SEC2        0.0000 
     88 N          21.2540   31.7310   46.4590 N.am      6 SEP2        0.0000 
     89 CA         25.9375   27.1965   50.0172 C.3       4 GLC5        0.0000 
     90 CA         26.7640   25.5390   50.3480 C.3       8 GLP5        0.0000 
     91 CA         26.7100   26.8250   45.4873 C.3       4 GLC5        0.0000 
     92 CA         25.1580   27.3630   45.2240 C.3      12 GLL5        0.0000 
     93 CA         10.2372   29.5097   51.0968 C.3       4 GLC5        0.0000 
     94 CA          9.3200   28.2440   52.0220 C.3       8 GLP5        0.0000 
     95 CA         13.7865   33.2614   50.4966 C.3       4 GLC5        0.0000 
     96 CA         11.8360   32.0430   51.3620 C.3      12 GLL5        0.0000 
     97 CA         14.2610   34.5450   48.9890 C.3       8 GLP5        0.0000 
     98 CA         18.1804   28.0497   46.8870 C.3       4 GLC5        0.0000 
     99 CA         17.8850   28.6140   48.7580 C.3      12 GLL5        0.0000 
    100 CA         18.0660   28.0380   44.9300 C.3       8 GLP5        0.0000 
@<TRIPOS>BOND
@<TRIPOS>SUBSTRUCTURE
     1 ALC1       38 GROUP        1 X    ALC  0     ROOT ALC X 1
     2 SEC2        4 GROUP        1 X    SEC  0     **** SEC X 2
     3 LYC4        1 GROUP        1 X    LYC  0     **** LYC X 4
     4 GLC5        7 GROUP        1 X    GLC  0     **** GLC X 6
     5 ALP1       40 GROUP        1 Y    ALP  0     ROOT ALP Y 8
     6 SEP2        6 GROUP        1 Y    SEP  0     **** SEP Y 9
     7 LYP4        3 GROUP        1 Y    LYP  0     **** LYP Y 11
     8 GLP5        9 GROUP        1 Y    GLP  0     **** GLP Y 13
     9 ALL1       39 GROUP        1 Z    ALL  0     ROOT ALL Z 15
    10 SEL2        5 GROUP        1 Z    SEL  0     **** SEL Z 16
    11 LYL4        2 GROUP        1 Z    LYL  0     **** LYL Z 18
    12 GLL5        8 GROUP        1 Z    GLL  0     **** GLL Z 20
@<TRIPOS>SET

