#    Name: 3ah5_FAD_5_ligand
#    Modification time : Tue Mar 25 11:54:38 2014

@<TRIPOS>MOLECULE
3ah5_FAD_5_ligand
   84    89     1     0     0
SMALL
NO_CHARGES


@<TRIPOS>ATOM
      1 PA         22.6640   27.7970   51.1450 P.3       1 FAD240      0.0000 
      2 O1A        21.9560   28.1810   52.4280 O.co2     1 FAD240      0.0000 
      3 O2A        22.5940   26.3610   50.6790 O.co2     1 FAD240      0.0000 
      4 O5B        24.0140   28.4110   51.1180 O.3       1 FAD240      0.0000 
      5 C5B        24.9230   28.2200   50.0680 C.3       1 FAD240      0.0000 
      6 C4B        25.2990   29.4880   49.3050 C.3       1 FAD240      0.0000 
      7 O4B        26.2360   28.9030   48.3730 O.3       1 FAD240      0.0000 
      8 C3B        24.2000   30.1350   48.4260 C.3       1 FAD240      0.0000 
      9 O3B        23.7850   31.4170   48.8690 O.3       1 FAD240      0.0000 
     10 C2B        24.8110   30.1940   47.0310 C.3       1 FAD240      0.0000 
     11 O2B        25.3820   31.4280   46.6480 O.3       1 FAD240      0.0000 
     12 C1B        25.8190   29.0710   47.0200 C.3       1 FAD240      0.0000 
     13 N9A        25.3680   27.7510   46.5410 N.pl3     1 FAD240      0.0000 
     14 C8A        25.0670   26.6180   47.2610 C.2       1 FAD240      0.0000 
     15 N7A        24.7040   25.5900   46.5490 N.2       1 FAD240      0.0000 
     16 C5A        24.7660   26.0610   45.2510 C.ar      1 FAD240      0.0000 
     17 C6A        24.4970   25.4240   44.0000 C.ar      1 FAD240      0.0000 
     18 N6A        24.1140   24.1420   43.9370 N.pl3     1 FAD240      0.0000 
     19 N1A        24.6470   26.1630   42.8600 N.ar      1 FAD240      0.0000 
     20 C2A        25.0450   27.4680   42.9660 C.ar      1 FAD240      0.0000 
     21 N3A        25.3280   28.1620   44.0860 N.ar      1 FAD240      0.0000 
     22 C4A        25.1580   27.3630   45.2240 C.ar      1 FAD240      0.0000 
     23 N1         12.4910   26.5860   47.9380 N.2       1 FAD240      0.0000 
     24 C2         11.6440   25.9350   47.1260 C.2       1 FAD240      0.0000 
     25 O2         11.9780   24.8730   46.5510 O.2       1 FAD240      0.0000 
     26 N3         10.3320   26.4390   46.9520 N.am      1 FAD240      0.0000 
     27 C4          9.8500   27.6330   47.5360 C.2       1 FAD240      0.0000 
     28 O4          8.6700   27.9990   47.3330 O.2       1 FAD240      0.0000 
     29 C4X        10.7880   28.3290   48.3510 C.2       1 FAD240      0.0000 
     30 N5         10.4100   29.5410   48.9930 N.2       1 FAD240      0.0000 
     31 C5X        11.3400   30.1650   49.8380 C.ar      1 FAD240      0.0000 
     32 C6         10.9690   31.3860   50.5050 C.ar      1 FAD240      0.0000 
     33 C7         11.8360   32.0430   51.3620 C.ar      1 FAD240      0.0000 
     34 C7M        11.3470   33.3380   52.0340 C.3       1 FAD240      0.0000 
     35 C8         13.1360   31.5140   51.6030 C.ar      1 FAD240      0.0000 
     36 C8M        14.1380   32.1770   52.5260 C.3       1 FAD240      0.0000 
     37 C9         13.5280   30.2900   50.9430 C.ar      1 FAD240      0.0000 
     38 C9A        12.6680   29.5990   50.0660 C.ar      1 FAD240      0.0000 
     39 N10        13.0070   28.3430   49.3680 N.pl3     1 FAD240      0.0000 
     40 C10        12.0830   27.7520   48.5420 C.2       1 FAD240      0.0000 
     41 C1'        14.2900   27.6110   49.4630 C.3       1 FAD240      0.0000 
     42 C2'        15.4540   28.4390   49.0490 C.3       1 FAD240      0.0000 
     43 O2'        15.1740   28.9140   47.7350 O.3       1 FAD240      0.0000 
     44 C3'        16.7640   27.6620   49.0980 C.3       1 FAD240      0.0000 
     45 O3'        16.9820   27.1800   50.4100 O.3       1 FAD240      0.0000 
     46 C4'        17.8850   28.6140   48.7580 C.3       1 FAD240      0.0000 
     47 O4'        17.6650   29.1560   47.4440 O.3       1 FAD240      0.0000 
     48 C5'        19.2650   27.9850   48.7600 C.3       1 FAD240      0.0000 
     49 O5'        20.0360   29.1480   48.5430 O.3       1 FAD240      0.0000 
     50 P          20.7970   29.6660   49.7910 P.3       1 FAD240      0.0000 
     51 O1P        21.4010   30.9490   49.4380 O.co2     1 FAD240      0.0000 
     52 O2P        19.8710   29.5650   50.9630 O.co2     1 FAD240      0.0000 
     53 O3P        21.9650   28.5920   49.9720 O.3       1 FAD240      0.0000 
     54 H          24.5338   27.4903   49.3105 H         1 FAD240      0.0000 
     55 H          25.8818   27.7630   50.4279 H         1 FAD240      0.0000 
     56 H          25.7696   30.1682   49.9160 H         1 FAD240      0.0000 
     57 H          23.3820   29.4210   48.3780 H         1 FAD240      0.0000 
     58 H          24.0107   29.8789   46.3337 H         1 FAD240      0.0000 
     59 H          26.6861   29.3958   46.4366 H         1 FAD240      0.0000 
     60 H          25.1345   26.6211   48.2725 H         1 FAD240      0.0000 
     61 H          23.9596   23.7734   43.0203 H         1 FAD240      0.0000 
     62 H          24.0167   23.6683   44.8123 H         1 FAD240      0.0000 
     63 H          25.1435   28.0091   42.0187 H         1 FAD240      0.0000 
     64 H           9.6718   25.8867   46.3469 H         1 FAD240      0.0000 
     65 H          10.0233   31.7641   50.3236 H         1 FAD240      0.0000 
     66 H          14.4741   29.9207   51.1301 H         1 FAD240      0.0000 
     67 H          14.2455   26.7031   48.8323 H         1 FAD240      0.0000 
     68 H          14.4412   27.2629   50.5022 H         1 FAD240      0.0000 
     69 H          15.5320   29.2818   49.7381 H         1 FAD240      0.0000 
     70 H          16.7348   26.8871   48.3749 H         1 FAD240      0.0000 
     71 H          17.8850   29.4288   49.4831 H         1 FAD240      0.0000 
     72 H          19.3227   27.2968   47.9585 H         1 FAD240      0.0000 
     73 H          19.4351   27.5489   49.7088 H         1 FAD240      0.0000 
     74 H          12.0463   33.7348   52.6287 H         1 FAD240      0.0000 
     75 H          11.1037   34.0366   51.3611 H         1 FAD240      0.0000 
     76 H          10.5370   33.1803   52.5988 H         1 FAD240      0.0000 
     77 H          14.9945   31.6632   52.5748 H         1 FAD240      0.0000 
     78 H          14.3677   33.1016   52.2221 H         1 FAD240      0.0000 
     79 H          13.7886   32.2538   53.4598 H         1 FAD240      0.0000 
     80 H          22.8112   31.4649   48.6466 H         1 FAD240      0.0000 
     81 H          24.8710   32.1192   47.1590 H         1 FAD240      0.0000 
     82 H          15.0561   29.9018   47.8366 H         1 FAD240      0.0000 
     83 H          17.7695   26.5685   50.3334 H         1 FAD240      0.0000 
     84 H          16.7315   29.5139   47.4648 H         1 FAD240      0.0000 
@<TRIPOS>BOND
     1    2    1 ar   
     2    3    1 ar   
     3    4    1 1    
     4   53    1 1    
     5    5    4 1    
     6    6    5 1    
     7   54    5 1    
     8   55    5 1    
     9    7    6 1    
    10    8    6 1    
    11   56    6 1    
    12   12    7 1    
    13    9    8 1    
    14   10    8 1    
    15   57    8 1    
    16   80    9 1    
    17   11   10 1    
    18   12   10 1    
    19   58   10 1    
    20   81   11 1    
    21   13   12 1    
    22   59   12 1    
    23   14   13 1    
    24   22   13 1    
    25   15   14 2    
    26   60   14 1    
    27   16   15 1    
    28   17   16 ar   
    29   22   16 ar   
    30   18   17 1    
    31   19   17 ar   
    32   61   18 1    
    33   62   18 1    
    34   20   19 ar   
    35   21   20 ar   
    36   63   20 1    
    37   22   21 ar   
    38   24   23 1    
    39   40   23 2    
    40   25   24 2    
    41   26   24 am   
    42   27   26 am   
    43   64   26 1    
    44   28   27 2    
    45   29   27 1    
    46   30   29 2    
    47   40   29 1    
    48   31   30 1    
    49   32   31 ar   
    50   38   31 ar   
    51   33   32 ar   
    52   65   32 1    
    53   34   33 1    
    54   35   33 ar   
    55   74   34 1    
    56   75   34 1    
    57   76   34 1    
    58   36   35 1    
    59   37   35 ar   
    60   77   36 1    
    61   78   36 1    
    62   79   36 1    
    63   38   37 ar   
    64   66   37 1    
    65   39   38 1    
    66   40   39 1    
    67   41   39 1    
    68   42   41 1    
    69   67   41 1    
    70   68   41 1    
    71   43   42 1    
    72   44   42 1    
    73   69   42 1    
    74   82   43 1    
    75   45   44 1    
    76   46   44 1    
    77   70   44 1    
    78   83   45 1    
    79   47   46 1    
    80   48   46 1    
    81   71   46 1    
    82   84   47 1    
    83   49   48 1    
    84   72   48 1    
    85   73   48 1    
    86   50   49 1    
    87   51   50 ar   
    88   52   50 ar   
    89   53   50 1    
@<TRIPOS>SUBSTRUCTURE
     1 FAD240      1 GROUP   
@<TRIPOS>SET

