#    Name: 3b1m_KRC_1_INTS_M
#    Modification time : Mon Mar 24 18:37:38 2014

@<TRIPOS>MOLECULE
3b1m_KRC_1_INTS_M
   87     0     3     0     0
SMALL
NO_CHARGES


@<TRIPOS>ATOM
      1 CA         13.8430   51.0995   64.4960 C.3       1 GLC5        0.0000 
      2 CA         15.7740   50.8300   64.6170 C.3       3 GLL5        0.0000 
      3 CA         11.9120   51.3690   64.3750 C.3       2 GLP5        0.0000 
      4 CA         15.2535   52.6540   62.3100 C.3       1 GLC5        0.0000 
      5 CA         15.9890   50.6360   62.1930 C.3       3 GLL5        0.0000 
      6 CA         14.5180   54.6720   62.4270 C.3       2 GLP5        0.0000 
      7 CA         14.1695   46.2750   61.0960 C.3       1 GLC5        0.0000 
      8 CA         13.4550   48.1580   61.7360 C.3       3 GLL5        0.0000 
      9 CA         14.8840   44.3920   60.4560 C.3       2 GLP5        0.0000 
     10 CA          9.7470   46.7290   64.3355 C.3       1 GLC5        0.0000 
     11 CA         11.6630   46.6650   63.2530 C.3       3 GLL5        0.0000 
     12 CA          7.8310   46.7930   65.4180 C.3       2 GLP5        0.0000 
     13 CA         17.0600   46.1805   64.4295 C.3       1 GLC5        0.0000 
     14 CA         16.1410   47.7400   63.5900 C.3       3 GLL5        0.0000 
     15 CA         17.9790   44.6210   65.2690 C.3       2 GLP5        0.0000 
     16 CA         15.3700   45.6745   63.2325 C.3       1 GLC5        0.0000 
     17 CA         14.5990   43.6090   62.8750 C.3       2 GLP5        0.0000 
     18 CA          8.5065   46.2630   63.6575 C.3       1 GLC5        0.0000 
     19 CA          9.1820   45.7330   61.8970 C.3       3 GLL5        0.0000 
     20 CA          8.6760   47.3825   61.6015 C.3       1 GLC5        0.0000 
     21 CA          8.1700   49.0320   61.3060 C.3       2 GLP5        0.0000 
     22 CA          9.6545   44.3960   63.2715 C.3       1 GLC5        0.0000 
     23 CA         10.1270   43.0590   64.6460 C.3       2 GLP5        0.0000 
     24 CA          8.0355   44.7075   62.7580 C.3       1 GLC5        0.0000 
     25 CA          6.8890   43.6820   63.6190 C.3       2 GLP5        0.0000 
     26 CA         12.1465   49.3420   57.4875 C.3       1 GLC5        0.0000 
     27 CA         10.5550   48.0910   57.8540 C.3       3 GLL5        0.0000 
     28 CA         13.7380   50.5930   57.1210 C.3       2 GLP5        0.0000 
     29 CA         10.2300   47.1965   56.1160 C.3       1 GLC5        0.0000 
     30 CA          9.9050   46.3020   54.3780 C.3       2 GLP5        0.0000 
     31 CA          4.6225   49.3520   56.6060 C.3       1 GLC5        0.0000 
     32 CA          6.4310   49.2540   57.3420 C.3       3 GLL5        0.0000 
     33 CA          2.8140   49.4500   55.8700 C.3       2 GLP5        0.0000 
     34 CA          4.9780   45.7975   56.4625 C.3       1 GLC5        0.0000 
     35 CA          6.0340   45.7080   58.1710 C.3       3 GLL5        0.0000 
     36 CA          3.9220   45.8870   54.7540 C.3       2 GLP5        0.0000 
     37 CA          7.2195   43.9140   59.8770 C.3       1 GLC5        0.0000 
     38 CA          7.3670   45.3190   58.3370 C.3       3 GLL5        0.0000 
     39 CA          7.0720   42.5090   61.4170 C.3       2 GLP5        0.0000 
     40 CA          9.8765   51.0610   59.1670 C.3       1 GLC5        0.0000 
     41 CA          9.8750   50.8470   57.1500 C.3       3 GLL5        0.0000 
     42 CA          9.8780   51.2750   61.1840 C.3       2 GLP5        0.0000 
     43 CA          9.4080   51.2545   54.1320 C.3       1 GLC5        0.0000 
     44 CA         10.3990   50.8580   55.7130 C.3       3 GLL5        0.0000 
     45 CA          8.4170   51.6510   52.5510 C.3       2 GLP5        0.0000 
     46 CA         14.6060   50.6945   60.3170 C.3       1 GLC5        0.0000 
     47 CA         15.2070   49.5540   62.1390 C.3       3 GLL5        0.0000 
     48 CA         13.6140   51.2940   58.4680 C.3       2 GLP5        0.0000 
     49 CA         13.5023   50.2507   63.5720 C.3       1 GLC5        0.0000 
     50 CA         10.0308   48.1255   61.4095 C.3       1 GLC5        0.0000 
     51 CA         11.4420   46.8460   61.8930 C.3       3 GLL5        0.0000 
     52 CA         12.6457   45.7220   60.8395 C.3       1 GLC5        0.0000 
     53 CA         13.4000   44.2250   60.1660 C.3       2 GLP5        0.0000 
     54 CA         13.5221   45.3699   63.1232 C.3       1 GLC5        0.0000 
     55 CA         11.9633   45.0795   64.5312 C.3       1 GLC5        0.0000 
     56 CA         12.7740   47.2230   63.8640 C.3       3 GLL5        0.0000 
     57 CA         11.7080   43.2150   65.5040 C.3       2 GLP5        0.0000 
     58 CA         12.5415   49.5062   63.7600 C.3       1 GLC5        0.0000 
     59 CA          9.0035   48.6645   59.5343 C.3       1 GLC5        0.0000 
     60 CA          8.2310   48.0857   55.8975 C.3       1 GLC5        0.0000 
     61 CA          9.1190   48.5030   57.6710 C.3       3 GLL5        0.0000 
     62 CA          7.5080   47.0070   54.2920 C.3       2 GLP5        0.0000 
     63 CA          8.2720   50.4105   59.1492 C.3       1 GLC5        0.0000 
     64 CA          8.7890   49.8260   57.3350 C.3       3 GLL5        0.0000 
     65 CA          8.4250   50.8090   61.0450 C.3       2 GLP5        0.0000 
     66 CA          7.2240   48.3665   55.7745 C.3       1 GLC5        0.0000 
     67 CA          7.4490   50.1980   57.1720 C.3       3 GLL5        0.0000 
     68 CA          7.3800   48.8178   59.4065 C.3       1 GLC5        0.0000 
     69 CA          7.4642   47.3840   56.0235 C.3       1 GLC5        0.0000 
     70 CA          6.7490   47.9530   57.6720 C.3       3 GLL5        0.0000 
     71 CA          5.0750   47.4567   56.3077 C.3       1 GLC5        0.0000 
     72 CA          3.9100   47.4200   54.8610 C.3       2 GLP5        0.0000 
     73 CA          8.2073   47.9720   59.6547 C.3       1 GLC5        0.0000 
     74 CA          8.0920   47.5690   57.8380 C.3       3 GLL5        0.0000 
     75 CA          6.6952   46.6890   56.1480 C.3       1 GLC5        0.0000 
     76 CA          5.7310   47.0340   57.8370 C.3       3 GLL5        0.0000 
     77 CA          5.3572   46.6865   59.8580 C.3       1 GLC5        0.0000 
     78 CA          4.8320   47.0020   61.7120 C.3       2 GLP5        0.0000 
     79 CA          7.6950   46.3970   56.2725 C.3       1 GLC5        0.0000 
     80 CA          8.9345   44.0025   58.5175 C.3       1 GLC5        0.0000 
     81 CA          8.3970   46.2550   58.1690 C.3       3 GLL5        0.0000 
     82 CA          9.9870   42.2180   58.7820 C.3       2 GLP5        0.0000 
     83 CA          7.2644   44.6361   56.7157 C.3       1 GLC5        0.0000 
     84 CA          6.9800   43.3880   55.2200 C.3       2 GLP5        0.0000 
     85 CA         11.9375   50.7227   56.7763 C.3       1 GLC5        0.0000 
     86 CA         10.7595   52.7533   56.4308 C.3       1 GLC5        0.0000 
     87 CA         11.3820   54.6540   56.4300 C.3       2 GLP5        0.0000 
@<TRIPOS>BOND
@<TRIPOS>SUBSTRUCTURE
     1 GLC5        1 GROUP        1 X    GLC  0     ROOT GLC X 6
     2 GLP5        3 GROUP        1 Y    GLP  0     ROOT GLP Y 13
     3 GLL5        2 GROUP        1 Z    GLL  0     ROOT GLL Z 20
@<TRIPOS>SET

