#    Name: 3b1m_KRC_1_ligand
#    Modification time : Mon Mar 24 18:37:39 2014

@<TRIPOS>MOLECULE
3b1m_KRC_1_ligand
   64    68     1     0     0
SMALL
NO_CHARGES


@<TRIPOS>ATOM
      1 C1         15.7740   50.8300   64.6170 C.2       1 KRC1        0.0000 
      2 C2         16.1630   51.3720   63.4670 C.2       1 KRC1        0.0000 
      3 C3         15.9890   50.6360   62.1930 C.2       1 KRC1        0.0000 
      4 C4         15.2070   49.5540   62.1390 C.2       1 KRC1        0.0000 
      5 C5         14.9780   48.7110   63.3990 C.3       1 KRC1        0.0000 
      6 C6         14.8810   49.6450   64.6160 C.2       1 KRC1        0.0000 
      7 O7         14.4690   48.9240   61.2220 O.3       1 KRC1        0.0000 
      8 C8         13.4550   48.1580   61.7360 C.ar      1 KRC1        0.0000 
      9 C9         13.6810   47.9700   63.1160 C.ar      1 KRC1        0.0000 
     10 C10        12.3410   47.5920   61.1330 C.ar      1 KRC1        0.0000 
     11 C11        11.4420   46.8460   61.8930 C.ar      1 KRC1        0.0000 
     12 C12        11.6630   46.6650   63.2530 C.ar      1 KRC1        0.0000 
     13 C13        12.7740   47.2230   63.8640 C.ar      1 KRC1        0.0000 
     14 O14        14.1550   49.4080   65.5780 O.2       1 KRC1        0.0000 
     15 O15        12.9800   47.0320   65.2130 O.3       1 KRC1        0.0000 
     16 O16        10.3340   46.2800   61.2970 O.3       1 KRC1        0.0000 
     17 C17        12.1040   47.7790   59.6940 C.2       1 KRC1        0.0000 
     18 N18        10.8360   47.9200   59.2710 N.am      1 KRC1        0.0000 
     19 C19        16.1410   47.7400   63.5900 C.3       1 KRC1        0.0000 
     20 O20        13.0450   47.7900   58.9090 O.2       1 KRC1        0.0000 
     21 C21        16.2490   51.3830   65.9010 C.2       1 KRC1        0.0000 
     22 O22        16.7400   52.5980   63.4560 O.co2     1 KRC1        0.0000 
     23 C23        17.7510   51.5090   66.1720 C.3       1 KRC1        0.0000 
     24 O24        15.4430   51.7390   66.7480 O.2       1 KRC1        0.0000 
     25 C25         9.1820   45.7330   61.8970 C.3       1 KRC1        0.0000 
     26 C26        10.5550   48.0910   57.8540 C.3       1 KRC1        0.0000 
     27 C27         9.1190   48.5030   57.6710 C.ar      1 KRC1        0.0000 
     28 C28         8.7890   49.8260   57.3350 C.ar      1 KRC1        0.0000 
     29 C29         7.4490   50.1980   57.1720 C.ar      1 KRC1        0.0000 
     30 C30         6.4310   49.2540   57.3420 C.ar      1 KRC1        0.0000 
     31 C31         6.7490   47.9530   57.6720 C.ar      1 KRC1        0.0000 
     32 C32         8.0920   47.5690   57.8380 C.ar      1 KRC1        0.0000 
     33 C33         5.7310   47.0340   57.8370 C.ar      1 KRC1        0.0000 
     34 C34         6.0340   45.7080   58.1710 C.ar      1 KRC1        0.0000 
     35 C35         7.3670   45.3190   58.3370 C.ar      1 KRC1        0.0000 
     36 C36         8.3970   46.2550   58.1690 C.ar      1 KRC1        0.0000 
     37 C37         9.8750   50.8470   57.1500 C.3       1 KRC1        0.0000 
     38 C38        10.3990   50.8580   55.7130 C.3       1 KRC1        0.0000 
     39 H          16.4989   51.0102   61.3839 H         1 KRC1        0.0000 
     40 H          10.9935   46.1106   63.8101 H         1 KRC1        0.0000 
     41 H          10.0313   47.9137   59.9092 H         1 KRC1        0.0000 
     42 H          10.7255   47.1576   57.3087 H         1 KRC1        0.0000 
     43 H          11.2001   48.8612   57.4202 H         1 KRC1        0.0000 
     44 H           7.2136   51.1669   56.9269 H         1 KRC1        0.0000 
     45 H           5.4507   49.5377   57.2194 H         1 KRC1        0.0000 
     46 H           4.7497   47.3144   57.7167 H         1 KRC1        0.0000 
     47 H           5.2802   45.0253   58.2932 H         1 KRC1        0.0000 
     48 H           7.5926   44.3493   58.5817 H         1 KRC1        0.0000 
     49 H           9.3733   45.9640   58.2917 H         1 KRC1        0.0000 
     50 H          10.7081   50.6296   57.8262 H         1 KRC1        0.0000 
     51 H           9.4926   51.8438   57.3923 H         1 KRC1        0.0000 
     52 H          17.0124   48.2198   63.6922 H         1 KRC1        0.0000 
     53 H          16.0213   47.1729   64.4049 H         1 KRC1        0.0000 
     54 H          16.2378   47.1189   62.8123 H         1 KRC1        0.0000 
     55 H          18.2100   50.6211   66.1398 H         1 KRC1        0.0000 
     56 H          18.2017   52.0964   65.4998 H         1 KRC1        0.0000 
     57 H          17.9341   51.9011   67.0735 H         1 KRC1        0.0000 
     58 H           9.4055   44.9684   62.5015 H         1 KRC1        0.0000 
     59 H           8.6936   46.4094   62.4483 H         1 KRC1        0.0000 
     60 H           8.5361   45.3888   61.2155 H         1 KRC1        0.0000 
     61 H          11.1208   51.5383   55.5861 H         1 KRC1        0.0000 
     62 H          10.7817   49.9722   55.4504 H         1 KRC1        0.0000 
     63 H           9.6762   51.0715   55.0557 H         1 KRC1        0.0000 
     64 H          13.4269   47.8695   65.5276 H         1 KRC1        0.0000 
@<TRIPOS>BOND
     1    2    1 2    
     2    6    1 1    
     3   21    1 1    
     4    3    2 1    
     5   22    2 ar   
     6    4    3 2    
     7   39    3 1    
     8    5    4 1    
     9    7    4 1    
    10    6    5 1    
    11    9    5 1    
    12   19    5 1    
    13   14    6 2    
    14    8    7 1    
    15    9    8 ar   
    16   10    8 ar   
    17   13    9 ar   
    18   11   10 ar   
    19   17   10 1    
    20   12   11 ar   
    21   16   11 1    
    22   13   12 ar   
    23   40   12 1    
    24   15   13 1    
    25   64   15 1    
    26   25   16 1    
    27   18   17 am   
    28   20   17 2    
    29   26   18 1    
    30   41   18 1    
    31   52   19 1    
    32   53   19 1    
    33   54   19 1    
    34   23   21 1    
    35   24   21 2    
    36   55   23 1    
    37   56   23 1    
    38   57   23 1    
    39   58   25 1    
    40   59   25 1    
    41   60   25 1    
    42   27   26 1    
    43   42   26 1    
    44   43   26 1    
    45   28   27 ar   
    46   32   27 ar   
    47   29   28 ar   
    48   37   28 1    
    49   30   29 ar   
    50   44   29 1    
    51   31   30 ar   
    52   45   30 1    
    53   32   31 ar   
    54   33   31 ar   
    55   36   32 ar   
    56   34   33 ar   
    57   46   33 1    
    58   35   34 ar   
    59   47   34 1    
    60   36   35 ar   
    61   48   35 1    
    62   49   36 1    
    63   38   37 1    
    64   50   37 1    
    65   51   37 1    
    66   61   38 1    
    67   62   38 1    
    68   63   38 1    
@<TRIPOS>SUBSTRUCTURE
     1 KRC1        1 GROUP   
@<TRIPOS>SET

