#    Name: 2b03_TUD_1_INTS_M
#    Modification time : Mon Mar 24 19:46:05 2014

@<TRIPOS>MOLECULE
2b03_TUD_1_INTS_M
   79     0     9     0     0
SMALL
NO_CHARGES


@<TRIPOS>ATOM
      1 CA         -2.7180   34.3840    4.5660 C.3       3 GLC5        0.0000 
      2 CA         -0.9170   35.2550    5.2040 C.3       9 GLL5        0.0000 
      3 CA         -4.5190   33.5130    3.9280 C.3       6 GLP5        0.0000 
      4 CA          0.8000   32.6975    6.3815 C.3       3 GLC5        0.0000 
      5 CA         -0.5900   34.3020    6.4430 C.3       9 GLL5        0.0000 
      6 CA          2.1900   31.0930    6.3200 C.3       6 GLP5        0.0000 
      7 N          -0.4825   33.7495    9.9095 N.am      2 SEC2        0.0000 
      8 N           0.4200   34.2210    8.6790 N.am      8 SEL2        0.0000 
      9 N          -1.3850   33.2780   11.1400 N.am      5 SEP2        0.0000 
     10 CA          2.8775   34.0950    6.9990 C.3       3 GLC5        0.0000 
     11 CA          1.4620   35.7700    7.0500 C.3       9 GLL5        0.0000 
     12 CA          4.2930   32.4200    6.9480 C.3       6 GLP5        0.0000 
     13 O           5.1160   34.4830    5.2685 O.2       1 ALC1        0.0000 
     14 O           4.1400   35.5170    5.4320 O.2       7 ALL1        0.0000 
     15 O           6.0920   33.4490    5.1050 O.2       4 ALP1        0.0000 
     16 CA          2.4990   37.3850    2.0425 C.3       3 GLC5        0.0000 
     17 CA          2.7420   35.6420    3.3490 C.3       9 GLL5        0.0000 
     18 CA          2.2560   39.1280    0.7360 C.3       6 GLP5        0.0000 
     19 CA          2.3555   31.4900    3.6860 C.3       3 GLC5        0.0000 
     20 CA          1.8780   33.0820    2.2090 C.3       9 GLL5        0.0000 
     21 CA          2.8330   29.8980    5.1630 C.3       6 GLP5        0.0000 
     22 CA          5.4715   36.9610    1.4220 C.3       3 GLC5        0.0000 
     23 CA          5.0730   35.2430    2.0080 C.3       9 GLL5        0.0000 
     24 CA          5.8700   38.6790    0.8360 C.3       6 GLP5        0.0000 
     25 CA          6.5000   35.9505    0.0615 C.3       3 GLC5        0.0000 
     26 CA          5.3920   34.2040    0.8450 C.3       9 GLL5        0.0000 
     27 CA          7.6080   37.6970   -0.7220 C.3       6 GLP5        0.0000 
     28 CA          5.3905   34.6625   -1.1890 C.3       3 GLC5        0.0000 
     29 CA          5.3890   35.1210   -3.2230 C.3       6 GLP5        0.0000 
     30 CA          7.3190   34.3280    0.1660 C.3       3 GLC5        0.0000 
     31 CA          9.2460   34.4520   -0.5130 C.3       6 GLP5        0.0000 
     32 CA          2.1915   36.6000   -0.3340 C.3       3 GLC5        0.0000 
     33 CA          2.5360   34.6560    0.2760 C.3       9 GLL5        0.0000 
     34 CA          1.8470   38.5440   -0.9440 C.3       6 GLP5        0.0000 
     35 CA          2.7310   34.7595   -1.6370 C.3       3 GLC5        0.0000 
     36 CA          2.9260   34.8630   -3.5500 C.3       6 GLP5        0.0000 
     37 CA          1.2260   36.2670   -0.2925 C.3       3 GLC5        0.0000 
     38 CA         -0.0840   37.8780   -0.8610 C.3       6 GLP5        0.0000 
     39 CA          0.6070   34.5285   -0.3445 C.3       3 GLC5        0.0000 
     40 CA         -1.3220   34.4010   -0.9650 C.3       6 GLP5        0.0000 
     41 CA          0.4795   38.5665    2.4905 C.3       3 GLC5        0.0000 
     42 CA         -0.2770   37.0440    3.6400 C.3       9 GLL5        0.0000 
     43 CA          1.2360   40.0890    1.3410 C.3       6 GLP5        0.0000 
     44 CA          0.1170   38.8830    4.3145 C.3       3 GLC5        0.0000 
     45 CA          0.5110   40.7220    4.9890 C.3       6 GLP5        0.0000 
     46 CA          1.7375   29.9265    0.5925 C.3       3 GLC5        0.0000 
     47 CA          3.0330   30.9870   -0.3740 C.3       9 GLL5        0.0000 
     48 CA          0.4420   28.8660    1.5590 C.3       6 GLP5        0.0000 
     49 CA          2.5360   29.3585   -1.3790 C.3       3 GLC5        0.0000 
     50 CA          2.0390   27.7300   -2.3840 C.3       6 GLP5        0.0000 
     51 CA          1.7450   31.0635   -1.7525 C.3       3 GLC5        0.0000 
     52 CA          0.4570   31.1400   -3.1310 C.3       6 GLP5        0.0000 
     53 CA          7.7155   32.4720   -1.6080 C.3       3 GLC5        0.0000 
     54 CA          6.6190   31.0740   -1.5130 C.3       9 GLL5        0.0000 
     55 CA          8.8120   33.8700   -1.7030 C.3       6 GLP5        0.0000 
     56 CA          8.4100   30.5695   -3.9885 C.3       3 GLC5        0.0000 
     57 CA          7.5820   28.5080   -4.1170 C.3       9 GLL5        0.0000 
     58 CA          9.2380   32.6310   -3.8600 C.3       6 GLP5        0.0000 
     59 CA         -0.7107   32.9425    7.6322 C.3       3 GLC5        0.0000 
     60 CA         -1.1880   31.1760    8.2600 C.3       6 GLP5        0.0000 
     61 CA         -2.2066   35.1671    7.4869 C.3       3 GLC5        0.0000 
     62 CA          0.1230   35.1160    7.5660 C.3       9 GLL5        0.0000 
     63 CA         -4.0980   35.3870    8.2790 C.3       6 GLP5        0.0000 
     64 CA          1.1705   38.9103    5.2570 C.3       3 GLC5        0.0000 
     65 CA          1.1720   36.7460    5.8250 C.3       9 GLL5        0.0000 
     66 CA          4.3137   38.5080    5.0460 C.3       3 GLC5        0.0000 
     67 CA          2.4880   37.4510    5.2250 C.3       9 GLL5        0.0000 
     68 CA          5.6480   40.0590    5.2160 C.3       6 GLP5        0.0000 
     69 CA         -0.0330   32.3120    2.5815 C.3       3 GLC5        0.0000 
     70 CA          0.7420   34.0460    2.6910 C.3       9 GLL5        0.0000 
     71 CA         -1.3760   31.0600    2.7130 C.3       6 GLP5        0.0000 
     72 CA         -0.0365   33.3375    0.9960 C.3       3 GLC5        0.0000 
     73 CA         -1.3830   33.1110   -0.4580 C.3       6 GLP5        0.0000 
     74 CA          6.0953   32.4333    2.1898 C.3       3 GLC5        0.0000 
     75 CA          4.3850   32.9330    1.0940 C.3       9 GLL5        0.0000 
     76 CA          7.3020   31.2980    3.4100 C.3       6 GLP5        0.0000 
     77 CA          7.3797   31.0905    0.1930 C.3       3 GLC5        0.0000 
     78 CA          5.5360   31.0080   -0.3270 C.3       9 GLL5        0.0000 
     79 CA          8.6820   31.1400    1.3060 C.3       6 GLP5        0.0000 
@<TRIPOS>BOND
@<TRIPOS>SUBSTRUCTURE
     1 ALC1       13 GROUP        1 X    ALC  0     ROOT ALC X 1
     2 SEC2        7 GROUP        1 X    SEC  0     **** SEC X 2
     3 GLC5        1 GROUP        1 X    GLC  0     **** GLC X 6
     4 ALP1       15 GROUP        1 Y    ALP  0     ROOT ALP Y 8
     5 SEP2        9 GROUP        1 Y    SEP  0     **** SEP Y 9
     6 GLP5        3 GROUP        1 Y    GLP  0     **** GLP Y 13
     7 ALL1       14 GROUP        1 Z    ALL  0     ROOT ALL Z 15
     8 SEL2        8 GROUP        1 Z    SEL  0     **** SEL Z 16
     9 GLL5        2 GROUP        1 Z    GLL  0     **** GLL Z 20
@<TRIPOS>SET

