#    Name: 2b03_TUD_1_ligand
#    Modification time : Mon Mar 24 19:46:05 2014

@<TRIPOS>MOLECULE
2b03_TUD_1_ligand
   78    81     1     0     0
SMALL
NO_CHARGES


@<TRIPOS>ATOM
      1 C1         -0.9170   35.2550    5.2040 C.3       1 TUD126      0.0000 
      2 C2         -0.5900   34.3020    6.4430 C.3       1 TUD126      0.0000 
      3 C3          0.1230   35.1160    7.5660 C.3       1 TUD126      0.0000 
      4 O3          0.4200   34.2210    8.6790 O.3       1 TUD126      0.0000 
      5 C4          1.4620   35.7700    7.0500 C.3       1 TUD126      0.0000 
      6 C5          1.1720   36.7460    5.8250 C.3       1 TUD126      0.0000 
      7 C6          2.4880   37.4510    5.2250 C.3       1 TUD126      0.0000 
      8 C7          3.4710   36.4630    4.5270 C.3       1 TUD126      0.0000 
      9 O7          4.1400   35.5170    5.4320 O.3       1 TUD126      0.0000 
     10 C8          2.7420   35.6420    3.3490 C.3       1 TUD126      0.0000 
     11 C9          1.4300   34.8820    3.9320 C.3       1 TUD126      0.0000 
     12 C10         0.3790   35.9620    4.6220 C.3       1 TUD126      0.0000 
     13 C11         0.7420   34.0460    2.6910 C.3       1 TUD126      0.0000 
     14 C12         1.8780   33.0820    2.2090 C.3       1 TUD126      0.0000 
     15 C13         3.1610   33.7800    1.5220 C.3       1 TUD126      0.0000 
     16 C14         3.7730   34.6040    2.6630 C.3       1 TUD126      0.0000 
     17 C15         5.0730   35.2430    2.0080 C.3       1 TUD126      0.0000 
     18 C16         5.3920   34.2040    0.8450 C.3       1 TUD126      0.0000 
     19 C17         4.3850   32.9330    1.0940 C.3       1 TUD126      0.0000 
     20 C18         2.5360   34.6560    0.2760 C.3       1 TUD126      0.0000 
     21 C19        -0.2770   37.0440    3.6400 C.3       1 TUD126      0.0000 
     22 C20         4.2470   31.9400   -0.1880 C.3       1 TUD126      0.0000 
     23 C21         3.0330   30.9870   -0.3740 C.3       1 TUD126      0.0000 
     24 C22         5.5360   31.0080   -0.3270 C.3       1 TUD126      0.0000 
     25 C23         6.6190   31.0740   -1.5130 C.3       1 TUD126      0.0000 
     26 O25         7.6070   28.8920   -1.4230 O.2       1 TUD126      0.0000 
     27 C24         7.1070   29.8680   -2.2240 C.2       1 TUD126      0.0000 
     28 N26         7.0820   29.7210   -3.4660 N.am      1 TUD126      0.0000 
     29 C25         7.5820   28.5080   -4.1170 C.3       1 TUD126      0.0000 
     30 C26         7.2430   28.4270   -5.6290 C.3       1 TUD126      0.0000 
     31 S27         7.6710   27.2940   -6.4240 S.o2      1 TUD126      0.0000 
     32 O28         7.1690   27.5300   -7.8070 O.co2     1 TUD126      0.0000 
     33 O29         9.1480   27.2350   -6.3620 O.co2     1 TUD126      0.0000 
     34 O30         7.0910   26.0020   -5.8990 O.co2     1 TUD126      0.0000 
     35 H          -1.6118   36.0168    5.5330 H         1 TUD126      0.0000 
     36 H          -1.3686   34.6571    4.4230 H         1 TUD126      0.0000 
     37 H           0.0567   33.5161    6.0998 H         1 TUD126      0.0000 
     38 H          -1.5166   33.9068    6.8156 H         1 TUD126      0.0000 
     39 H          -0.5320   35.9068    7.8765 H         1 TUD126      0.0000 
     40 H           2.1282   34.9942    6.7179 H         1 TUD126      0.0000 
     41 H           1.9040   36.3427    7.8454 H         1 TUD126      0.0000 
     42 H           0.5023   37.5315    6.1591 H         1 TUD126      0.0000 
     43 H           2.9978   37.9505    6.0492 H         1 TUD126      0.0000 
     44 H           2.1595   38.2046    4.5088 H         1 TUD126      0.0000 
     45 H           4.2350   37.0728    4.0052 H         1 TUD126      0.0000 
     46 H           2.4197   36.3381    2.6082 H         1 TUD126      0.0000 
     47 H           1.7406   34.1913    4.6639 H         1 TUD126      0.0000 
     48 H           0.5043   34.7364    1.9447 H         1 TUD126      0.0000 
     49 H          -0.0575   33.5034    3.0867 H         1 TUD126      0.0000 
     50 H           1.4631   32.3713    1.4799 H         1 TUD126      0.0000 
     51 H           2.2434   32.4979    3.0658 H         1 TUD126      0.0000 
     52 H           4.1203   33.9055    3.4215 H         1 TUD126      0.0000 
     53 H           5.8472   35.2290    2.6996 H         1 TUD126      0.0000 
     54 H           4.8292   36.1607    1.5881 H         1 TUD126      0.0000 
     55 H           6.3771   33.8567    0.9391 H         1 TUD126      0.0000 
     56 H           5.1524   34.6264   -0.0845 H         1 TUD126      0.0000 
     57 H           4.7744   32.4394    1.9421 H         1 TUD126      0.0000 
     58 H           4.3032   32.5871   -1.1042 H         1 TUD126      0.0000 
     59 H           5.1715   29.9246   -0.2779 H         1 TUD126      0.0000 
     60 H           6.1196   31.0969    0.6531 H         1 TUD126      0.0000 
     61 H           7.5023   31.6529   -1.0795 H         1 TUD126      0.0000 
     62 H           6.1950   31.8221   -2.2638 H         1 TUD126      0.0000 
     63 H           6.7071   30.4402   -4.1456 H         1 TUD126      0.0000 
     64 H           7.1647   27.6036   -3.6362 H         1 TUD126      0.0000 
     65 H           8.6814   28.4352   -4.0208 H         1 TUD126      0.0000 
     66 H           7.6248   29.3964   -6.0920 H         1 TUD126      0.0000 
     67 H           6.1129   28.5558   -5.7080 H         1 TUD126      0.0000 
     68 H           3.2487   35.1391   -0.2326 H         1 TUD126      0.0000 
     69 H           2.0504   34.0765   -0.3785 H         1 TUD126      0.0000 
     70 H           1.8859   35.3452    0.5959 H         1 TUD126      0.0000 
     71 H           0.3974   37.7063    3.3135 H         1 TUD126      0.0000 
     72 H          -0.6817   36.6153    2.8323 H         1 TUD126      0.0000 
     73 H          -1.0030   37.5630    4.0911 H         1 TUD126      0.0000 
     74 H           3.1076   30.4501   -1.2144 H         1 TUD126      0.0000 
     75 H           2.9512   30.3378    0.3822 H         1 TUD126      0.0000 
     76 H           2.1701   31.4900   -0.4232 H         1 TUD126      0.0000 
     77 H           1.3230   34.5024    9.0034 H         1 TUD126      0.0000 
     78 H           4.7434   34.9788    4.8436 H         1 TUD126      0.0000 
@<TRIPOS>BOND
     1    2    1 1    
     2   12    1 1    
     3   35    1 1    
     4   36    1 1    
     5    3    2 1    
     6   37    2 1    
     7   38    2 1    
     8    4    3 1    
     9    5    3 1    
    10   39    3 1    
    11   77    4 1    
    12    6    5 1    
    13   40    5 1    
    14   41    5 1    
    15    7    6 1    
    16   12    6 1    
    17   42    6 1    
    18    8    7 1    
    19   43    7 1    
    20   44    7 1    
    21    9    8 1    
    22   10    8 1    
    23   45    8 1    
    24   78    9 1    
    25   11   10 1    
    26   16   10 1    
    27   46   10 1    
    28   12   11 1    
    29   13   11 1    
    30   47   11 1    
    31   21   12 1    
    32   14   13 1    
    33   48   13 1    
    34   49   13 1    
    35   15   14 1    
    36   50   14 1    
    37   51   14 1    
    38   16   15 1    
    39   19   15 1    
    40   20   15 1    
    41   17   16 1    
    42   52   16 1    
    43   18   17 1    
    44   53   17 1    
    45   54   17 1    
    46   19   18 1    
    47   55   18 1    
    48   56   18 1    
    49   22   19 1    
    50   57   19 1    
    51   68   20 1    
    52   69   20 1    
    53   70   20 1    
    54   71   21 1    
    55   72   21 1    
    56   73   21 1    
    57   23   22 1    
    58   24   22 1    
    59   58   22 1    
    60   74   23 1    
    61   75   23 1    
    62   76   23 1    
    63   25   24 1    
    64   59   24 1    
    65   60   24 1    
    66   27   25 1    
    67   61   25 1    
    68   62   25 1    
    69   27   26 2    
    70   28   27 am   
    71   29   28 1    
    72   63   28 1    
    73   30   29 1    
    74   64   29 1    
    75   65   29 1    
    76   31   30 1    
    77   66   30 1    
    78   67   30 1    
    79   32   31 ar   
    80   33   31 ar   
    81   34   31 ar   
@<TRIPOS>SUBSTRUCTURE
     1 TUD126      1 GROUP   
@<TRIPOS>SET

