#    Name: 2NYA_3_CAVITY_N1_ALL.mol2
#    Modification time : Tue Mar 11 01:16:23 2014

@<TRIPOS>MOLECULE
2NYA_3_CAVITY_N1_ALL.mol2
   51     0     6     0     0
SMALL
NO_CHARGES


@<TRIPOS>ATOM
      1 OG         20.0225   24.0469   11.9910 O.2       1 SER1        0.0000 
      2 OG         19.6330   23.5581   13.3547 O.2       1 SER1        0.0000 
      3 O          21.3339   23.3629   10.4704 O.2       2 ALA2        0.0000 
      4 CA         20.9445   22.8742   11.8340 C.3       5 GLY6        0.0000 
      5 OG         20.5550   22.3854   13.1976 O.2       1 SER1        0.0000 
      6 O          22.2559   22.1902   10.3134 O.2       2 ALA2        0.0000 
      7 DU         21.8665   21.7015   11.6770 H         6 CUB7        0.0000 
      8 CA         21.4770   21.2127   13.0406 C.3       5 GLY6        0.0000 
      9 NZ         23.1779   21.0175   10.1564 N.2       4 LYS4        0.0000 
     10 DU         22.7884   20.5287   11.5200 H         6 CUB7        0.0000 
     11 CA         22.3990   20.0400   12.8836 C.3       5 GLY6        0.0000 
     12 CA         24.0999   19.8448    9.9994 C.3       5 GLY6        0.0000 
     13 O          23.7104   19.3560   11.3630 O.2       2 ALA2        0.0000 
     14 O          23.3210   18.8672   12.7266 O.2       2 ALA2        0.0000 
     15 CA         25.0219   18.6720    9.8424 C.3       5 GLY6        0.0000 
     16 O          24.6324   18.1833   11.2060 O.2       2 ALA2        0.0000 
     17 O          24.2430   17.6945   12.5696 O.2       2 ALA2        0.0000 
     18 CA         25.9439   17.4993    9.6854 C.3       5 GLY6        0.0000 
     19 CA         25.5544   17.0106   11.0490 C.3       5 GLY6        0.0000 
     20 CA         25.1649   16.5218   12.4126 C.3       5 GLY6        0.0000 
     21 CA         26.4764   15.8378   10.8920 C.3       5 GLY6        0.0000 
     22 OG         19.8272   22.0768   11.2291 O.2       1 SER1        0.0000 
     23 OG         20.7492   20.9041   11.0721 O.2       1 SER1        0.0000 
     24 OG         20.3597   20.4153   12.4357 O.2       1 SER1        0.0000 
     25 NZ         21.6712   19.7313   10.9151 N.2       4 LYS4        0.0000 
     26 CA         21.2817   19.2426   12.2787 C.3       5 GLY6        0.0000 
     27 CA         22.9827   19.0474    9.3945 C.3       5 GLY6        0.0000 
     28 CA         22.5932   18.5586   10.7581 C.3       5 GLY6        0.0000 
     29 CA         22.2037   18.0699   12.1217 C.3       5 GLY6        0.0000 
     30 CA         23.1257   16.8971   11.9647 C.3       5 GLY6        0.0000 
     31 CA         24.0477   15.7244   11.8077 C.3       5 GLY6        0.0000 
     32 O          20.6072   26.5058   11.3894 O.2       2 ALA2        0.0000 
     33 CA         20.2177   26.0170   12.7530 C.3       5 GLY6        0.0000 
     34 CA         21.1397   24.8443   12.5960 C.3       5 GLY6        0.0000 
     35 CA         20.7503   24.3555   13.9596 C.3       5 GLY6        0.0000 
     36 CA         22.4512   24.1603   11.0754 C.3       5 GLY6        0.0000 
     37 O          22.0617   23.6716   12.4390 O.2       2 ALA2        0.0000 
     38 N          21.6722   23.1828   13.8026 N.2       2 ALA2        0.0000 
     39 N          23.3732   22.9876   10.9184 N.2       2 ALA2        0.0000 
     40 N          22.9837   22.4988   12.2820 N.2       2 ALA2        0.0000 
     41 N          22.5942   22.0101   13.6456 N.2       2 ALA2        0.0000 
     42 O          22.1139   27.7919   10.6307 O.2       2 ALA2        0.0000 
     43 O          22.6465   26.1304   11.8373 O.2       2 ALA2        0.0000 
     44 CA         22.2570   25.6417   13.2009 C.3       5 GLY6        0.0000 
     45 CA         23.5684   24.9577   11.6803 C.3       5 GLY6        0.0000 
     46 O          23.1790   24.4690   13.0439 O.2       2 ALA2        0.0000 
     47 N          23.9057   21.3261   12.1250 N.2       2 ALA2        0.0000 
     48 O          24.8277   20.1534   11.9680 O.2       2 ALA2        0.0000 
     49 CA         25.7497   18.9807   11.8109 C.3       5 GLY6        0.0000 
     50 CA         26.6717   17.8079   11.6539 C.3       5 GLY6        0.0000 
     51 OD1        27.5937   16.6352   11.4969 O.3       3 ASP3        0.0000 
@<TRIPOS>BOND
@<TRIPOS>SUBSTRUCTURE
     1 SER1        1 GROUP   
     2 ALA2        3 GROUP   
     3 ASP3       51 GROUP   
     4 LYS4        9 GROUP   
     5 GLY6        4 GROUP   
     6 CUB7        7 GROUP   
@<TRIPOS>SET

