#    Name: 2nya_MGD_3_INTS_M
#    Modification time : Tue Mar 25 21:45:15 2014

@<TRIPOS>MOLECULE
2nya_MGD_3_INTS_M
  104     0     9     0     0
SMALL
NO_CHARGES


@<TRIPOS>ATOM
      1 N          23.7415   24.1120   14.6410 N.am      2 SEC2        0.0000 
      2 N          22.2650   24.2030   14.5140 N.am      8 SEL2        0.0000 
      3 N          25.2180   24.0210   14.7680 N.am      5 SEP2        0.0000 
      4 N          18.5795   24.6270   14.3315 N.am      2 SEC2        0.0000 
      5 N          19.8020   23.9650   13.6230 N.am      8 SEL2        0.0000 
      6 N          17.3570   25.2890   15.0400 N.am      5 SEP2        0.0000 
      7 N          18.5885   24.0245   12.9635 N.am      2 SEC2        0.0000 
      8 N          17.3750   24.0840   12.3040 N.am      5 SEP2        0.0000 
      9 N          21.7400   26.2340    9.9315 N.am      2 SEC2        0.0000 
     10 N          21.8980   27.0010   11.0040 N.am      8 SEL2        0.0000 
     11 N          21.5820   25.4670    8.8590 N.am      5 SEP2        0.0000 
     12 N          24.4675   25.1655   13.7830 N.am      2 SEC2        0.0000 
     13 N          23.7170   26.3100   12.7980 N.am      8 SEL2        0.0000 
     14 N          24.9070   26.6470   12.7260 N.am      2 SEC2        0.0000 
     15 N          26.0970   26.9840   12.6540 N.am      5 SEP2        0.0000 
     16 CA         24.3110   21.7815    9.8805 C.3       3 GLC5        0.0000 
     17 CA         22.3610   21.7550   10.9170 C.3       9 GLL5        0.0000 
     18 CA         26.2610   21.8080    8.8440 C.3       6 GLP5        0.0000 
     19 N          19.0310   20.8555   10.8495 N.am      2 SEC2        0.0000 
     20 N          20.2390   21.2130   10.0130 N.am      8 SEL2        0.0000 
     21 N          17.8230   20.4980   11.6860 N.am      5 SEP2        0.0000 
     22 O          20.3865   19.8260    9.0090 O.2       1 ALC1        0.0000 
     23 O          20.2390   21.2130   10.0130 O.2       7 ALL1        0.0000 
     24 O          20.5340   18.4390    8.0050 O.2       4 ALP1        0.0000 
     25 O          20.8095   20.8260    8.8390 O.2       1 ALC1        0.0000 
     26 O          21.3800   20.4390    7.6650 O.2       4 ALP1        0.0000 
     27 CA         20.7400   18.5945   12.8905 C.3       3 GLC5        0.0000 
     28 CA         21.4630   19.5710   11.3310 C.3       9 GLL5        0.0000 
     29 CA         20.0170   17.6180   14.4500 C.3       6 GLP5        0.0000 
     30 O          20.5070   18.5960    9.3670 O.2       1 ALC1        0.0000 
     31 O          20.4800   18.7530   10.7290 O.2       7 ALL1        0.0000 
     32 N          25.3185   18.1825   13.2445 N.am      2 SEC2        0.0000 
     33 N          25.1810   17.2740   12.0990 N.am      8 SEL2        0.0000 
     34 N          25.4560   19.0910   14.3900 N.am      5 SEP2        0.0000 
     35 CA         25.6390   15.6060   11.3930 C.3       3 GLC5        0.0000 
     36 CA         25.7590   17.5090   10.9200 C.3       9 GLL5        0.0000 
     37 CA         25.5190   13.7030   11.8660 C.3       6 GLP5        0.0000 
     38 N          29.2015   15.9245   10.5900 N.am      2 SEC2        0.0000 
     39 N          27.8630   16.4280   10.8470 N.am      8 SEL2        0.0000 
     40 N          30.5400   15.4210   10.3330 N.am      5 SEP2        0.0000 
     41 O          28.2520   18.2545    8.0025 O.2       1 ALC1        0.0000 
     42 O          27.2170   17.6400    8.9850 O.2       7 ALL1        0.0000 
     43 O          29.2870   18.8690    7.0200 O.2       4 ALP1        0.0000 
     44 O          28.4775   17.3180    8.5250 O.2       1 ALC1        0.0000 
     45 O          29.7380   16.9960    8.0650 O.2       4 ALP1        0.0000 
     46 O          25.5060   19.3605    6.2060 O.2       1 ALC1        0.0000 
     47 O          26.4580   18.8680    7.0880 O.2       7 ALL1        0.0000 
     48 O          24.5540   19.8530    5.3240 O.2       4 ALP1        0.0000 
     49 O          27.8725   18.8685    7.0540 O.2       1 ALC1        0.0000 
     50 CA         22.4085   27.2115   15.5780 C.3       3 GLC5        0.0000 
     51 CA         22.5600   28.5730   14.4860 C.3       9 GLL5        0.0000 
     52 CA         22.2570   25.8500   16.6700 C.3       6 GLP5        0.0000 
     53 CA         25.7810   30.8715   17.7800 C.3       3 GLC5        0.0000 
     54 CA         24.6940   29.6190   16.6120 C.3       9 GLL5        0.0000 
     55 CA         26.8680   32.1240   18.9480 C.3       6 GLP5        0.0000 
     56 CA         25.9280   28.1240   16.9750 C.3       3 GLC5        0.0000 
     57 CA         27.1620   26.6290   17.3380 C.3       6 GLP5        0.0000 
     58 CA         23.4755   27.7345   16.6410 C.3       3 GLC5        0.0000 
     59 CA         25.0495   32.2135   16.9440 C.3       3 GLC5        0.0000 
     60 CA         23.0350   31.5660   16.6190 C.3       9 GLL5        0.0000 
     61 CA         27.0640   32.8610   17.2690 C.3       6 GLP5        0.0000 
     62 CA         25.3945   32.0200   18.4795 C.3       3 GLC5        0.0000 
     63 CA         23.9210   31.9160   18.0110 C.3       9 GLL5        0.0000 
     64 CA         24.3985   33.3580   19.1235 C.3       3 GLC5        0.0000 
     65 CA         24.8760   34.8000   20.2360 C.3       6 GLP5        0.0000 
     66 CA         21.7260   34.4100   15.2195 C.3       3 GLC5        0.0000 
     67 CA         21.9190   32.4760   16.1610 C.3       9 GLL5        0.0000 
     68 CA         21.5330   36.3440   14.2780 C.3       6 GLP5        0.0000 
     69 N          18.9635   34.4415   20.0440 N.am      2 SEC2        0.0000 
     70 N          19.0660   33.6270   18.9560 N.am      8 SEL2        0.0000 
     71 N          18.8610   35.2560   21.1320 N.am      5 SEP2        0.0000 
     72 O          16.5045   35.2710   17.6040 O.2       1 ALC1        0.0000 
     73 O          17.5930   34.1750   17.3090 O.2       7 ALL1        0.0000 
     74 O          15.4160   36.3670   17.8990 O.2       4 ALP1        0.0000 
     75 O          15.7520   35.5395   16.7210 O.2       1 ALC1        0.0000 
     76 O          16.0880   34.7120   15.5430 O.2       7 ALL1        0.0000 
     77 O          15.8480   34.9595   14.1475 O.2       1 ALC1        0.0000 
     78 O          15.6080   35.2070   12.7520 O.2       4 ALP1        0.0000 
     79 N          17.1525   33.3720   13.6030 N.am      2 SEC2        0.0000 
     80 N          18.0550   33.5750   15.0220 N.am      8 SEL2        0.0000 
     81 N          16.2500   33.1690   12.1840 N.am      5 SEP2        0.0000 
     82 O          19.6015   32.6665   13.0525 O.2       1 ALC1        0.0000 
     83 O          20.0770   32.4630   14.4400 O.2       7 ALL1        0.0000 
     84 O          19.1260   32.8700   11.6650 O.2       4 ALP1        0.0000 
     85 CA         20.5460   30.9335   13.2190 C.3       3 GLC5        0.0000 
     86 CA         21.4680   32.1130   14.7540 C.3       9 GLL5        0.0000 
     87 CA         19.6240   29.7540   11.6840 C.3       6 GLP5        0.0000 
     88 CA         19.8900   30.8530   15.6190 C.3       3 GLC5        0.0000 
     89 CA         18.3120   29.5930   16.4840 C.3       6 GLP5        0.0000 
     90 CA         21.1540   34.0300   13.9510 C.3       3 GLC5        0.0000 
     91 CA         20.8400   35.9470   13.1480 C.3       6 GLP5        0.0000 
     92 CA         23.2308   23.5075   10.2063 C.3       3 GLC5        0.0000 
     93 CA         22.7280   22.6570   12.1020 C.3       9 GLL5        0.0000 
     94 CA         23.9170   24.8090    8.9030 C.3       6 GLP5        0.0000 
     95 CA         22.3697   17.9755    9.7665 C.3       3 GLC5        0.0000 
     96 CA         22.6980   19.4450   10.4850 C.3       9 GLL5        0.0000 
     97 CA         22.6590   16.4430    8.6250 C.3       6 GLP5        0.0000 
     98 CA         26.4245   19.2250   10.7680 C.3       3 GLC5        0.0000 
     99 CA         24.8350   18.3550   10.1780 C.3       9 GLL5        0.0000 
    100 CA         27.5520   20.5180   10.9870 C.3       6 GLP5        0.0000 
    101 CA         23.9780   17.1875    9.5870 C.3       3 GLC5        0.0000 
    102 CA         21.1390   29.5422   13.1342 C.3       3 GLC5        0.0000 
    103 CA         23.1717   33.1190   14.4505 C.3       3 GLC5        0.0000 
    104 CA         24.3710   34.1710   13.3290 C.3       6 GLP5        0.0000 
@<TRIPOS>BOND
@<TRIPOS>SUBSTRUCTURE
     1 ALC1       22 GROUP        1 X    ALC  0     ROOT ALC X 1
     2 SEC2        1 GROUP        1 X    SEC  0     **** SEC X 2
     3 GLC5       16 GROUP        1 X    GLC  0     **** GLC X 6
     4 ALP1       24 GROUP        1 Y    ALP  0     ROOT ALP Y 8
     5 SEP2        3 GROUP        1 Y    SEP  0     **** SEP Y 9
     6 GLP5       18 GROUP        1 Y    GLP  0     **** GLP Y 13
     7 ALL1       23 GROUP        1 Z    ALL  0     ROOT ALL Z 15
     8 SEL2        2 GROUP        1 Z    SEL  0     **** SEL Z 16
     9 GLL5       17 GROUP        1 Z    GLL  0     **** GLL Z 20
@<TRIPOS>SET

