#    Name: 2nya_MGD_3_ligand
#    Modification time : Tue Mar 25 21:45:15 2014

@<TRIPOS>MOLECULE
2nya_MGD_3_ligand
   69    74     1     0     0
SMALL
NO_CHARGES


@<TRIPOS>ATOM
      1 PB         21.2460   24.4160   13.4270 P.3       1 MGD6001     0.0000 
      2 O1B        22.2650   24.2030   14.5140 O.co2     1 MGD6001     0.0000 
      3 O2B        19.8020   23.9650   13.6230 O.co2     1 MGD6001     0.0000 
      4 O3B        21.1880   26.0050   13.1370 O.3       1 MGD6001     0.0000 
      5 O3A        22.1020   28.2910   13.1470 O.3       1 MGD6001     0.0000 
      6 PA         22.3620   26.8710   12.4310 P.3       1 MGD6001     0.0000 
      7 O1A        21.8980   27.0010   11.0040 O.co2     1 MGD6001     0.0000 
      8 O2A        23.7170   26.3100   12.7980 O.co2     1 MGD6001     0.0000 
      9 O5'        21.8680   23.8090   12.0730 O.3       1 MGD6001     0.0000 
     10 C5'        22.7280   22.6570   12.1020 C.3       1 MGD6001     0.0000 
     11 C4'        22.3610   21.7550   10.9170 C.3       1 MGD6001     0.0000 
     12 O4'        23.3220   20.7380   10.6320 O.3       1 MGD6001     0.0000 
     13 C3'        21.0610   21.0230   11.1750 C.3       1 MGD6001     0.0000 
     14 O3'        20.2390   21.2130   10.0130 O.3       1 MGD6001     0.0000 
     15 C2'        21.4630   19.5710   11.3310 C.3       1 MGD6001     0.0000 
     16 O2'        20.4800   18.7530   10.7290 O.3       1 MGD6001     0.0000 
     17 C1'        22.6980   19.4450   10.4850 C.3       1 MGD6001     0.0000 
     18 N9         23.7720   18.5420   10.9460 N.pl3     1 MGD6001     0.0000 
     19 C8         23.9670   17.9040   12.1120 C.2       1 MGD6001     0.0000 
     20 N7         25.1810   17.2740   12.0990 N.2       1 MGD6001     0.0000 
     21 C5         25.7590   17.5090   10.9200 C.2       1 MGD6001     0.0000 
     22 C6         27.0260   17.1540   10.2470 C.2       1 MGD6001     0.0000 
     23 O6         27.8630   16.4280   10.8470 O.2       1 MGD6001     0.0000 
     24 N1         27.2170   17.6400    8.9850 N.am      1 MGD6001     0.0000 
     25 C2         26.2790   18.4040    8.3400 C.2       1 MGD6001     0.0000 
     26 N2         26.4580   18.8680    7.0880 N.pl3     1 MGD6001     0.0000 
     27 N3         25.1290   18.7740    8.9300 N.2       1 MGD6001     0.0000 
     28 C4         24.8350   18.3550   10.1780 C.2       1 MGD6001     0.0000 
     29 C10        22.5600   28.5730   14.4860 C.3       1 MGD6001     0.0000 
     30 C11        22.7480   30.0880   14.6830 C.3       1 MGD6001     0.0000 
     31 O11        21.4760   30.6990   14.7110 O.3       1 MGD6001     0.0000 
     32 C12        23.4070   30.4770   15.9650 C.2       1 MGD6001     0.0000 
     33 S12        24.6940   29.6190   16.6120 S.3       1 MGD6001     0.0000 
     34 C13        23.0350   31.5660   16.6190 C.2       1 MGD6001     0.0000 
     35 S13        23.9210   31.9160   18.0110 S.3       1 MGD6001     0.0000 
     36 C14        21.9190   32.4760   16.1610 C.3       1 MGD6001     0.0000 
     37 N15        20.8140   32.4300   17.0980 N.pl3     1 MGD6001     0.0000 
     38 C16        19.6390   32.9930   16.7640 C.2       1 MGD6001     0.0000 
     39 C17        18.7410   33.6330   17.7470 C.2       1 MGD6001     0.0000 
     40 O17        19.0660   33.6270   18.9560 O.2       1 MGD6001     0.0000 
     41 N18        17.5930   34.1750   17.3090 N.am      1 MGD6001     0.0000 
     42 C19        17.2620   34.1570   15.9760 C.2       1 MGD6001     0.0000 
     43 N19        16.0880   34.7120   15.5430 N.pl3     1 MGD6001     0.0000 
     44 N20        18.0550   33.5750   15.0220 N.2       1 MGD6001     0.0000 
     45 C21        19.2290   32.9890   15.3550 C.2       1 MGD6001     0.0000 
     46 N22        20.0770   32.4630   14.4400 N.pl3     1 MGD6001     0.0000 
     47 C23        21.4680   32.1130   14.7540 C.3       1 MGD6001     0.0000 
     48 H          22.5990   22.0793   13.0149 H         1 MGD6001     0.0000 
     49 H          23.7758   22.9323   12.0012 H         1 MGD6001     0.0000 
     50 H          22.2015   22.3829   10.0406 H         1 MGD6001     0.0000 
     51 H          20.6349   21.3794   12.0571 H         1 MGD6001     0.0000 
     52 H          21.6750   19.3544   12.3127 H         1 MGD6001     0.0000 
     53 H          22.4600   19.2929    9.4745 H         1 MGD6001     0.0000 
     54 H          23.3470   17.8846   12.8609 H         1 MGD6001     0.0000 
     55 H          28.1183   17.4208    8.4865 H         1 MGD6001     0.0000 
     56 H          25.6303   18.9815    6.5383 H         1 MGD6001     0.0000 
     57 H          27.4025   19.0576    6.8198 H         1 MGD6001     0.0000 
     58 H          23.5218   28.0892   14.6922 H         1 MGD6001     0.0000 
     59 H          21.8415   28.2267   15.2380 H         1 MGD6001     0.0000 
     60 H          23.3260   30.4724   13.8553 H         1 MGD6001     0.0000 
     61 H          22.3231   33.4977   16.1222 H         1 MGD6001     0.0000 
     62 H          20.9739   31.9621   17.9941 H         1 MGD6001     0.0000 
     63 H          16.9298   34.6222   17.9846 H         1 MGD6001     0.0000 
     64 H          15.8869   34.6116   14.5686 H         1 MGD6001     0.0000 
     65 H          15.5344   35.1692   16.2390 H         1 MGD6001     0.0000 
     66 H          19.7754   32.2809   13.4588 H         1 MGD6001     0.0000 
     67 H          22.1381   32.5113   14.0431 H         1 MGD6001     0.0000 
     68 H          20.7746   20.8430    9.2539 H         1 MGD6001     0.0000 
     69 H          20.6920   18.7703    9.7519 H         1 MGD6001     0.0000 
@<TRIPOS>BOND
     1    2    1 ar   
     2    3    1 ar   
     3    4    1 1    
     4    9    1 1    
     5    6    4 1    
     6    6    5 1    
     7   29    5 1    
     8    7    6 ar   
     9    8    6 ar   
    10   10    9 1    
    11   11   10 1    
    12   48   10 1    
    13   49   10 1    
    14   12   11 1    
    15   13   11 1    
    16   50   11 1    
    17   17   12 1    
    18   14   13 1    
    19   15   13 1    
    20   51   13 1    
    21   68   14 1    
    22   16   15 1    
    23   17   15 1    
    24   52   15 1    
    25   69   16 1    
    26   18   17 1    
    27   53   17 1    
    28   19   18 1    
    29   28   18 1    
    30   20   19 2    
    31   54   19 1    
    32   21   20 1    
    33   22   21 1    
    34   28   21 2    
    35   23   22 2    
    36   24   22 am   
    37   25   24 1    
    38   55   24 1    
    39   26   25 1    
    40   27   25 2    
    41   56   26 1    
    42   57   26 1    
    43   28   27 1    
    44   30   29 1    
    45   58   29 1    
    46   59   29 1    
    47   31   30 1    
    48   32   30 1    
    49   60   30 1    
    50   47   31 1    
    51   33   32 1    
    52   34   32 2    
    53   35   34 1    
    54   36   34 1    
    55   37   36 1    
    56   47   36 1    
    57   61   36 1    
    58   38   37 1    
    59   62   37 1    
    60   39   38 1    
    61   45   38 2    
    62   40   39 2    
    63   41   39 am   
    64   42   41 1    
    65   63   41 1    
    66   43   42 1    
    67   44   42 2    
    68   64   43 1    
    69   65   43 1    
    70   45   44 1    
    71   46   45 1    
    72   47   46 1    
    73   66   46 1    
    74   67   47 1    
@<TRIPOS>SUBSTRUCTURE
     1 MGD6001     1 GROUP   
@<TRIPOS>SET

