#    Name: 2c80_GTX_1_INTS_M
#    Modification time : Mon Mar 24 23:08:45 2014

@<TRIPOS>MOLECULE
2c80_GTX_1_INTS_M
   84     0    15     0     0
SMALL
NO_CHARGES


@<TRIPOS>ATOM
      1 OD1       -11.3085   25.2560   -1.6355 O.co2     3 ASC3        0.0000 
      2 OD1       -10.8020   26.4010   -2.1630 O.co2    13 ASL3        0.0000 
      3 OD1       -11.8150   24.1110   -1.1080 O.co2     8 ASP3        0.0000 
      4 OD1       -12.2100   25.7880   -1.3015 O.co2     3 ASC3        0.0000 
      5 OD1       -13.6180   25.1750   -0.4400 O.co2     8 ASP3        0.0000 
      6 OD1       -10.5630   27.3550   -1.1550 O.co2     3 ASC3        0.0000 
      7 OD1       -10.3240   28.3090   -0.1470 O.co2     8 ASP3        0.0000 
      8 OD1        -9.5875   26.8380   -1.1270 O.co2     3 ASC3        0.0000 
      9 OD1        -8.3730   27.2750   -0.0910 O.co2     8 ASP3        0.0000 
     10 O         -11.3085   25.2560   -1.6355 O.2       1 ALC1        0.0000 
     11 O         -10.8020   26.4010   -2.1630 O.2      11 ALL1        0.0000 
     12 O         -11.8150   24.1110   -1.1080 O.2       6 ALP1        0.0000 
     13 O         -10.5630   27.3550   -1.1550 O.2       1 ALC1        0.0000 
     14 O         -10.3240   28.3090   -0.1470 O.2       6 ALP1        0.0000 
     15 O          -9.5875   26.8380   -1.1270 O.2       1 ALC1        0.0000 
     16 O          -8.3730   27.2750   -0.0910 O.2       6 ALP1        0.0000 
     17 NZ         -9.9465   25.4430   -5.3170 N.4       4 LYC4        0.0000 
     18 NZ        -11.3120   25.5120   -4.7300 N.4      14 LYL4        0.0000 
     19 NZ         -7.7100   24.4730   -5.4470 N.4       9 LYP4        0.0000 
     20 N          -9.9465   25.4430   -5.3170 N.am      2 SEC2        0.0000 
     21 N         -11.3120   25.5120   -4.7300 N.am     12 SEL2        0.0000 
     22 N          -8.5810   25.3740   -5.9040 N.am      7 SEP2        0.0000 
     23 N         -11.3340   24.3895   -5.4800 N.am      2 SEC2        0.0000 
     24 N         -11.3560   23.2670   -6.2300 N.am      7 SEP2        0.0000 
     25 N         -13.6755   24.5560   -4.6525 N.am      2 SEC2        0.0000 
     26 N         -13.3910   26.0020   -4.4530 N.am     12 SEL2        0.0000 
     27 N         -13.9600   23.1100   -4.8520 N.am      7 SEP2        0.0000 
     28 CA        -10.4295   27.7840   -5.4225 C.3       5 GLC5        0.0000 
     29 CA        -11.3810   28.3670   -3.4990 C.3      15 GLL5        0.0000 
     30 CA         -9.4780   27.2010   -7.3460 C.3      10 GLP5        0.0000 
     31 CA        -13.2785   28.1225   -5.8635 C.3       5 GLC5        0.0000 
     32 CA        -12.5510   29.1780   -4.0660 C.3      15 GLL5        0.0000 
     33 CA        -14.0060   27.0670   -7.6610 C.3      10 GLP5        0.0000 
     34 O         -13.5465   30.4235   -6.1360 O.2       1 ALC1        0.0000 
     35 O         -12.8450   31.1940   -5.3940 O.2      11 ALL1        0.0000 
     36 O         -14.2480   29.6530   -6.8780 O.2       6 ALP1        0.0000 
     37 N         -15.7590   31.9525   -6.4335 N.am      2 SEC2        0.0000 
     38 N         -14.8890   32.9090   -6.2870 N.am     12 SEL2        0.0000 
     39 N         -16.6290   30.9960   -6.5800 N.am      7 SEP2        0.0000 
     40 CA        -12.9690   33.0640   -8.7375 C.3       5 GLC5        0.0000 
     41 CA        -11.8360   32.2500   -7.3980 C.3      15 GLL5        0.0000 
     42 CA        -14.1020   33.8780  -10.0770 C.3      10 GLP5        0.0000 
     43 CA         -8.8400   28.9375   -6.9815 C.3       5 GLC5        0.0000 
     44 CA         -8.2020   30.6740   -6.6170 C.3      15 GLL5        0.0000 
     45 CA         -6.3865   29.3590   -6.6175 C.3       5 GLC5        0.0000 
     46 CA         -4.5710   28.0440   -6.6180 C.3      10 GLP5        0.0000 
     47 CA         -8.1780   28.7415   -8.0340 C.3       5 GLC5        0.0000 
     48 CA         -6.8780   30.2820   -8.7220 C.3      15 GLL5        0.0000 
     49 CA         -3.4885   29.8265  -10.7335 C.3       5 GLC5        0.0000 
     50 CA         -5.3730   30.2420  -10.7490 C.3      15 GLL5        0.0000 
     51 CA         -1.6040   29.4110  -10.7180 C.3      10 GLP5        0.0000 
     52 CA        -14.6400   35.3350   -8.2170 C.3       5 GLC5        0.0000 
     53 CA        -14.2730   35.7360   -6.2850 C.3      15 GLL5        0.0000 
     54 CA        -15.0070   34.9340  -10.1490 C.3      10 GLP5        0.0000 
     55 CA        -16.1895   35.6645   -6.6625 C.3       5 GLC5        0.0000 
     56 CA        -18.1060   35.5930   -7.0400 C.3      10 GLP5        0.0000 
     57 NZ        -16.8840   37.1535   -4.1855 N.4       4 LYC4        0.0000 
     58 NZ        -15.8330   37.1040   -5.0750 N.4      14 LYL4        0.0000 
     59 NZ        -17.9350   37.2030   -3.2960 N.4       9 LYP4        0.0000 
     60 N         -16.3875   37.4250   -6.3450 N.am      2 SEC2        0.0000 
     61 N         -15.8330   37.1040   -5.0750 N.am     12 SEL2        0.0000 
     62 N         -16.9420   37.7460   -7.6150 N.am      7 SEP2        0.0000 
     63 N         -16.8840   37.1535   -4.1855 N.am      2 SEC2        0.0000 
     64 N         -17.9350   37.2030   -3.2960 N.am      7 SEP2        0.0000 
     65 NZ        -16.1655   36.6020   -3.6065 N.4       4 LYC4        0.0000 
     66 NZ        -14.3960   36.0010   -3.9170 N.4      14 LYL4        0.0000 
     67 N         -14.1735   34.5635   -3.0460 N.am      2 SEC2        0.0000 
     68 N         -14.3960   36.0010   -3.9170 N.am     12 SEL2        0.0000 
     69 N         -13.9510   33.1260   -2.1750 N.am      7 SEP2        0.0000 
     70 CA        -12.0430   30.3738   -8.9328 C.3       5 GLC5        0.0000 
     71 CA        -12.7520   29.2530  -10.4000 C.3      10 GLP5        0.0000 
     72 CA         -9.8027   29.1790   -7.2455 C.3       5 GLC5        0.0000 
     73 CA        -10.8320   30.7390   -7.5330 C.3      15 GLL5        0.0000 
     74 CA         -5.3842   29.7540   -7.8057 C.3       5 GLC5        0.0000 
     75 CA         -7.0830   31.1900   -7.5150 C.3      15 GLL5        0.0000 
     76 CA         -3.7880   28.7720   -7.4930 C.3      10 GLP5        0.0000 
     77 CA         -4.8210   29.7152   -8.9103 C.3       5 GLC5        0.0000 
     78 CA         -4.4770   31.6863   -9.6627 C.3       5 GLC5        0.0000 
     79 CA         -3.1000   32.7140   -8.9980 C.3      10 GLP5        0.0000 
     80 CA         -6.7580   31.1647  -11.9808 C.3       5 GLC5        0.0000 
     81 CA         -6.3350   31.0750   -9.9060 C.3      15 GLL5        0.0000 
     82 CA         -7.6620   31.6710  -13.6340 C.3      10 GLP5        0.0000 
     83 CA         -6.9694   29.1116  -11.0248 C.3       5 GLC5        0.0000 
     84 CA         -7.9490   27.7630  -12.0180 C.3      10 GLP5        0.0000 
@<TRIPOS>BOND
@<TRIPOS>SUBSTRUCTURE
     1 ALC1       10 GROUP        1 X    ALC  0     ROOT ALC X 1
     2 SEC2       20 GROUP        1 X    SEC  0     **** SEC X 2
     3 ASC3        1 GROUP        1 X    ASC  0     **** ASC X 3
     4 LYC4       17 GROUP        1 X    LYC  0     **** LYC X 4
     5 GLC5       28 GROUP        1 X    GLC  0     **** GLC X 6
     6 ALP1       12 GROUP        1 Y    ALP  0     ROOT ALP Y 8
     7 SEP2       22 GROUP        1 Y    SEP  0     **** SEP Y 9
     8 ASP3        3 GROUP        1 Y    ASP  0     **** ASP Y 10
     9 LYP4       19 GROUP        1 Y    LYP  0     **** LYP Y 11
    10 GLP5       30 GROUP        1 Y    GLP  0     **** GLP Y 13
    11 ALL1       11 GROUP        1 Z    ALL  0     ROOT ALL Z 15
    12 SEL2       21 GROUP        1 Z    SEL  0     **** SEL Z 16
    13 ASL3        2 GROUP        1 Z    ASL  0     **** ASL Z 17
    14 LYL4       18 GROUP        1 Z    LYL  0     **** LYL Z 18
    15 GLL5       29 GROUP        1 Z    GLL  0     **** GLL Z 20
@<TRIPOS>SET

