#    Name: 2c80_GTX_1_ligand
#    Modification time : Mon Mar 24 23:08:45 2014

@<TRIPOS>MOLECULE
2c80_GTX_1_ligand
   54    53     1     0     0
SMALL
NO_CHARGES


@<TRIPOS>ATOM
      1 N1        -10.8020   26.4010   -2.1630 N.4       1 GTX1212     0.0000 
      2 CA1       -11.8480   27.0190   -2.9550 C.3       1 GTX1212     0.0000 
      3 C1        -12.2020   26.1250   -4.1030 C.2       1 GTX1212     0.0000 
      4 O11       -11.3120   25.5120   -4.7300 O.co2     1 GTX1212     0.0000 
      5 O12       -13.3910   26.0020   -4.4530 O.co2     1 GTX1212     0.0000 
      6 CB1       -11.3810   28.3670   -3.4990 C.3       1 GTX1212     0.0000 
      7 CG1       -12.5510   29.1780   -4.0660 C.3       1 GTX1212     0.0000 
      8 CD1       -12.0830   30.5440   -4.5110 C.2       1 GTX1212     0.0000 
      9 OE1       -10.8900   31.0810   -3.9970 O.2       1 GTX1212     0.0000 
     10 N2        -12.8450   31.1940   -5.3940 N.am      1 GTX1212     0.0000 
     11 CA2       -12.4440   32.4530   -6.0040 C.3       1 GTX1212     0.0000 
     12 C2        -13.5910   33.4080   -6.0840 C.2       1 GTX1212     0.0000 
     13 O2        -14.8890   32.9090   -6.2870 O.2       1 GTX1212     0.0000 
     14 CB2       -11.8360   32.2500   -7.3980 C.3       1 GTX1212     0.0000 
     15 SG2       -10.8320   30.7390   -7.5330 S.3       1 GTX1212     0.0000 
     16 C1S        -9.4230   31.5750   -6.7570 C.3       1 GTX1212     0.0000 
     17 C2S        -8.2020   30.6740   -6.6170 C.3       1 GTX1212     0.0000 
     18 C3S        -7.0830   31.1900   -7.5150 C.3       1 GTX1212     0.0000 
     19 C4S        -6.8780   30.2820   -8.7220 C.3       1 GTX1212     0.0000 
     20 C5S        -6.3350   31.0750   -9.9060 C.3       1 GTX1212     0.0000 
     21 C6S        -5.3730   30.2420  -10.7490 C.3       1 GTX1212     0.0000 
     22 N3        -13.3060   34.7030   -5.9620 N.am      1 GTX1212     0.0000 
     23 CA3       -14.2730   35.7360   -6.2850 C.3       1 GTX1212     0.0000 
     24 C3        -14.8700   36.3120   -5.0280 C.2       1 GTX1212     0.0000 
     25 O31       -15.8330   37.1040   -5.0750 O.co2     1 GTX1212     0.0000 
     26 O32       -14.3960   36.0010   -3.9170 O.co2     1 GTX1212     0.0000 
     27 H         -12.7307   27.1852   -2.3588 H         1 GTX1212     0.0000 
     28 H         -10.6458   28.2022   -4.2881 H         1 GTX1212     0.0000 
     29 H         -10.9088   28.9356   -2.6965 H         1 GTX1212     0.0000 
     30 H         -13.3138   29.2828   -3.2959 H         1 GTX1212     0.0000 
     31 H         -12.9757   28.6404   -4.9124 H         1 GTX1212     0.0000 
     32 H         -13.7784   30.8238   -5.6927 H         1 GTX1212     0.0000 
     33 H         -11.6609   32.9253   -5.3854 H         1 GTX1212     0.0000 
     34 H         -11.1345   33.0158   -7.6730 H         1 GTX1212     0.0000 
     35 H         -12.5718   32.1049   -8.1673 H         1 GTX1212     0.0000 
     36 H          -9.8344   31.8905   -5.8159 H         1 GTX1212     0.0000 
     37 H          -9.2660   32.4130   -7.4109 H         1 GTX1212     0.0000 
     38 H          -8.4633   29.6641   -6.9115 H         1 GTX1212     0.0000 
     39 H          -7.8671   30.6779   -5.5861 H         1 GTX1212     0.0000 
     40 H          -6.1559   31.2405   -6.9411 H         1 GTX1212     0.0000 
     41 H          -7.3329   32.1952   -7.8593 H         1 GTX1212     0.0000 
     42 H          -7.8290   29.8295   -8.9980 H         1 GTX1212     0.0000 
     43 H          -6.1733   29.4933   -8.4638 H         1 GTX1212     0.0000 
     44 H          -5.8130   31.9612   -9.5365 H         1 GTX1212     0.0000 
     45 H          -7.1686   31.4031  -10.5319 H         1 GTX1212     0.0000 
     46 H         -12.3756   35.0368   -5.6290 H         1 GTX1212     0.0000 
     47 H         -15.0848   35.3301   -6.9040 H         1 GTX1212     0.0000 
     48 H         -13.7998   36.5492   -6.8523 H         1 GTX1212     0.0000 
     49 H          -9.9763   26.2359   -2.7023 H         1 GTX1212     0.0000 
     50 H         -10.5359   26.9736   -1.3875 H         1 GTX1212     0.0000 
     51 H         -11.0902   25.5188   -1.7907 H         1 GTX1212     0.0000 
     52 H          -5.0170   30.7598  -11.5269 H         1 GTX1212     0.0000 
     53 H          -4.5846   29.9334  -10.2168 H         1 GTX1212     0.0000 
     54 H          -5.8152   29.4248  -11.1186 H         1 GTX1212     0.0000 
@<TRIPOS>BOND
     1    2    1 1    
     2   49    1 1    
     3   50    1 1    
     4   51    1 1    
     5    3    2 1    
     6    6    2 1    
     7   27    2 1    
     8    4    3 ar   
     9    5    3 ar   
    10    7    6 1    
    11   28    6 1    
    12   29    6 1    
    13    8    7 1    
    14   30    7 1    
    15   31    7 1    
    16    9    8 2    
    17   10    8 am   
    18   11   10 1    
    19   32   10 1    
    20   12   11 1    
    21   14   11 1    
    22   33   11 1    
    23   13   12 2    
    24   22   12 am   
    25   15   14 1    
    26   34   14 1    
    27   35   14 1    
    28   16   15 1    
    29   17   16 1    
    30   36   16 1    
    31   37   16 1    
    32   18   17 1    
    33   38   17 1    
    34   39   17 1    
    35   19   18 1    
    36   40   18 1    
    37   41   18 1    
    38   20   19 1    
    39   42   19 1    
    40   43   19 1    
    41   21   20 1    
    42   44   20 1    
    43   45   20 1    
    44   52   21 1    
    45   53   21 1    
    46   54   21 1    
    47   23   22 1    
    48   46   22 1    
    49   24   23 1    
    50   47   23 1    
    51   48   23 1    
    52   25   24 ar   
    53   26   24 ar   
@<TRIPOS>SUBSTRUCTURE
     1 GTX1212     1 GROUP   
@<TRIPOS>SET

