#    Name: 3ha7_B32_1_INTS_M
#    Modification time : Tue Mar 25 13:48:04 2014

@<TRIPOS>MOLECULE
3ha7_B32_1_INTS_M
   91     0    12     0     0
SMALL
NO_CHARGES


@<TRIPOS>ATOM
      1 CA        -28.7315   11.9205    6.6470 C.3       4 GLC5        0.0000 
      2 CA        -30.1390   10.9150    8.0070 C.3      12 GLL5        0.0000 
      3 CA        -27.3240   12.9260    5.2870 C.3       8 GLP5        0.0000 
      4 CA        -32.0300   10.5050    6.9960 C.3       4 GLC5        0.0000 
      5 CA        -33.9210   10.0950    5.9850 C.3       8 GLP5        0.0000 
      6 CA        -27.5445   12.3165   10.5570 C.3       4 GLC5        0.0000 
      7 CA        -27.8900   10.6940    9.2750 C.3      12 GLL5        0.0000 
      8 CA        -27.1990   13.9390   11.8390 C.3       8 GLP5        0.0000 
      9 CA        -26.4830   11.7180   10.9505 C.3       4 GLC5        0.0000 
     10 CA        -27.0830    9.8690   10.2890 C.3      12 GLL5        0.0000 
     11 CA        -25.8830   13.5670   11.6120 C.3       8 GLP5        0.0000 
     12 CA        -27.0890    8.3305    8.9820 C.3       4 GLC5        0.0000 
     13 CA        -27.0950    6.7920    7.6750 C.3       8 GLP5        0.0000 
     14 CA        -27.5405   11.7915   11.7080 C.3       4 GLC5        0.0000 
     15 CA        -27.8820    9.6440   11.5770 C.3      12 GLL5        0.0000 
     16 CA        -26.5895   11.9835   12.1860 C.3       4 GLC5        0.0000 
     17 CA        -27.2960   10.4000   12.7600 C.3      12 GLL5        0.0000 
     18 OD1       -31.2615    9.4585   14.6720 O.co2     3 ASC3        0.0000 
     19 OD1       -29.7680   10.0160   15.6020 O.co2    11 ASL3        0.0000 
     20 OD1       -32.7550    8.9010   13.7420 O.co2     7 ASP3        0.0000 
     21 CA        -29.8515   12.8695   17.2145 C.3       4 GLC5        0.0000 
     22 CA        -29.7490   10.7140   16.9000 C.3      12 GLL5        0.0000 
     23 CA        -29.9540   15.0250   17.5290 C.3       8 GLP5        0.0000 
     24 CA        -27.2540    7.5280   18.5665 C.3       4 GLC5        0.0000 
     25 CA        -27.5110    9.4700   19.4100 C.3      12 GLL5        0.0000 
     26 CA        -26.9970    5.5860   17.7230 C.3       8 GLP5        0.0000 
     27 CA        -27.0020    6.9410   19.9615 C.3       4 GLC5        0.0000 
     28 CA        -27.1460    8.8350   20.7850 C.3      12 GLL5        0.0000 
     29 CA        -26.8580    5.0470   19.1380 C.3       8 GLP5        0.0000 
     30 N         -28.5055    9.4860   23.9650 N.am      2 SEC2        0.0000 
     31 N         -27.0930    9.7590   23.0300 N.am     10 SEL2        0.0000 
     32 N         -29.9180    9.2130   24.9000 N.am      6 SEP2        0.0000 
     33 N         -24.7090    9.9540   24.4395 N.am      2 SEC2        0.0000 
     34 N         -24.3590    9.7630   23.0010 N.am     10 SEL2        0.0000 
     35 N         -25.0590   10.1450   25.8780 N.am      6 SEP2        0.0000 
     36 N         -23.3860    9.3950   24.1050 N.am      2 SEC2        0.0000 
     37 N         -22.4130    9.0270   25.2090 N.am      6 SEP2        0.0000 
     38 CA        -26.2620    6.8370   22.3340 C.3       4 GLC5        0.0000 
     39 CA        -25.1010    7.9140   21.5760 C.3      12 GLL5        0.0000 
     40 CA        -27.4230    5.7600   23.0920 C.3       8 GLP5        0.0000 
     41 CA        -25.9795    6.4805   20.3570 C.3       4 GLC5        0.0000 
     42 CA        -25.4385    5.8885   22.4140 C.3       4 GLC5        0.0000 
     43 CA        -23.4540    6.0170   21.7360 C.3      12 GLL5        0.0000 
     44 CA        -25.1560    5.5320   20.4370 C.3       4 GLC5        0.0000 
     45 CA        -24.4385    2.8270   23.0015 C.3       4 GLC5        0.0000 
     46 CA        -23.1900    4.3240   23.3670 C.3      12 GLL5        0.0000 
     47 CA        -25.6870    1.3300   22.6360 C.3       8 GLP5        0.0000 
     48 CA        -25.3065    5.0420   23.2295 C.3       4 GLC5        0.0000 
     49 CA        -23.8600    3.8650   25.2300 C.3       4 GLC5        0.0000 
     50 CA        -24.5300    3.4060   27.0930 C.3       8 GLP5        0.0000 
     51 CA        -21.5135    3.8755   24.1705 C.3       4 GLC5        0.0000 
     52 CA        -19.8370    3.4270   24.9740 C.3       8 GLP5        0.0000 
     53 N         -21.5015    2.5610   23.4950 N.am      2 SEC2        0.0000 
     54 N         -22.1670    3.8010   22.6800 N.am     10 SEL2        0.0000 
     55 N         -20.8360    1.3210   24.3100 N.am      6 SEP2        0.0000 
     56 CA        -20.8040    3.8930   23.2360 C.3       4 GLC5        0.0000 
     57 CA        -21.7710    4.3590   21.4980 C.3      12 GLL5        0.0000 
     58 O         -19.7240    2.7875   21.4510 O.2       1 ALC1        0.0000 
     59 O         -20.7850    3.8390   20.8150 O.2       9 ALL1        0.0000 
     60 O         -18.6630    1.7360   22.0870 O.2       5 ALP1        0.0000 
     61 CA        -33.6405   10.9530   10.2975 C.3       4 GLC5        0.0000 
     62 CA        -32.4720   11.2830    9.0070 C.3      12 GLL5        0.0000 
     63 CA        -34.8090   10.6230   11.5880 C.3       8 GLP5        0.0000 
     64 CA        -34.2140   12.3960    8.1475 C.3       4 GLC5        0.0000 
     65 CA        -35.9560   13.5090    7.2880 C.3       8 GLP5        0.0000 
     66 CA        -33.1965   10.6890    7.4960 C.3       4 GLC5        0.0000 
     67 CA        -30.3315   13.4160    9.3875 C.3       4 GLC5        0.0000 
     68 CA        -30.9830   11.6030    9.1000 C.3      12 GLL5        0.0000 
     69 CA        -29.6800   15.2290    9.6750 C.3       8 GLP5        0.0000 
     70 CA        -30.2243    8.6468    8.6468 C.3       4 GLC5        0.0000 
     71 CA        -30.8290    6.8570    8.9800 C.3       8 GLP5        0.0000 
     72 CA        -27.7950    8.5590    8.3112 C.3       4 GLC5        0.0000 
     73 CA        -29.1000    9.9580    8.6200 C.3      12 GLL5        0.0000 
     74 CA        -26.6447   11.7392    8.8760 C.3       4 GLC5        0.0000 
     75 CA        -25.8030   13.1970    7.9700 C.3       8 GLP5        0.0000 
     76 CA        -27.3338    7.9213   11.2750 C.3       4 GLC5        0.0000 
     77 CA        -27.1850    6.0860   11.6170 C.3       8 GLP5        0.0000 
     78 CA        -26.6820    8.2885   12.7627 C.3       4 GLC5        0.0000 
     79 CA        -25.7890    6.4500   12.1070 C.3       8 GLP5        0.0000 
     80 CA        -29.7745    8.7550   14.9352 C.3       4 GLC5        0.0000 
     81 CA        -27.8540    9.8540   14.0770 C.3      12 GLL5        0.0000 
     82 CA        -31.1650    7.1930   15.4940 C.3       8 GLP5        0.0000 
     83 CA        -27.5965   12.0680   14.2957 C.3       4 GLC5        0.0000 
     84 CA        -28.9140   10.7800   14.6760 C.3      12 GLL5        0.0000 
     85 CA        -26.8090   13.8190   14.2150 C.3       8 GLP5        0.0000 
     86 CA        -30.5517    8.7293   16.4920 C.3       4 GLC5        0.0000 
     87 CA        -27.1163    7.5512   22.1747 C.3       4 GLC5        0.0000 
     88 CA        -20.9349    6.2735   21.8535 C.3       4 GLC5        0.0000 
     89 CA        -19.5170    7.4880   22.2810 C.3       8 GLP5        0.0000 
     90 CA        -31.2353   12.7730    7.4676 C.3       4 GLC5        0.0000 
     91 CA        -30.9540   14.2750    6.1550 C.3       8 GLP5        0.0000 
@<TRIPOS>BOND
@<TRIPOS>SUBSTRUCTURE
     1 ALC1       58 GROUP        1 X    ALC  0     ROOT ALC X 1
     2 SEC2       30 GROUP        1 X    SEC  0     **** SEC X 2
     3 ASC3       18 GROUP        1 X    ASC  0     **** ASC X 3
     4 GLC5        1 GROUP        1 X    GLC  0     **** GLC X 6
     5 ALP1       60 GROUP        1 Y    ALP  0     ROOT ALP Y 8
     6 SEP2       32 GROUP        1 Y    SEP  0     **** SEP Y 9
     7 ASP3       20 GROUP        1 Y    ASP  0     **** ASP Y 10
     8 GLP5        3 GROUP        1 Y    GLP  0     **** GLP Y 13
     9 ALL1       59 GROUP        1 Z    ALL  0     ROOT ALL Z 15
    10 SEL2       31 GROUP        1 Z    SEL  0     **** SEL Z 16
    11 ASL3       19 GROUP        1 Z    ASL  0     **** ASL Z 17
    12 GLL5        2 GROUP        1 Z    GLL  0     **** GLL Z 20
@<TRIPOS>SET

