#    Name: 3ha7_B32_1_ligand
#    Modification time : Tue Mar 25 13:48:04 2014

@<TRIPOS>MOLECULE
3ha7_B32_1_ligand
   69    71     1     0     0
SMALL
NO_CHARGES


@<TRIPOS>ATOM
      1 CAR       -30.1390   10.9150    8.0070 C.3       1 B32302      0.0000 
      2 CAS       -29.1000    9.9580    8.6200 C.3       1 B32302      0.0000 
      3 CAT       -27.8900   10.6940    9.2750 C.3       1 B32302      0.0000 
      4 CAU       -27.0830    9.8690   10.2890 C.3       1 B32302      0.0000 
      5 CAV       -27.8820    9.6440   11.5770 C.3       1 B32302      0.0000 
      6 CAW       -27.2960   10.4000   12.7600 C.3       1 B32302      0.0000 
      7 CAX       -27.8540    9.8540   14.0770 C.3       1 B32302      0.0000 
      8 CAY       -28.9140   10.7800   14.6760 C.3       1 B32302      0.0000 
      9 NAZ       -29.7680   10.0160   15.6020 N.4       1 B32302      0.0000 
     10 CBA       -29.7490   10.7140   16.9000 C.3       1 B32302      0.0000 
     11 CBB       -30.1280    9.8170   18.0800 C.3       1 B32302      0.0000 
     12 SD        -29.1340   10.3560   19.5250 S.3       1 B32302      0.0000 
     13 C5'       -27.5110    9.4700   19.4100 C.3       1 B32302      0.0000 
     14 C4'       -27.1460    8.8350   20.7850 C.3       1 B32302      0.0000 
     15 O4'       -26.2280    7.7150   20.6460 O.3       1 B32302      0.0000 
     16 C3'       -26.4730    9.8500   21.7300 C.3       1 B32302      0.0000 
     17 O3'       -27.0930    9.7590   23.0300 O.3       1 B32302      0.0000 
     18 C2'       -24.9790    9.4430   21.7410 C.3       1 B32302      0.0000 
     19 O2'       -24.3590    9.7630   23.0010 O.3       1 B32302      0.0000 
     20 C1'       -25.1010    7.9140   21.5760 C.3       1 B32302      0.0000 
     21 N9        -23.9280    7.0790   21.0850 N.pl3     1 B32302      0.0000 
     22 C8        -23.2150    7.2280   19.9670 C.2       1 B32302      0.0000 
     23 N7        -22.2790    6.2720   19.8890 N.2       1 B32302      0.0000 
     24 C5        -22.4150    5.5010   20.9720 C.ar      1 B32302      0.0000 
     25 C4        -23.4540    6.0170   21.7360 C.ar      1 B32302      0.0000 
     26 N3        -23.8040    5.4130   22.8970 N.ar      1 B32302      0.0000 
     27 C2        -23.1900    4.3240   23.3670 C.ar      1 B32302      0.0000 
     28 N1        -22.1670    3.8010   22.6800 N.ar      1 B32302      0.0000 
     29 C6        -21.7710    4.3590   21.4980 C.ar      1 B32302      0.0000 
     30 N6        -20.7850    3.8390   20.8150 N.pl3     1 B32302      0.0000 
     31 CAP       -32.4720   11.2830    9.0070 C.3       1 B32302      0.0000 
     32 CAQ       -30.9830   11.6030    9.1000 C.3       1 B32302      0.0000 
     33 H         -30.7992   10.3522    7.3503 H         1 B32302      0.0000 
     34 H         -29.6237   11.6761    7.4247 H         1 B32302      0.0000 
     35 H         -28.7183    9.2919    7.8391 H         1 B32302      0.0000 
     36 H         -29.5845    9.3411    9.3841 H         1 B32302      0.0000 
     37 H         -28.2700   11.6050    9.7719 H         1 B32302      0.0000 
     38 H         -27.2159   11.0328    8.4675 H         1 B32302      0.0000 
     39 H         -26.1616   10.3978   10.5258 H         1 B32302      0.0000 
     40 H         -26.8348    8.9056    9.8475 H         1 B32302      0.0000 
     41 H         -27.8965    8.5722   11.8028 H         1 B32302      0.0000 
     42 H         -28.9154    9.9691   11.4148 H         1 B32302      0.0000 
     43 H         -27.5473   11.4553   12.6770 H         1 B32302      0.0000 
     44 H         -26.2134   10.2918   12.7598 H         1 B32302      0.0000 
     45 H         -27.0351    9.7370   14.7913 H         1 B32302      0.0000 
     46 H         -28.2966    8.8709   13.8977 H         1 B32302      0.0000 
     47 H         -29.5053   11.1992   13.8629 H         1 B32302      0.0000 
     48 H         -28.4082   11.5913   15.1981 H         1 B32302      0.0000 
     49 H         -30.4468   11.5721   16.8839 H         1 B32302      0.0000 
     50 H         -28.7436   11.1314   17.0959 H         1 B32302      0.0000 
     51 H         -29.8299    8.8169   17.9709 H         1 B32302      0.0000 
     52 H         -31.1089    9.9558   18.4259 H         1 B32302      0.0000 
     53 H         -26.8584   10.2460   19.1173 H         1 B32302      0.0000 
     54 H         -27.7032    8.7586   18.6547 H         1 B32302      0.0000 
     55 H         -28.0629    8.5074   21.2621 H         1 B32302      0.0000 
     56 H         -26.5589   10.8089   21.2872 H         1 B32302      0.0000 
     57 H         -24.5189    9.8342   20.8989 H         1 B32302      0.0000 
     58 H         -25.4411    7.5066   22.5519 H         1 B32302      0.0000 
     59 H         -23.3530    7.9322   19.2987 H         1 B32302      0.0000 
     60 H         -23.5026    3.8854   24.2582 H         1 B32302      0.0000 
     61 H         -20.0892    3.3550   21.3457 H         1 B32302      0.0000 
     62 H         -20.8170    3.9729   19.8245 H         1 B32302      0.0000 
     63 H         -30.8400   12.6893    9.0213 H         1 B32302      0.0000 
     64 H         -30.6056   11.2901   10.0830 H         1 B32302      0.0000 
     65 H         -32.6476   10.3027    9.0979 H         1 B32302      0.0000 
     66 H         -32.9961   11.7424    9.7241 H         1 B32302      0.0000 
     67 H         -32.8596   11.5702    8.1310 H         1 B32302      0.0000 
     68 H         -26.3547    9.9334   23.6815 H         1 B32302      0.0000 
     69 H         -24.0144   10.6952   22.8904 H         1 B32302      0.0000 
@<TRIPOS>BOND
     1    2    1 1    
     2   32    1 1    
     3   33    1 1    
     4   34    1 1    
     5    3    2 1    
     6   35    2 1    
     7   36    2 1    
     8    4    3 1    
     9   37    3 1    
    10   38    3 1    
    11    5    4 1    
    12   39    4 1    
    13   40    4 1    
    14    6    5 1    
    15   41    5 1    
    16   42    5 1    
    17    7    6 1    
    18   43    6 1    
    19   44    6 1    
    20    8    7 1    
    21   45    7 1    
    22   46    7 1    
    23    9    8 1    
    24   47    8 1    
    25   48    8 1    
    26   10    9 1    
    27   11   10 1    
    28   49   10 1    
    29   50   10 1    
    30   12   11 1    
    31   51   11 1    
    32   52   11 1    
    33   13   12 1    
    34   14   13 1    
    35   53   13 1    
    36   54   13 1    
    37   15   14 1    
    38   16   14 1    
    39   55   14 1    
    40   20   15 1    
    41   17   16 1    
    42   18   16 1    
    43   56   16 1    
    44   68   17 1    
    45   19   18 1    
    46   20   18 1    
    47   57   18 1    
    48   69   19 1    
    49   21   20 1    
    50   58   20 1    
    51   22   21 1    
    52   25   21 1    
    53   23   22 2    
    54   59   22 1    
    55   24   23 1    
    56   25   24 ar   
    57   29   24 ar   
    58   26   25 ar   
    59   27   26 ar   
    60   28   27 ar   
    61   60   27 1    
    62   29   28 ar   
    63   30   29 1    
    64   61   30 1    
    65   62   30 1    
    66   32   31 1    
    67   65   31 1    
    68   66   31 1    
    69   67   31 1    
    70   63   32 1    
    71   64   32 1    
@<TRIPOS>SUBSTRUCTURE
     1 B32302      1 GROUP   
@<TRIPOS>SET

