#    Name: 2qmd_CS7_2_INTS_M
#    Modification time : Mon Mar 24 22:29:31 2014

@<TRIPOS>MOLECULE
2qmd_CS7_2_INTS_M
  115     0    12     0     0
SMALL
NO_CHARGES


@<TRIPOS>ATOM
      1 CA         14.9935   33.4400   52.7985 C.3       4 GLC5        0.0000 
      2 CA         16.4600   34.1290   53.6150 C.3      12 GLL5        0.0000 
      3 CA         13.5270   32.7510   51.9820 C.3       8 GLP5        0.0000 
      4 CA         16.0340   35.0530   52.2590 C.3       4 GLC5        0.0000 
      5 CA         15.6080   35.9770   50.9030 C.3       8 GLP5        0.0000 
      6 CA         22.2350   32.3425   53.5250 C.3       4 GLC5        0.0000 
      7 CA         20.4630   31.5630   53.2060 C.3      12 GLL5        0.0000 
      8 CA         24.0070   33.1220   53.8440 C.3       8 GLP5        0.0000 
      9 CA         21.2555   30.0230   52.9435 C.3       4 GLC5        0.0000 
     10 CA         22.0480   28.4830   52.6810 C.3       8 GLP5        0.0000 
     11 CA         20.8590   32.5820   51.9585 C.3       4 GLC5        0.0000 
     12 CA         21.2550   33.6010   50.7110 C.3       8 GLP5        0.0000 
     13 O          18.4065   34.1335   58.1815 O.2       1 ALC1        0.0000 
     14 O          19.6150   33.3020   58.0730 O.2       9 ALL1        0.0000 
     15 O          17.1980   34.9650   58.2900 O.2       5 ALP1        0.0000 
     16 O          21.8310   37.0900   57.9195 O.2       1 ALC1        0.0000 
     17 O          22.2200   35.9600   58.5440 O.2       9 ALL1        0.0000 
     18 O          21.4420   38.2200   57.2950 O.2       5 ALP1        0.0000 
     19 OD1        20.5205   36.2610   61.3795 O.co2     3 ASC3        0.0000 
     20 OD1        21.9430   35.1140   61.2730 O.co2    11 ASL3        0.0000 
     21 OD1        19.0980   37.4080   61.4860 O.co2     7 ASP3        0.0000 
     22 OD1        20.7665   35.3070   61.8225 O.co2     3 ASC3        0.0000 
     23 OD1        19.5900   35.5000   62.3720 O.co2     7 ASP3        0.0000 
     24 CA         22.5285   35.0585   63.8170 C.3       4 GLC5        0.0000 
     25 CA         22.7640   34.2830   62.1750 C.3      12 GLL5        0.0000 
     26 CA         22.2930   35.8340   65.4590 C.3       8 GLP5        0.0000 
     27 CA         23.3040   32.6415   57.9505 C.3       4 GLC5        0.0000 
     28 CA         22.9290   33.4280   59.8950 C.3      12 GLL5        0.0000 
     29 CA         23.6790   31.8550   56.0060 C.3       8 GLP5        0.0000 
     30 CA         18.7275   36.2210   57.7100 C.3       4 GLC5        0.0000 
     31 CA         20.2920   35.1380   56.5860 C.3      12 GLL5        0.0000 
     32 CA         17.1630   37.3040   58.8340 C.3       8 GLP5        0.0000 
     33 CA         18.3515   30.7655   54.1065 C.3       4 GLC5        0.0000 
     34 CA         18.4460   32.8210   53.3770 C.3      12 GLL5        0.0000 
     35 CA         18.2570   28.7100   54.8360 C.3       8 GLP5        0.0000 
     36 CA         19.1130   31.9525   51.4175 C.3       4 GLC5        0.0000 
     37 CA         19.7800   31.0840   49.4580 C.3       8 GLP5        0.0000 
     38 CA         22.0275   32.5750   55.4235 C.3       4 GLC5        0.0000 
     39 CA         20.3760   33.2950   54.8410 C.3      12 GLL5        0.0000 
     40 CA         16.2240   30.9530   60.6695 C.3       4 GLC5        0.0000 
     41 CA         16.3610   29.5660   59.0390 C.3      12 GLL5        0.0000 
     42 CA         16.0870   32.3400   62.3000 C.3       8 GLP5        0.0000 
     43 CA         20.5885   29.4485   59.5935 C.3       4 GLC5        0.0000 
     44 CA         18.7940   29.9390   59.2140 C.3      12 GLL5        0.0000 
     45 CA         22.3830   28.9580   59.9730 C.3       8 GLP5        0.0000 
     46 N          22.2800   30.6695   58.0735 N.am      2 SEC2        0.0000 
     47 N          20.9720   31.4820   58.1040 N.am     10 SEL2        0.0000 
     48 N          23.5880   29.8570   58.0430 N.am      6 SEP2        0.0000 
     49 N          21.1805   30.0370   57.5725 N.am      2 SEC2        0.0000 
     50 N          21.3890   28.5920   57.0410 N.am      6 SEP2        0.0000 
     51 CA         19.8345   27.7805   60.4500 C.3       4 GLC5        0.0000 
     52 CA         17.7830   27.8780   60.2220 C.3      12 GLL5        0.0000 
     53 CA         21.8860   27.6830   60.6780 C.3       8 GLP5        0.0000 
     54 CA         17.3120   28.6140   62.1680 C.3       4 GLC5        0.0000 
     55 CA         16.8410   29.3500   64.1140 C.3       8 GLP5        0.0000 
     56 N          13.7405   32.4085   59.6425 N.am      2 SEC2        0.0000 
     57 N          13.9920   31.4070   58.7110 N.am     10 SEL2        0.0000 
     58 N          13.4890   33.4100   60.5740 N.am      6 SEP2        0.0000 
     59 N          12.6850   32.0620   58.7070 N.am      2 SEC2        0.0000 
     60 N          11.3780   32.7170   58.7030 N.am      6 SEP2        0.0000 
     61 N          26.2490   34.0990   62.2315 N.am      2 SEC2        0.0000 
     62 N          24.9090   33.8970   61.2240 N.am     10 SEL2        0.0000 
     63 N          27.5890   34.3010   63.2390 N.am      6 SEP2        0.0000 
     64 CA         25.8955   34.5590   61.9885 C.3       4 GLC5        0.0000 
     65 CA         25.7490   33.0240   60.4680 C.3      12 GLL5        0.0000 
     66 CA         26.0420   36.0940   63.5090 C.3       8 GLP5        0.0000 
     67 CA         27.6375   37.4430   60.3065 C.3       4 GLC5        0.0000 
     68 CA         27.4610   35.9860   58.6340 C.3      12 GLL5        0.0000 
     69 CA         27.8140   38.9000   61.9790 C.3       8 GLP5        0.0000 
     70 CA         30.0805   35.4995   56.4320 C.3       4 GLC5        0.0000 
     71 CA         28.2610   35.2870   57.6850 C.3      12 GLL5        0.0000 
     72 CA         31.9000   35.7120   55.1790 C.3       8 GLP5        0.0000 
     73 CA         12.2840   32.1820   58.1600 C.3       4 GLC5        0.0000 
     74 CA         13.3150   31.9180   56.2220 C.3      12 GLL5        0.0000 
     75 CA         11.2530   32.4460   60.0980 C.3       8 GLP5        0.0000 
     76 CA         11.7945   34.0595   54.6775 C.3       4 GLC5        0.0000 
     77 CA         13.3520   33.3770   55.7300 C.3      12 GLL5        0.0000 
     78 CA         10.2370   34.7420   53.6250 C.3       8 GLP5        0.0000 
     79 CA         12.9750   36.0760   55.8825 C.3       4 GLC5        0.0000 
     80 CA         14.0670   34.3360   56.6910 C.3      12 GLL5        0.0000 
     81 CA         11.8830   37.8160   55.0740 C.3       8 GLP5        0.0000 
     82 CA         14.9295   34.2835   58.6620 C.3       4 GLC5        0.0000 
     83 CA         15.7920   34.2310   60.6330 C.3       8 GLP5        0.0000 
     84 CA         19.6797   30.5252   54.7280 C.3       4 GLC5        0.0000 
     85 CA         19.7740   32.5400   53.7960 C.3      12 GLL5        0.0000 
     86 CA         19.2410   28.9990   55.9550 C.3       8 GLP5        0.0000 
     87 CA         24.6105   34.9588   62.6183 C.3       4 GLC5        0.0000 
     88 CA         23.5940   33.3640   61.2800 C.3      12 GLL5        0.0000 
     89 CA         22.3585   34.6165   56.6767 C.3       4 GLC5        0.0000 
     90 CA         20.7190   34.2230   57.7500 C.3      12 GLL5        0.0000 
     91 CA         24.1010   34.3390   55.8850 C.3       8 GLP5        0.0000 
     92 CA         20.6077   36.3742   54.9485 C.3       4 GLC5        0.0000 
     93 CA         21.2470   38.0100   53.8660 C.3       8 GLP5        0.0000 
     94 CA         17.4571   36.0802   54.1241 C.3       4 GLC5        0.0000 
     95 CA         18.3090   34.6260   55.0590 C.3      12 GLL5        0.0000 
     96 CA         17.2170   37.8490   53.8130 C.3       8 GLP5        0.0000 
     97 CA         17.7653   29.5862   57.3175 C.3       4 GLC5        0.0000 
     98 CA         16.2180   30.7810   58.3210 C.3      12 GLL5        0.0000 
     99 CA         16.2942   32.7073   59.4108 C.3       4 GLC5        0.0000 
    100 CA         17.3750   31.5860   58.0560 C.3      12 GLL5        0.0000 
    101 CA         18.7297   29.2700   57.6515 C.3       4 GLC5        0.0000 
    102 CA         18.6295   30.1875   57.1172 C.3       4 GLC5        0.0000 
    103 CA         18.6610   31.1660   58.5030 C.3      12 GLL5        0.0000 
    104 CA         25.8588   36.9453   58.3695 C.3       4 GLC5        0.0000 
    105 CA         26.6420   35.2590   59.5440 C.3      12 GLL5        0.0000 
    106 CA         24.6660   38.2680   57.6500 C.3       8 GLP5        0.0000 
    107 CA         27.9945   34.6035   55.7990 C.3       4 GLC5        0.0000 
    108 CA         27.7380   34.6330   53.9330 C.3       8 GLP5        0.0000 
    109 CA         26.2830   32.3858   57.3972 C.3       4 GLC5        0.0000 
    110 CA         28.2410   33.8610   57.6450 C.3      12 GLL5        0.0000 
    111 CA         24.9360   31.1010   56.4560 C.3       8 GLP5        0.0000 
    112 CA         13.4302   32.6992   53.9790 C.3       4 GLC5        0.0000 
    113 CA         14.4465   31.7457   53.5012 C.3       4 GLC5        0.0000 
    114 CA         15.0960   30.2150   54.5300 C.3      12 GLL5        0.0000 
    115 CA         16.6028   29.2814   54.9826 C.3       4 GLC5        0.0000 
@<TRIPOS>BOND
@<TRIPOS>SUBSTRUCTURE
     1 ALC1       13 GROUP        1 X    ALC  0     ROOT ALC X 1
     2 SEC2       46 GROUP        1 X    SEC  0     **** SEC X 2
     3 ASC3       19 GROUP        1 X    ASC  0     **** ASC X 3
     4 GLC5        1 GROUP        1 X    GLC  0     **** GLC X 6
     5 ALP1       15 GROUP        1 Y    ALP  0     ROOT ALP Y 8
     6 SEP2       48 GROUP        1 Y    SEP  0     **** SEP Y 9
     7 ASP3       21 GROUP        1 Y    ASP  0     **** ASP Y 10
     8 GLP5        3 GROUP        1 Y    GLP  0     **** GLP Y 13
     9 ALL1       14 GROUP        1 Z    ALL  0     ROOT ALL Z 15
    10 SEL2       47 GROUP        1 Z    SEL  0     **** SEL Z 16
    11 ASL3       20 GROUP        1 Z    ASL  0     **** ASL Z 17
    12 GLL5        2 GROUP        1 Z    GLL  0     **** GLL Z 20
@<TRIPOS>SET

