#    Name: 2qmd_CS7_2_ligand
#    Modification time : Mon Mar 24 22:29:31 2014

@<TRIPOS>MOLECULE
2qmd_CS7_2_ligand
   86    89     1     0     0
SMALL
NO_CHARGES


@<TRIPOS>ATOM
      1 F1         16.4600   34.1290   53.6150 F         1 CS71        0.0000 
      2 F2         20.4630   31.5630   53.2060 F         1 CS71        0.0000 
      3 N1         19.6150   33.3020   58.0730 N.am      1 CS71        0.0000 
      4 C1         20.7190   34.2230   57.7500 C.3       1 CS71        0.0000 
      5 C2         21.1610   35.0770   58.9520 C.3       1 CS71        0.0000 
      6 C3         21.6360   34.2190   60.1460 C.3       1 CS71        0.0000 
      7 O1         22.2200   35.9600   58.5440 O.3       1 CS71        0.0000 
      8 N2         21.9430   35.1140   61.2730 N.4       1 CS71        0.0000 
      9 C4         22.7640   34.2830   62.1750 C.3       1 CS71        0.0000 
     10 C5         23.5940   33.3640   61.2800 C.3       1 CS71        0.0000 
     11 C6         22.9290   33.4280   59.8950 C.3       1 CS71        0.0000 
     12 C7         20.2920   35.1380   56.5860 C.3       1 CS71        0.0000 
     13 C8         19.6450   34.3390   55.4760 C.ar      1 CS71        0.0000 
     14 C9         18.3090   34.6260   55.0590 C.ar      1 CS71        0.0000 
     15 C10        17.7110   33.8650   54.0080 C.ar      1 CS71        0.0000 
     16 C11        18.4460   32.8210   53.3770 C.ar      1 CS71        0.0000 
     17 C12        19.7740   32.5400   53.7960 C.ar      1 CS71        0.0000 
     18 C13        20.3760   33.2950   54.8410 C.ar      1 CS71        0.0000 
     19 C14        16.2180   30.7810   58.3210 C.ar      1 CS71        0.0000 
     20 C15        16.3610   29.5660   59.0390 C.ar      1 CS71        0.0000 
     21 C16        17.6430   29.1430   59.4820 C.ar      1 CS71        0.0000 
     22 C17        18.7940   29.9390   59.2140 C.ar      1 CS71        0.0000 
     23 C18        18.6610   31.1660   58.5030 C.ar      1 CS71        0.0000 
     24 C19        17.3750   31.5860   58.0560 C.ar      1 CS71        0.0000 
     25 C20        14.8830   31.2290   57.8910 C.2       1 CS71        0.0000 
     26 C21        19.8500   31.9710   58.2150 C.2       1 CS71        0.0000 
     27 O2         20.9720   31.4820   58.1040 O.2       1 CS71        0.0000 
     28 C22        17.7830   27.8780   60.2220 C.3       1 CS71        0.0000 
     29 N3         14.6570   31.4590   56.5750 N.am      1 CS71        0.0000 
     30 O3         13.9920   31.4070   58.7110 O.2       1 CS71        0.0000 
     31 O4         24.9090   33.8970   61.2240 O.3       1 CS71        0.0000 
     32 C23        25.7490   33.0240   60.4680 C.3       1 CS71        0.0000 
     33 C24        26.6180   33.8270   59.5070 C.ar      1 CS71        0.0000 
     34 C25        26.6420   35.2590   59.5440 C.ar      1 CS71        0.0000 
     35 C26        27.4610   35.9860   58.6340 C.ar      1 CS71        0.0000 
     36 C27        28.2610   35.2870   57.6850 C.ar      1 CS71        0.0000 
     37 C28        28.2410   33.8610   57.6450 C.ar      1 CS71        0.0000 
     38 C29        27.4200   33.1330   58.5570 C.ar      1 CS71        0.0000 
     39 C30        13.3150   31.9180   56.2220 C.3       1 CS71        0.0000 
     40 C31        13.3520   33.3770   55.7300 C.3       1 CS71        0.0000 
     41 C32        14.0670   34.3360   56.6910 C.3       1 CS71        0.0000 
     42 C33        15.6360   31.2660   55.5110 C.3       1 CS71        0.0000 
     43 C34        15.0960   30.2150   54.5300 C.3       1 CS71        0.0000 
     44 C35        14.5310   28.9650   55.2380 C.3       1 CS71        0.0000 
     45 H          18.6851   33.7159   58.1809 H         1 CS71        0.0000 
     46 H          21.5847   33.6552   57.4053 H         1 CS71        0.0000 
     47 H          20.2998   35.6548   59.2832 H         1 CS71        0.0000 
     48 H          20.8620   33.5406   60.4328 H         1 CS71        0.0000 
     49 H          22.1425   33.6779   62.8129 H         1 CS71        0.0000 
     50 H          23.4309   34.8933   62.7598 H         1 CS71        0.0000 
     51 H          23.5403   32.3879   61.6491 H         1 CS71        0.0000 
     52 H          23.5505   33.9619   59.2254 H         1 CS71        0.0000 
     53 H          22.6920   32.4500   59.5677 H         1 CS71        0.0000 
     54 H          21.1738   35.6528   56.2048 H         1 CS71        0.0000 
     55 H          19.5893   35.8801   56.9648 H         1 CS71        0.0000 
     56 H          17.7850   35.3699   55.5090 H         1 CS71        0.0000 
     57 H          18.0205   32.2798   52.6296 H         1 CS71        0.0000 
     58 H          21.3278   33.0895   55.1346 H         1 CS71        0.0000 
     59 H          15.5407   28.9929   59.2386 H         1 CS71        0.0000 
     60 H          19.7099   29.6310   59.5303 H         1 CS71        0.0000 
     61 H          17.2727   32.4606   57.5460 H         1 CS71        0.0000 
     62 H          25.1618   32.3107   59.8732 H         1 CS71        0.0000 
     63 H          26.4169   32.4411   61.1172 H         1 CS71        0.0000 
     64 H          26.0705   35.7546   60.2243 H         1 CS71        0.0000 
     65 H          27.4750   37.0018   58.6612 H         1 CS71        0.0000 
     66 H          28.8476   35.8043   57.0346 H         1 CS71        0.0000 
     67 H          28.8116   33.3636   56.9669 H         1 CS71        0.0000 
     68 H          27.4085   32.1159   58.5274 H         1 CS71        0.0000 
     69 H          12.6434   31.8706   57.0848 H         1 CS71        0.0000 
     70 H          12.8867   31.3042   55.4235 H         1 CS71        0.0000 
     71 H          12.3202   33.7255   55.5788 H         1 CS71        0.0000 
     72 H          13.8556   33.4081   54.7531 H         1 CS71        0.0000 
     73 H          16.5825   30.9058   55.9064 H         1 CS71        0.0000 
     74 H          15.8068   32.1875   54.9601 H         1 CS71        0.0000 
     75 H          15.9026   29.9049   53.8569 H         1 CS71        0.0000 
     76 H          14.3033   30.6651   53.9228 H         1 CS71        0.0000 
     77 H          18.7336   27.6994   60.4757 H         1 CS71        0.0000 
     78 H          17.2496   27.8815   61.0678 H         1 CS71        0.0000 
     79 H          17.4717   27.0957   59.6825 H         1 CS71        0.0000 
     80 H          15.0197   34.0709   56.8398 H         1 CS71        0.0000 
     81 H          14.0746   35.2734   56.3429 H         1 CS71        0.0000 
     82 H          13.6259   34.3601   57.5881 H         1 CS71        0.0000 
     83 H          15.2257   28.5061   55.7920 H         1 CS71        0.0000 
     84 H          13.7736   29.1948   55.8491 H         1 CS71        0.0000 
     85 H          14.1860   28.2918   54.5839 H         1 CS71        0.0000 
     86 H          21.7612   36.7151   58.0757 H         1 CS71        0.0000 
@<TRIPOS>BOND
     1   15    1 1    
     2   17    2 1    
     3    4    3 1    
     4   26    3 am   
     5   45    3 1    
     6    5    4 1    
     7   12    4 1    
     8   46    4 1    
     9    6    5 1    
    10    7    5 1    
    11   47    5 1    
    12    8    6 1    
    13   11    6 1    
    14   48    6 1    
    15   86    7 1    
    16    9    8 1    
    17   10    9 1    
    18   49    9 1    
    19   50    9 1    
    20   11   10 1    
    21   31   10 1    
    22   51   10 1    
    23   52   11 1    
    24   53   11 1    
    25   13   12 1    
    26   54   12 1    
    27   55   12 1    
    28   14   13 ar   
    29   18   13 ar   
    30   15   14 ar   
    31   56   14 1    
    32   16   15 ar   
    33   17   16 ar   
    34   57   16 1    
    35   18   17 ar   
    36   58   18 1    
    37   20   19 ar   
    38   24   19 ar   
    39   25   19 1    
    40   21   20 ar   
    41   59   20 1    
    42   22   21 ar   
    43   28   21 1    
    44   23   22 ar   
    45   60   22 1    
    46   24   23 ar   
    47   26   23 1    
    48   61   24 1    
    49   29   25 am   
    50   30   25 2    
    51   27   26 2    
    52   77   28 1    
    53   78   28 1    
    54   79   28 1    
    55   39   29 1    
    56   42   29 1    
    57   32   31 1    
    58   33   32 1    
    59   62   32 1    
    60   63   32 1    
    61   34   33 ar   
    62   38   33 ar   
    63   35   34 ar   
    64   64   34 1    
    65   36   35 ar   
    66   65   35 1    
    67   37   36 ar   
    68   66   36 1    
    69   38   37 ar   
    70   67   37 1    
    71   68   38 1    
    72   40   39 1    
    73   69   39 1    
    74   70   39 1    
    75   41   40 1    
    76   71   40 1    
    77   72   40 1    
    78   80   41 1    
    79   81   41 1    
    80   82   41 1    
    81   43   42 1    
    82   73   42 1    
    83   74   42 1    
    84   44   43 1    
    85   75   43 1    
    86   76   43 1    
    87   83   44 1    
    88   84   44 1    
    89   85   44 1    
@<TRIPOS>SUBSTRUCTURE
     1 CS71        1 GROUP   
@<TRIPOS>SET

