#    Name: 1jvg_UD2_1_INTS_M
#    Modification time : Tue Mar 25 09:29:39 2014

@<TRIPOS>MOLECULE
1jvg_UD2_1_INTS_M
   89     0    12     0     0
SMALL
NO_CHARGES


@<TRIPOS>ATOM
      1 CA         -2.2310   -4.3330   26.1880 C.3       4 GLC5        0.0000 
      2 CA         -0.5680   -3.2380   26.7910 C.3      12 GLL5        0.0000 
      3 CA         -3.8940   -5.4280   25.5850 C.3       8 GLP5        0.0000 
      4 CA         -2.5225    0.4545   26.6590 C.3       4 GLC5        0.0000 
      5 CA         -0.9640    0.2390   25.2260 C.3      12 GLL5        0.0000 
      6 CA         -4.0810    0.6700   28.0920 C.3       8 GLP5        0.0000 
      7 CA         -1.6270    1.9815   25.5845 C.3       4 GLC5        0.0000 
      8 CA         -2.2900    3.7240   25.9430 C.3       8 GLP5        0.0000 
      9 CA          2.8875   -8.6785   25.6500 C.3       4 GLC5        0.0000 
     10 CA          2.6800   -6.8550   25.6540 C.3      12 GLL5        0.0000 
     11 CA          3.0950  -10.5020   25.6460 C.3       8 GLP5        0.0000 
     12 CA          2.6220   -6.5405   27.4440 C.3       4 GLC5        0.0000 
     13 CA          2.5640   -6.2260   29.2340 C.3       8 GLP5        0.0000 
     14 O           0.1755   -5.9135   26.2810 O.2       1 ALC1        0.0000 
     15 O           1.1130   -5.0320   25.9550 O.2       9 ALL1        0.0000 
     16 O          -0.7620   -6.7950   26.6070 O.2       5 ALP1        0.0000 
     17 N          -1.5375   -3.5610   29.0735 N.am      2 SEC2        0.0000 
     18 N          -0.3170   -3.7210   28.1190 N.am     10 SEL2        0.0000 
     19 N          -2.7580   -3.4010   30.0280 N.am      6 SEP2        0.0000 
     20 N           0.8590   -3.1515   28.9060 N.am      2 SEC2        0.0000 
     21 N           2.0350   -2.5820   29.6930 N.am      6 SEP2        0.0000 
     22 O          -0.8770   -4.9390   28.3365 O.2       1 ALC1        0.0000 
     23 O          -0.3170   -3.7210   28.1190 O.2       9 ALL1        0.0000 
     24 O          -1.4370   -6.1570   28.5540 O.2       5 ALP1        0.0000 
     25 O          -0.5395   -5.2580   27.3630 O.2       1 ALC1        0.0000 
     26 O           0.0355   -0.2985   28.4325 O.2       1 ALC1        0.0000 
     27 O           0.4390   -1.0110   27.4680 O.2       9 ALL1        0.0000 
     28 O          -0.3680    0.4140   29.3970 O.2       5 ALP1        0.0000 
     29 N          -0.9530    0.1295   22.7025 N.am      2 SEC2        0.0000 
     30 N          -1.2790    0.7140   23.9280 N.am     10 SEL2        0.0000 
     31 N          -0.6270   -0.4550   21.4770 N.am      6 SEP2        0.0000 
     32 N           4.1950   -5.0695   24.5805 N.am      2 SEC2        0.0000 
     33 N           3.3370   -4.5750   25.6470 N.am     10 SEL2        0.0000 
     34 N           5.0530   -5.5640   23.5140 N.am      6 SEP2        0.0000 
     35 O           8.3905   -7.7760   17.9870 O.2       1 ALC1        0.0000 
     36 O           7.2520   -7.3540   18.6030 O.2       9 ALL1        0.0000 
     37 O           9.5290   -8.1980   17.3710 O.2       5 ALP1        0.0000 
     38 CA          5.5060   -9.4475   20.0515 C.3       4 GLC5        0.0000 
     39 CA          4.8960   -7.7610   19.0580 C.3      12 GLL5        0.0000 
     40 CA          6.1160  -11.1340   21.0450 C.3       8 GLP5        0.0000 
     41 CA          6.2935   -7.8405   20.6675 C.3       4 GLC5        0.0000 
     42 CA          7.6910   -7.9200   22.2770 C.3       8 GLP5        0.0000 
     43 CA          5.9040   -6.4865   20.9680 C.3       4 GLC5        0.0000 
     44 CA          4.7360   -6.4550   19.3730 C.3      12 GLL5        0.0000 
     45 CA          7.0720   -6.5180   22.5630 C.3       8 GLP5        0.0000 
     46 N           8.6080   -4.7825   17.5290 N.am      2 SEC2        0.0000 
     47 N           8.2000   -5.3780   18.8170 N.am     10 SEL2        0.0000 
     48 N           9.0160   -4.1870   16.2410 N.am      6 SEP2        0.0000 
     49 N           8.0020   -9.8180   18.3260 N.am      2 SEC2        0.0000 
     50 N           6.4420   -9.3750   18.3580 N.am     10 SEL2        0.0000 
     51 N           9.5620  -10.2610   18.2940 N.am      6 SEP2        0.0000 
     52 N           6.5425  -10.6600   19.1615 N.am      2 SEC2        0.0000 
     53 N           6.6430  -11.9450   19.9650 N.am      6 SEP2        0.0000 
     54 CA          7.3860   -3.2730   20.3900 C.3       4 GLC5        0.0000 
     55 CA          5.8140   -4.1380   19.6430 C.3      12 GLL5        0.0000 
     56 CA          8.9580   -2.4080   21.1370 C.3       8 GLP5        0.0000 
     57 CA          6.4430   -5.3280   21.1030 C.3       4 GLC5        0.0000 
     58 CA          5.0885   -4.3075   16.8935 C.3       4 GLC5        0.0000 
     59 CA          4.8990   -3.3100   18.7540 C.3      12 GLL5        0.0000 
     60 CA          5.2780   -5.3050   15.0330 C.3       8 GLP5        0.0000 
     61 N           6.1440   -3.9845   16.4925 N.am      2 SEC2        0.0000 
     62 N           5.6350   -2.9460   17.5560 N.am     10 SEL2        0.0000 
     63 N           6.6530   -5.0230   15.4290 N.am      6 SEP2        0.0000 
     64 CA          5.0670   -0.4590   18.3160 C.3       4 GLC5        0.0000 
     65 CA          4.4980   -2.1360   19.7010 C.3      12 GLL5        0.0000 
     66 CA          5.6360    1.2180   16.9310 C.3       8 GLP5        0.0000 
     67 CA          6.7500   -2.6095   21.1205 C.3       4 GLC5        0.0000 
     68 CA          4.5420   -2.8110   21.1040 C.3      12 GLL5        0.0000 
     69 N           5.1930   -4.7760   22.2420 N.am      2 SEC2        0.0000 
     70 N           5.3330   -3.9880   20.9700 N.am     10 SEL2        0.0000 
     71 N           5.9230    0.4000   19.7965 N.am      2 SEC2        0.0000 
     72 N           5.5150   -1.1560   19.6740 N.am     10 SEL2        0.0000 
     73 N           6.3310    1.9560   19.9190 N.am      6 SEP2        0.0000 
     74 N          -2.8915   -5.7230   22.8145 N.am      2 SEC2        0.0000 
     75 N          -1.7270   -5.2760   22.3060 N.am     10 SEL2        0.0000 
     76 N          -4.0560   -6.1700   23.3230 N.am      6 SEP2        0.0000 
     77 NZ         -1.1090   -1.6385   21.8390 N.4       3 LYC4        0.0000 
     78 NZ         -1.5910   -2.8220   22.2010 N.4      11 LYL4        0.0000 
     79 NZ         -0.6270   -0.4550   21.4770 N.4       7 LYP4        0.0000 
     80 N          -1.1090   -1.6385   21.8390 N.am      2 SEC2        0.0000 
     81 N          -1.5910   -2.8220   22.2010 N.am     10 SEL2        0.0000 
     82 CA         -2.3300   -2.1458   27.7365 C.3       4 GLC5        0.0000 
     83 CA         -0.4820   -1.6850   26.7490 C.3      12 GLL5        0.0000 
     84 CA         -4.1350   -1.8300   28.7030 C.3       8 GLP5        0.0000 
     85 CA         -1.4980   -0.2850   23.2345 C.3       4 GLC5        0.0000 
     86 CA         -0.8980   -1.3030   25.2980 C.3      12 GLL5        0.0000 
     87 CA         -2.0650   -0.0380   21.2070 C.3       8 GLP5        0.0000 
     88 CA          3.6870   -1.1019   21.3039 C.3       4 GLC5        0.0000 
     89 CA          3.5340    0.6840   21.6030 C.3       8 GLP5        0.0000 
@<TRIPOS>BOND
@<TRIPOS>SUBSTRUCTURE
     1 ALC1       14 GROUP        1 X    ALC  0     ROOT ALC X 1
     2 SEC2       17 GROUP        1 X    SEC  0     **** SEC X 2
     3 LYC4       77 GROUP        1 X    LYC  0     **** LYC X 4
     4 GLC5        1 GROUP        1 X    GLC  0     **** GLC X 6
     5 ALP1       16 GROUP        1 Y    ALP  0     ROOT ALP Y 8
     6 SEP2       19 GROUP        1 Y    SEP  0     **** SEP Y 9
     7 LYP4       79 GROUP        1 Y    LYP  0     **** LYP Y 11
     8 GLP5        3 GROUP        1 Y    GLP  0     **** GLP Y 13
     9 ALL1       15 GROUP        1 Z    ALL  0     ROOT ALL Z 15
    10 SEL2       18 GROUP        1 Z    SEL  0     **** SEL Z 16
    11 LYL4       78 GROUP        1 Z    LYL  0     **** LYL Z 18
    12 GLL5        2 GROUP        1 Z    GLL  0     **** GLL Z 20
@<TRIPOS>SET

