#    Name: 1jvg_UD2_1_ligand
#    Modification time : Tue Mar 25 09:29:39 2014

@<TRIPOS>MOLECULE
1jvg_UD2_1_ligand
   64    66     1     0     0
SMALL
NO_CHARGES


@<TRIPOS>ATOM
      1 C1'         0.6180   -3.0890   24.5010 C.3       1 UD21901     0.0000 
      2 C2'         0.7830   -3.5700   26.0340 C.3       1 UD21901     0.0000 
      3 C3'        -0.5680   -3.2380   26.7910 C.3       1 UD21901     0.0000 
      4 C4'        -0.4820   -1.6850   26.7490 C.3       1 UD21901     0.0000 
      5 C5'        -0.8980   -1.3030   25.2980 C.3       1 UD21901     0.0000 
      6 C6'        -0.9640    0.2390   25.2260 C.3       1 UD21901     0.0000 
      7 C7'         2.3940   -5.3930   25.7580 C.2       1 UD21901     0.0000 
      8 C8'         2.6800   -6.8550   25.6540 C.3       1 UD21901     0.0000 
      9 N2'         1.1130   -5.0320   25.9550 N.am      1 UD21901     0.0000 
     10 O1'        -0.3580   -4.0040   23.9710 O.3       1 UD21901     0.0000 
     11 O3'        -0.3170   -3.7210   28.1190 O.3       1 UD21901     0.0000 
     12 O4'         0.4390   -1.0110   27.4680 O.3       1 UD21901     0.0000 
     13 O5'         0.2290   -1.6530   24.4640 O.3       1 UD21901     0.0000 
     14 O6'        -1.2790    0.7140   23.9280 O.3       1 UD21901     0.0000 
     15 O7'         3.3370   -4.5750   25.6470 O.2       1 UD21901     0.0000 
     16 N1          5.9350   -5.5500   19.3010 N.am      1 UD21901     0.0000 
     17 C2          7.1710   -6.0460   18.9000 C.2       1 UD21901     0.0000 
     18 N3          7.2520   -7.3540   18.6030 N.am      1 UD21901     0.0000 
     19 C4          6.2510   -8.2290   18.6410 C.2       1 UD21901     0.0000 
     20 C5          4.8960   -7.7610   19.0580 C.2       1 UD21901     0.0000 
     21 C6          4.7360   -6.4550   19.3730 C.2       1 UD21901     0.0000 
     22 O2          8.2000   -5.3780   18.8170 O.2       1 UD21901     0.0000 
     23 O4          6.4420   -9.3750   18.3580 O.2       1 UD21901     0.0000 
     24 C1B         5.8140   -4.1380   19.6430 C.3       1 UD21901     0.0000 
     25 C2B         4.8990   -3.3100   18.7540 C.3       1 UD21901     0.0000 
     26 O2'         5.6350   -2.9460   17.5560 O.3       1 UD21901     0.0000 
     27 C3B         4.4980   -2.1360   19.7010 C.3       1 UD21901     0.0000 
     28 C4B         4.5420   -2.8110   21.1040 C.3       1 UD21901     0.0000 
     29 O4B         5.3330   -3.9880   20.9700 O.3       1 UD21901     0.0000 
     30 O3B         5.5150   -1.1560   19.6740 O.3       1 UD21901     0.0000 
     31 C5B         3.1600   -3.3020   21.6070 C.3       1 UD21901     0.0000 
     32 O5B         2.6370   -4.3370   20.7760 O.3       1 UD21901     0.0000 
     33 PA          1.3530   -5.1350   21.0890 P.3       1 UD21901     0.0000 
     34 O1A         1.7730   -6.1710   22.1450 O.co2     1 UD21901     0.0000 
     35 O2A         0.9020   -5.7770   19.8620 O.co2     1 UD21901     0.0000 
     36 O3A         0.3670   -4.0980   21.5510 O.3       1 UD21901     0.0000 
     37 PB         -0.8510   -4.0850   22.4690 P.3       1 UD21901     0.0000 
     38 O1B        -1.7270   -5.2760   22.3060 O.co2     1 UD21901     0.0000 
     39 O2B        -1.5910   -2.8220   22.2010 O.co2     1 UD21901     0.0000 
     40 H           1.5832   -3.2500   24.0627 H         1 UD21901     0.0000 
     41 H           1.5732   -3.0063   26.4401 H         1 UD21901     0.0000 
     42 H          -1.3260   -3.5921   26.2833 H         1 UD21901     0.0000 
     43 H          -1.5817   -1.4575   27.2960 H         1 UD21901     0.0000 
     44 H          -1.7697   -1.7275   25.0354 H         1 UD21901     0.0000 
     45 H           0.0153    0.6195   25.5796 H         1 UD21901     0.0000 
     46 H          -1.7105    0.5642   25.9782 H         1 UD21901     0.0000 
     47 H           0.3407   -5.6745   26.0560 H         1 UD21901     0.0000 
     48 H           8.2292   -7.7267   18.3044 H         1 UD21901     0.0000 
     49 H           4.1613   -8.4502   19.0837 H         1 UD21901     0.0000 
     50 H           3.8671   -6.0332   19.6558 H         1 UD21901     0.0000 
     51 H           6.8158   -3.6616   19.5882 H         1 UD21901     0.0000 
     52 H           4.0317   -3.8924   18.5632 H         1 UD21901     0.0000 
     53 H           3.5511   -1.8311   19.4968 H         1 UD21901     0.0000 
     54 H           4.9554   -2.1426   21.8070 H         1 UD21901     0.0000 
     55 H           2.4968   -2.4227   21.6363 H         1 UD21901     0.0000 
     56 H           3.2967   -3.6385   22.6472 H         1 UD21901     0.0000 
     57 H           3.6534   -7.0337   25.5107 H         1 UD21901     0.0000 
     58 H           2.4107   -7.3460   26.4825 H         1 UD21901     0.0000 
     59 H           2.1892   -7.2761   24.8912 H         1 UD21901     0.0000 
     60 H          -0.7955   -4.5976   28.1702 H         1 UD21901     0.0000 
     61 H          -0.0241   -0.1753   27.7631 H         1 UD21901     0.0000 
     62 H          -2.2747    0.8066   23.9210 H         1 UD21901     0.0000 
     63 H           4.9564   -2.9589   16.8216 H         1 UD21901     0.0000 
     64 H           5.9372   -1.2460   18.7720 H         1 UD21901     0.0000 
@<TRIPOS>BOND
     1    2    1 1    
     2   10    1 1    
     3   13    1 1    
     4   40    1 1    
     5    3    2 1    
     6    9    2 1    
     7   41    2 1    
     8    4    3 1    
     9   11    3 1    
    10   42    3 1    
    11    5    4 1    
    12   12    4 1    
    13   43    4 1    
    14    6    5 1    
    15   13    5 1    
    16   44    5 1    
    17   14    6 1    
    18   45    6 1    
    19   46    6 1    
    20    8    7 1    
    21    9    7 am   
    22   15    7 2    
    23   57    8 1    
    24   58    8 1    
    25   59    8 1    
    26   47    9 1    
    27   37   10 1    
    28   60   11 1    
    29   61   12 1    
    30   62   14 1    
    31   17   16 1    
    32   21   16 1    
    33   24   16 1    
    34   18   17 1    
    35   22   17 2    
    36   19   18 1    
    37   48   18 1    
    38   20   19 1    
    39   23   19 2    
    40   21   20 2    
    41   49   20 1    
    42   50   21 1    
    43   25   24 1    
    44   29   24 1    
    45   51   24 1    
    46   26   25 1    
    47   27   25 1    
    48   52   25 1    
    49   63   26 1    
    50   28   27 1    
    51   30   27 1    
    52   53   27 1    
    53   29   28 1    
    54   31   28 1    
    55   54   28 1    
    56   64   30 1    
    57   32   31 1    
    58   55   31 1    
    59   56   31 1    
    60   33   32 1    
    61   34   33 ar   
    62   35   33 ar   
    63   36   33 1    
    64   37   36 1    
    65   38   37 ar   
    66   39   37 ar   
@<TRIPOS>SUBSTRUCTURE
     1 UD21901     1 GROUP   
@<TRIPOS>SET

