#    Name: 1utt_CP8_1_INTS_M
#    Modification time : Tue Mar 25 07:04:56 2014

@<TRIPOS>MOLECULE
1utt_CP8_1_INTS_M
   63     0     9     0     0
SMALL
NO_CHARGES


@<TRIPOS>ATOM
      1 CA        118.7595   39.3180   80.3110 C.3       3 GLC5        0.0000 
      2 CA        120.0250   37.5110   80.3020 C.3       9 GLL5        0.0000 
      3 CA        117.4940   41.1250   80.3200 C.3       6 GLP5        0.0000 
      4 Zn        117.0285   35.7120   79.7445 Zn        2 ZIC7        0.0000 
      5 Zn        120.5530   38.7440   79.9670 Zn        8 ZIL7        0.0000 
      6 Zn        113.5040   32.6800   79.5220 Zn        5 ZIP7        0.0000 
      7 CA        118.6225   39.1445   77.8555 C.3       3 GLC5        0.0000 
      8 CA        119.9280   37.4420   77.8680 C.3       9 GLL5        0.0000 
      9 CA        117.3170   40.8470   77.8430 C.3       6 GLP5        0.0000 
     10 CA        119.1080   37.3550   75.8355 C.3       3 GLC5        0.0000 
     11 CA        118.2880   37.2680   73.8030 C.3       6 GLP5        0.0000 
     12 CA        121.5165   39.6705   82.7940 C.3       3 GLC5        0.0000 
     13 CA        121.0470   39.6920   80.9670 C.3       9 GLL5        0.0000 
     14 CA        121.9860   39.6490   84.6210 C.3       6 GLP5        0.0000 
     15 CA        119.2705   40.4085   80.6435 C.3       3 GLC5        0.0000 
     16 CA        120.4425   41.8035   80.9225 C.3       3 GLC5        0.0000 
     17 CA        119.8380   43.9150   80.8780 C.3       6 GLP5        0.0000 
     18 CA        121.1340   34.6500   81.0810 C.3       3 GLC5        0.0000 
     19 CA        119.2800   35.6620   81.7290 C.3       9 GLL5        0.0000 
     20 CA        122.9880   33.6380   80.4330 C.3       6 GLP5        0.0000 
     21 N         123.4250   37.2945   78.7115 N.am      1 SEC2        0.0000 
     22 N         122.3760   38.3450   78.3490 N.am      7 SEL2        0.0000 
     23 N         124.4740   36.2440   79.0740 N.am      4 SEP2        0.0000 
     24 CA        116.6405   34.1735   80.9110 C.3       3 GLC5        0.0000 
     25 CA        118.2820   33.5010   80.7450 C.3       9 GLL5        0.0000 
     26 CA        114.9990   34.8460   81.0770 C.3       6 GLP5        0.0000 
     27 CA        120.4050   32.0550   81.8760 C.3       3 GLC5        0.0000 
     28 CA        119.2570   32.3960   80.2780 C.3       9 GLL5        0.0000 
     29 CA        121.5530   31.7140   83.4740 C.3       6 GLP5        0.0000 
     30 CA        121.1225   33.0170   80.3555 C.3       3 GLC5        0.0000 
     31 CA        118.7025   31.1995   83.7105 C.3       3 GLC5        0.0000 
     32 CA        117.3400   32.0110   82.4280 C.3       9 GLL5        0.0000 
     33 CA        120.0650   30.3880   84.9930 C.3       6 GLP5        0.0000 
     34 CA        117.9095   33.0950   84.1980 C.3       3 GLC5        0.0000 
     35 CA        118.4790   34.1790   85.9680 C.3       6 GLP5        0.0000 
     36 CA        116.1695   33.4285   81.7525 C.3       3 GLC5        0.0000 
     37 CA        119.2230   28.1315   81.3425 C.3       3 GLC5        0.0000 
     38 CA        119.5210   29.8940   80.0020 C.3       9 GLL5        0.0000 
     39 CA        118.9250   26.3690   82.6830 C.3       6 GLP5        0.0000 
     40 CA        120.3210   30.1010   81.9420 C.3       3 GLC5        0.0000 
     41 CA        121.1210   30.3080   83.8820 C.3       6 GLP5        0.0000 
     42 N         118.3565   28.9885   83.1175 N.am      1 SEC2        0.0000 
     43 N         117.6500   29.6550   82.1070 N.am      7 SEL2        0.0000 
     44 N         119.0630   28.3220   84.1280 N.am      4 SEP2        0.0000 
     45 CA        118.9565   27.0810   80.6745 C.3       3 GLC5        0.0000 
     46 CA        118.9880   27.7930   78.6660 C.3       9 GLL5        0.0000 
     47 CA        117.7475   25.9920   79.5915 C.3       3 GLC5        0.0000 
     48 CA        118.1720   27.0370   77.7890 C.3       9 GLL5        0.0000 
     49 CA        117.3230   24.9470   81.3940 C.3       6 GLP5        0.0000 
     50 CA        119.2185   36.4712   83.5942 C.3       3 GLC5        0.0000 
     51 CA        119.8420   36.9650   81.5940 C.3       9 GLL5        0.0000 
     52 CA        118.8760   36.6290   85.5270 C.3       6 GLP5        0.0000 
     53 CA        117.2777   35.6090   80.4325 C.3       3 GLC5        0.0000 
     54 CA        118.8950   34.8820   80.5830 C.3       9 GLL5        0.0000 
     55 CA        115.5680   36.0670   80.9380 C.3       6 GLP5        0.0000 
     56 CA        120.9303   34.7945   79.5310 C.3       3 GLC5        0.0000 
     57 CA        122.8730   34.4380   79.1350 C.3       6 GLP5        0.0000 
     58 CA        121.3760   35.8563   78.9619 C.3       3 GLC5        0.0000 
     59 CA        117.8169   36.7570   81.6488 C.3       3 GLC5        0.0000 
     60 CA        116.0270   37.0640   81.9590 C.3       6 GLP5        0.0000 
     61 CA        116.7955   30.6120   76.5798 C.3       3 GLC5        0.0000 
     62 CA        117.4080   29.6540   78.5350 C.3       9 GLL5        0.0000 
     63 CA        116.5930   31.9480   75.0630 C.3       6 GLP5        0.0000 
@<TRIPOS>BOND
@<TRIPOS>SUBSTRUCTURE
     1 SEC2       21 GROUP        1 X    SEC  0     ROOT SEC X 2
     2 ZIC7        4 GROUP        1 X    ZIC  0     **** ZIC X 5
     3 GLC5        1 GROUP        1 X    GLC  0     **** GLC X 6
     4 SEP2       23 GROUP        1 Y    SEP  0     ROOT SEP Y 9
     5 ZIP7        6 GROUP        1 Y    ZIP  0     **** ZIP Y 12
     6 GLP5        3 GROUP        1 Y    GLP  0     **** GLP Y 13
     7 SEL2       22 GROUP        1 Z    SEL  0     ROOT SEL Z 16
     8 ZIL7        5 GROUP        1 Z    ZIL  0     **** ZIL Z 19
     9 GLL5        2 GROUP        1 Z    GLL  0     **** GLL Z 20
@<TRIPOS>SET

