#    Name: 1utt_CP8_1_ligand
#    Modification time : Tue Mar 25 07:04:56 2014

@<TRIPOS>MOLECULE
1utt_CP8_1_ligand
   46    49     1     0     0
SMALL
NO_CHARGES


@<TRIPOS>ATOM
      1 C1        120.0250   37.5110   80.3020 C.ar      1 CP81266     0.0000 
      2 C2        119.6350   36.7030   79.1170 C.ar      1 CP81266     0.0000 
      3 N3        120.5530   38.7440   79.9670 N.pl3     1 CP81266     0.0000 
      4 C4        119.8420   36.9650   81.5940 C.ar      1 CP81266     0.0000 
      5 C5        119.0800   35.4200   79.2710 C.ar      1 CP81266     0.0000 
      6 C6        119.9280   37.4420   77.8680 C.3       1 CP81266     0.0000 
      7 S7        121.0080   38.7540   78.3900 S.o2      1 CP81266     0.0000 
      8 C8        121.0470   39.6920   80.9670 C.3       1 CP81266     0.0000 
      9 C9        119.2800   35.6620   81.7290 C.ar      1 CP81266     0.0000 
     10 C10       118.8950   34.8820   80.5830 C.ar      1 CP81266     0.0000 
     11 O11       120.6250   40.0090   77.8130 O.2       1 CP81266     0.0000 
     12 O12       122.3760   38.3450   78.3490 O.2       1 CP81266     0.0000 
     13 C13       118.2820   33.5010   80.7450 C.3       1 CP81266     0.0000 
     14 C14       119.2570   32.3960   80.2780 C.3       1 CP81266     0.0000 
     15 O15       117.9630   33.2610   82.1120 O.3       1 CP81266     0.0000 
     16 N16       118.8740   31.0270   80.7130 N.am      1 CP81266     0.0000 
     17 C17       117.3400   32.0110   82.4280 C.3       1 CP81266     0.0000 
     18 C18       119.5210   29.8940   80.0020 C.3       1 CP81266     0.0000 
     19 C19       117.9660   30.7770   81.7390 C.2       1 CP81266     0.0000 
     20 C20       118.6200   29.1080   79.0530 C.ar      1 CP81266     0.0000 
     21 O21       117.6500   29.6550   82.1070 O.2       1 CP81266     0.0000 
     22 C22       117.4080   29.6540   78.5350 C.ar      1 CP81266     0.0000 
     23 C23       118.9880   27.7930   78.6660 C.ar      1 CP81266     0.0000 
     24 C24       116.5880   28.8980   77.6580 C.ar      1 CP81266     0.0000 
     25 C25       118.1720   27.0370   77.7890 C.ar      1 CP81266     0.0000 
     26 C26       116.9710   27.5900   77.2850 C.ar      1 CP81266     0.0000 
     27 H         120.1065   37.4915   82.4192 H         1 CP81266     0.0000 
     28 H         118.8083   34.8695   78.4606 H         1 CP81266     0.0000 
     29 H         119.1130   37.9608   77.4668 H         1 CP81266     0.0000 
     30 H         120.5173   36.9190   77.1798 H         1 CP81266     0.0000 
     31 H         119.1441   35.2647   82.6661 H         1 CP81266     0.0000 
     32 H         117.3996   33.4369   80.1248 H         1 CP81266     0.0000 
     33 H         120.2632   32.6493   80.6594 H         1 CP81266     0.0000 
     34 H         119.3176   32.4423   79.1752 H         1 CP81266     0.0000 
     35 H         116.2572   32.0177   82.1564 H         1 CP81266     0.0000 
     36 H         117.3623   31.8133   83.5265 H         1 CP81266     0.0000 
     37 H         119.9471   29.1799   80.7445 H         1 CP81266     0.0000 
     38 H         120.3946   30.2674   79.4189 H         1 CP81266     0.0000 
     39 H         117.1299   30.6019   78.8010 H         1 CP81266     0.0000 
     40 H         119.8573   27.3854   79.0271 H         1 CP81266     0.0000 
     41 H         115.7230   29.3007   77.2983 H         1 CP81266     0.0000 
     42 H         118.4511   26.0929   77.5209 H         1 CP81266     0.0000 
     43 H         116.3840   27.0452   76.6542 H         1 CP81266     0.0000 
     44 H         121.7932   39.3051   81.5088 H         1 CP81266     0.0000 
     45 H         121.3947   40.5293   80.5451 H         1 CP81266     0.0000 
     46 H         120.3292   39.9631   81.6083 H         1 CP81266     0.0000 
@<TRIPOS>BOND
     1    2    1 ar   
     2    3    1 1    
     3    4    1 ar   
     4    5    2 ar   
     5    6    2 1    
     6    7    3 1    
     7    8    3 1    
     8    9    4 ar   
     9   27    4 1    
    10   10    5 ar   
    11   28    5 1    
    12    7    6 1    
    13   29    6 1    
    14   30    6 1    
    15   11    7 2    
    16   12    7 2    
    17   44    8 1    
    18   45    8 1    
    19   46    8 1    
    20   10    9 ar   
    21   31    9 1    
    22   13   10 1    
    23   14   13 1    
    24   15   13 1    
    25   32   13 1    
    26   16   14 1    
    27   33   14 1    
    28   34   14 1    
    29   17   15 1    
    30   18   16 1    
    31   19   16 am   
    32   19   17 1    
    33   35   17 1    
    34   36   17 1    
    35   20   18 1    
    36   37   18 1    
    37   38   18 1    
    38   21   19 2    
    39   22   20 ar   
    40   23   20 ar   
    41   24   22 ar   
    42   39   22 1    
    43   25   23 ar   
    44   40   23 1    
    45   26   24 ar   
    46   41   24 1    
    47   26   25 ar   
    48   42   25 1    
    49   43   26 1    
@<TRIPOS>SUBSTRUCTURE
     1 CP81266     1 GROUP   
@<TRIPOS>SET

