#    Name: 3uce_NDP_2_INTS_M
#    Modification time : Mon Mar 24 22:09:36 2014

@<TRIPOS>MOLECULE
3uce_NDP_2_INTS_M
  118     0    12     0     0
SMALL
NO_CHARGES


@<TRIPOS>ATOM
      1 N          24.0925  -32.1040    8.6275 N.am      2 SEC2        0.0000 
      2 N          23.2740  -31.8840    9.6460 N.am     10 SEL2        0.0000 
      3 N          24.9110  -32.3240    7.6090 N.am      6 SEP2        0.0000 
      4 N          24.5495  -32.1005   13.2350 N.am      2 SEC2        0.0000 
      5 N          24.5100  -32.3470   11.9020 N.am     10 SEL2        0.0000 
      6 N          24.5890  -31.8540   14.5680 N.am      6 SEP2        0.0000 
      7 CA         24.7935  -30.3295   13.2410 C.3       4 GLC5        0.0000 
      8 CA         25.8900  -29.7990   11.4420 C.3      12 GLL5        0.0000 
      9 CA         23.6970  -30.8600   15.0400 C.3       8 GLP5        0.0000 
     10 CA         27.1135  -27.0265    9.8310 C.3       4 GLC5        0.0000 
     11 CA         26.8980  -28.8800   10.7430 C.3      12 GLL5        0.0000 
     12 CA         27.3290  -25.1730    8.9190 C.3       8 GLP5        0.0000 
     13 CA         26.9615  -27.0300   11.8685 C.3       4 GLC5        0.0000 
     14 CA         27.0250  -25.1800   12.9940 C.3       8 GLP5        0.0000 
     15 N          27.4065  -27.6115   13.1330 N.am      2 SEC2        0.0000 
     16 N          27.7660  -28.2180   11.6620 N.am     10 SEL2        0.0000 
     17 N          27.0470  -27.0050   14.6040 N.am      6 SEP2        0.0000 
     18 O          28.5635  -28.8660    7.3645 O.2       1 ALC1        0.0000 
     19 O          27.8280  -28.8200    8.5880 O.2       9 ALL1        0.0000 
     20 O          29.2990  -28.9120    6.1410 O.2       5 ALP1        0.0000 
     21 CA         28.1830  -26.7570   10.0270 C.3       4 GLC5        0.0000 
     22 CA         29.0370  -28.3410   11.1350 C.3      12 GLL5        0.0000 
     23 CA         28.0310  -26.7605   12.0645 C.3       4 GLC5        0.0000 
     24 CA         33.2910  -28.7220   13.3105 C.3       4 GLC5        0.0000 
     25 CA         31.6580  -27.6230   13.4870 C.3      12 GLL5        0.0000 
     26 CA         34.9240  -29.8210   13.1340 C.3       8 GLP5        0.0000 
     27 CA         33.9710  -27.8085   12.9635 C.3       4 GLC5        0.0000 
     28 CA         32.7450  -26.8480   13.8470 C.3      12 GLL5        0.0000 
     29 CA         35.1970  -28.7690   12.0800 C.3       8 GLP5        0.0000 
     30 CA         34.6515  -25.8725   13.3645 C.3       4 GLC5        0.0000 
     31 CA         36.5580  -24.8970   12.8820 C.3       8 GLP5        0.0000 
     32 CA         32.2800  -25.0540   14.4105 C.3       4 GLC5        0.0000 
     33 CA         31.8150  -23.2600   14.9740 C.3       8 GLP5        0.0000 
     34 O          34.8075  -26.4020   15.2685 O.2       1 ALC1        0.0000 
     35 O          33.4300  -27.1570   15.0660 O.2       9 ALL1        0.0000 
     36 O          36.1850  -25.6470   15.4710 O.2       5 ALP1        0.0000 
     37 N          33.8995  -24.7175   13.4085 N.am      2 SEC2        0.0000 
     38 N          33.1060  -25.8180   13.0540 N.am     10 SEL2        0.0000 
     39 N          34.6930  -23.6170   13.7630 N.am      6 SEP2        0.0000 
     40 CA         32.5175  -25.8735   10.0930 C.3       4 GLC5        0.0000 
     41 CA         32.4390  -25.5410   11.9210 C.3      12 GLL5        0.0000 
     42 CA         32.5960  -26.2060    8.2650 C.3       8 GLP5        0.0000 
     43 CA         33.8180  -27.1550   12.0005 C.3       4 GLC5        0.0000 
     44 CA         34.4985  -25.2190   12.4015 C.3       4 GLC5        0.0000 
     45 CA         32.4880  -23.9715   12.9420 C.3       4 GLC5        0.0000 
     46 CA         32.5370  -22.4020   13.9630 C.3       8 GLP5        0.0000 
     47 CA         30.4325  -25.0475   12.3980 C.3       4 GLC5        0.0000 
     48 CA         28.4260  -24.5540   12.8750 C.3       8 GLP5        0.0000 
     49 CA         31.2555  -27.3070   10.2815 C.3       4 GLC5        0.0000 
     50 CA         30.9910  -27.3320   12.3150 C.3      12 GLL5        0.0000 
     51 CA         31.5200  -27.2820    8.2480 C.3       8 GLP5        0.0000 
     52 CA         33.0940  -28.0505   12.1975 C.3       4 GLC5        0.0000 
     53 N          20.0475  -31.9925   11.2495 N.am      2 SEC2        0.0000 
     54 N          20.3740  -30.9140   11.7100 N.am     10 SEL2        0.0000 
     55 N          19.7210  -33.0710   10.7890 N.am      6 SEP2        0.0000 
     56 N          20.8140  -28.9340    8.9515 N.am      2 SEC2        0.0000 
     57 N          21.4530  -29.1800   10.1870 N.am     10 SEL2        0.0000 
     58 N          20.1750  -28.6880    7.7160 N.am      6 SEP2        0.0000 
     59 CA         19.7065  -27.4955   11.7460 C.3       4 GLC5        0.0000 
     60 CA         21.7330  -27.3960   12.5030 C.3      12 GLL5        0.0000 
     61 CA         17.6800  -27.5950   10.9890 C.3       8 GLP5        0.0000 
     62 CA         22.2805  -25.8000   16.8375 C.3       4 GLC5        0.0000 
     63 CA         22.1020  -26.9140   14.9050 C.3      12 GLL5        0.0000 
     64 CA         22.4590  -24.6860   18.7700 C.3       8 GLP5        0.0000 
     65 N          21.3445  -26.7330   17.7520 N.am      2 SEC2        0.0000 
     66 N          21.3710  -27.8400   16.9140 N.am     10 SEL2        0.0000 
     67 N          21.3180  -25.6260   18.5900 N.am      6 SEP2        0.0000 
     68 CA         19.6595  -25.2840   14.8905 C.3       4 GLC5        0.0000 
     69 CA         19.8850  -27.1450   15.2540 C.3      12 GLL5        0.0000 
     70 CA         19.4340  -23.4230   14.5270 C.3       8 GLP5        0.0000 
     71 CA         17.9980  -28.3915   12.7530 C.3       4 GLC5        0.0000 
     72 CA         18.3160  -29.1880   14.5170 C.3      12 GLL5        0.0000 
     73 CA         16.6555  -27.7715   14.3380 C.3       4 GLC5        0.0000 
     74 CA         14.9950  -26.3550   14.1590 C.3       8 GLP5        0.0000 
     75 N          15.1065  -32.2010   13.9305 N.am      2 SEC2        0.0000 
     76 N          16.2440  -32.1660   14.7720 N.am     10 SEL2        0.0000 
     77 N          13.9690  -32.2360   13.0890 N.am      6 SEP2        0.0000 
     78 O          16.8615  -32.6460   12.4310 O.2       1 ALC1        0.0000 
     79 O          17.7860  -31.6130   13.0720 O.2       9 ALL1        0.0000 
     80 O          15.9370  -33.6790   11.7900 O.2       5 ALP1        0.0000 
     81 N          31.9755  -29.2845    7.8555 N.am      2 SEC2        0.0000 
     82 N          32.2250  -30.3710    8.5210 N.am     10 SEL2        0.0000 
     83 N          31.7260  -28.1980    7.1900 N.am      6 SEP2        0.0000 
     84 N          33.6285  -30.0160    8.0415 N.am      2 SEC2        0.0000 
     85 N          35.0320  -29.6610    7.5620 N.am      6 SEP2        0.0000 
     86 N          31.7165  -31.0535    7.3320 N.am      2 SEC2        0.0000 
     87 N          31.2080  -31.7360    6.1430 N.am      6 SEP2        0.0000 
     88 NZ         31.7485  -31.9870   11.8445 N.4       3 LYC4        0.0000 
     89 NZ         31.3660  -31.7760   10.4290 N.4      11 LYL4        0.0000 
     90 NZ         33.2560  -31.5700   13.5940 N.4       7 LYP4        0.0000 
     91 N          31.7485  -31.9870   11.8445 N.am      2 SEC2        0.0000 
     92 N          31.3660  -31.7760   10.4290 N.am     10 SEL2        0.0000 
     93 N          32.1310  -32.1980   13.2600 N.am      6 SEP2        0.0000 
     94 NZ         32.8950  -30.0160   11.8455 N.4       3 LYC4        0.0000 
     95 NZ         32.0820  -29.4610   10.8450 N.4      11 LYL4        0.0000 
     96 N          33.0990  -28.6020   10.1055 N.am      2 SEC2        0.0000 
     97 N          32.0820  -29.4610   10.8450 N.am     10 SEL2        0.0000 
     98 N          34.1160  -27.7430    9.3660 N.am      6 SEP2        0.0000 
     99 N          32.8950  -30.0160   11.8455 N.am      2 SEC2        0.0000 
    100 N          33.7080  -30.5710   12.8460 N.am      6 SEP2        0.0000 
    101 CA         26.3612  -30.3276    8.8161 C.3       4 GLC5        0.0000 
    102 CA         27.7350  -29.5890    9.7480 C.3      12 GLL5        0.0000 
    103 CA         25.6580  -31.1910    7.2120 C.3       8 GLP5        0.0000 
    104 CA         30.2688  -28.1423    9.5100 C.3       4 GLC5        0.0000 
    105 CA         28.9980  -29.6640   10.4090 C.3      12 GLL5        0.0000 
    106 CA         29.8753  -26.0157   12.8880 C.3       4 GLC5        0.0000 
    107 CA         31.3603  -26.8147   15.2640 C.3       4 GLC5        0.0000 
    108 CA         30.5190  -26.3940   16.8610 C.3       8 GLP5        0.0000 
    109 CA         22.3102  -25.5735   11.8262 C.3       4 GLC5        0.0000 
    110 CA         23.0640  -24.1940   10.5770 C.3       8 GLP5        0.0000 
    111 CA         20.5875  -25.0675   14.4017 C.3       4 GLC5        0.0000 
    112 CA         21.3800  -26.5100   13.6480 C.3      12 GLL5        0.0000 
    113 CA         22.9730  -28.7237   15.7215 C.3       4 GLC5        0.0000 
    114 CA         24.3000  -30.0950   16.2200 C.3       8 GLP5        0.0000 
    115 CA         16.8308  -26.4695   17.8785 C.3       4 GLC5        0.0000 
    116 CA         16.9240  -28.4450   16.9490 C.3      12 GLL5        0.0000 
    117 CA         16.1770  -24.9060   19.0830 C.3       8 GLP5        0.0000 
    118 CA         16.1818  -27.3484   15.3283 C.3       4 GLC5        0.0000 
@<TRIPOS>BOND
@<TRIPOS>SUBSTRUCTURE
     1 ALC1       18 GROUP        1 X    ALC  0     ROOT ALC X 1
     2 SEC2        1 GROUP        1 X    SEC  0     **** SEC X 2
     3 LYC4       88 GROUP        1 X    LYC  0     **** LYC X 4
     4 GLC5        7 GROUP        1 X    GLC  0     **** GLC X 6
     5 ALP1       20 GROUP        1 Y    ALP  0     ROOT ALP Y 8
     6 SEP2        3 GROUP        1 Y    SEP  0     **** SEP Y 9
     7 LYP4       90 GROUP        1 Y    LYP  0     **** LYP Y 11
     8 GLP5        9 GROUP        1 Y    GLP  0     **** GLP Y 13
     9 ALL1       19 GROUP        1 Z    ALL  0     ROOT ALL Z 15
    10 SEL2        2 GROUP        1 Z    SEL  0     **** SEL Z 16
    11 LYL4       89 GROUP        1 Z    LYL  0     **** LYL Z 18
    12 GLL5        8 GROUP        1 Z    GLL  0     **** GLL Z 20
@<TRIPOS>SET

