#    Name: 3uce_NDP_2_ligand
#    Modification time : Mon Mar 24 22:09:36 2014

@<TRIPOS>MOLECULE
3uce_NDP_2_ligand
   74    78     1     0     0
SMALL
NO_CHARGES


@<TRIPOS>ATOM
      1 PA         23.8540  -31.2820   10.9480 P.3       1 NDP500      0.0000 
      2 O1A        23.2740  -31.8840    9.6460 O.co2     1 NDP500      0.0000 
      3 O2A        24.5100  -32.3470   11.9020 O.co2     1 NDP500      0.0000 
      4 O5B        24.9390  -30.2580   10.5380 O.3       1 NDP500      0.0000 
      5 C5B        25.8900  -29.7990   11.4420 C.3       1 NDP500      0.0000 
      6 C4B        26.8980  -28.8800   10.7430 C.3       1 NDP500      0.0000 
      7 O4B        27.7660  -28.2180   11.6620 O.3       1 NDP500      0.0000 
      8 C3B        27.7350  -29.5890    9.7480 C.3       1 NDP500      0.0000 
      9 O3B        27.8280  -28.8200    8.5880 O.3       1 NDP500      0.0000 
     10 C2B        28.9980  -29.6640   10.4090 C.3       1 NDP500      0.0000 
     11 O2B        30.0020  -29.8630    9.4430 O.3       1 NDP500      0.0000 
     12 C1B        29.0370  -28.3410   11.1350 C.3       1 NDP500      0.0000 
     13 N9A        30.0040  -28.2530   12.2030 N.pl3     1 NDP500      0.0000 
     14 C8A        30.0630  -29.0780   13.2650 C.2       1 NDP500      0.0000 
     15 N7A        31.0820  -28.6980   14.0560 N.2       1 NDP500      0.0000 
     16 C5A        31.6580  -27.6230   13.4870 C.ar      1 NDP500      0.0000 
     17 C6A        32.7450  -26.8480   13.8470 C.ar      1 NDP500      0.0000 
     18 N6A        33.4300  -27.1570   15.0660 N.pl3     1 NDP500      0.0000 
     19 N1A        33.1060  -25.8180   13.0540 N.ar      1 NDP500      0.0000 
     20 C2A        32.4390  -25.5410   11.9210 C.ar      1 NDP500      0.0000 
     21 N3A        31.3910  -26.2890   11.5550 N.ar      1 NDP500      0.0000 
     22 C4A        30.9910  -27.3320   12.3150 C.ar      1 NDP500      0.0000 
     23 O3         22.8400  -30.5350   11.9150 O.3       1 NDP500      0.0000 
     24 PN         21.4300  -29.8640   11.5590 P.3       1 NDP500      0.0000 
     25 O1N        20.3740  -30.9140   11.7100 O.co2     1 NDP500      0.0000 
     26 O2N        21.4530  -29.1800   10.1870 O.co2     1 NDP500      0.0000 
     27 O5D        21.2740  -28.7180   12.6630 O.3       1 NDP500      0.0000 
     28 C5D        21.7330  -27.3960   12.5030 C.3       1 NDP500      0.0000 
     29 C4D        21.3800  -26.5100   13.6480 C.3       1 NDP500      0.0000 
     30 O4D        20.0220  -26.6330   13.9260 O.3       1 NDP500      0.0000 
     31 C3D        22.1020  -26.9140   14.9050 C.3       1 NDP500      0.0000 
     32 O3D        22.3480  -25.8020   15.7300 O.3       1 NDP500      0.0000 
     33 C2D        21.1900  -27.7910   15.5410 C.3       1 NDP500      0.0000 
     34 O2D        21.3710  -27.8400   16.9140 O.3       1 NDP500      0.0000 
     35 C1D        19.8850  -27.1450   15.2540 C.3       1 NDP500      0.0000 
     36 N1N        18.7740  -28.0830   15.2540 N.pl3     1 NDP500      0.0000 
     37 C2N        18.3160  -29.1880   14.5170 C.2       1 NDP500      0.0000 
     38 C3N        17.3160  -30.1010   15.0940 C.2       1 NDP500      0.0000 
     39 C7N        17.0590  -31.3600   14.3360 C.2       1 NDP500      0.0000 
     40 O7N        16.2440  -32.1660   14.7720 O.2       1 NDP500      0.0000 
     41 N7N        17.7860  -31.6130   13.0720 N.am      1 NDP500      0.0000 
     42 C4N        16.4600  -29.6800   16.2430 C.3       1 NDP500      0.0000 
     43 C5N        16.9240  -28.4450   16.9490 C.2       1 NDP500      0.0000 
     44 C6N        18.0450  -27.6210   16.3990 C.2       1 NDP500      0.0000 
     45 P2B        31.4610  -30.4030    9.8350 P.3       1 NDP500      0.0000 
     46 O1X        32.2250  -30.3710    8.5210 O.co2     1 NDP500      0.0000 
     47 O2X        31.3660  -31.7760   10.4290 O.co2     1 NDP500      0.0000 
     48 O3X        32.0820  -29.4610   10.8450 O.co2     1 NDP500      0.0000 
     49 H          26.4684  -30.6183   11.9038 H         1 NDP500      0.0000 
     50 H          25.4454  -29.2183   12.2692 H         1 NDP500      0.0000 
     51 H          26.3093  -28.1153   10.1934 H         1 NDP500      0.0000 
     52 H          27.3336  -30.5545    9.5938 H         1 NDP500      0.0000 
     53 H          28.9550  -30.4438   11.1463 H         1 NDP500      0.0000 
     54 H          29.2057  -27.5674   10.3924 H         1 NDP500      0.0000 
     55 H          29.4668  -29.8252   13.4320 H         1 NDP500      0.0000 
     56 H          33.0841  -27.9433   15.5780 H         1 NDP500      0.0000 
     57 H          34.1969  -26.5606   15.3032 H         1 NDP500      0.0000 
     58 H          32.7418  -24.7367   11.3238 H         1 NDP500      0.0000 
     59 H          21.3216  -26.9357   11.5724 H         1 NDP500      0.0000 
     60 H          22.8419  -27.3665   12.3745 H         1 NDP500      0.0000 
     61 H          21.6441  -25.4952   13.4163 H         1 NDP500      0.0000 
     62 H          22.9885  -27.4331   14.6250 H         1 NDP500      0.0000 
     63 H          21.1903  -28.7454   15.0710 H         1 NDP500      0.0000 
     64 H          19.7226  -26.3455   15.9385 H         1 NDP500      0.0000 
     65 H          18.6576  -29.3826   13.5817 H         1 NDP500      0.0000 
     66 H          17.5551  -32.4602   12.5936 H         1 NDP500      0.0000 
     67 H          18.4492  -30.9162   12.7988 H         1 NDP500      0.0000 
     68 H          16.3982  -30.5147   16.9763 H         1 NDP500      0.0000 
     69 H          15.4190  -29.5219   15.8830 H         1 NDP500      0.0000 
     70 H          16.4787  -28.1668   17.7999 H         1 NDP500      0.0000 
     71 H          18.2646  -26.7526   16.8491 H         1 NDP500      0.0000 
     72 H          28.4963  -29.2951    8.0156 H         1 NDP500      0.0000 
     73 H          22.1875  -26.1300   16.6610 H         1 NDP500      0.0000 
     74 H          21.7245  -28.7576   17.0957 H         1 NDP500      0.0000 
@<TRIPOS>BOND
     1    2    1 ar   
     2    3    1 ar   
     3    4    1 1    
     4   23    1 1    
     5    5    4 1    
     6    6    5 1    
     7   49    5 1    
     8   50    5 1    
     9    7    6 1    
    10    8    6 1    
    11   51    6 1    
    12   12    7 1    
    13    9    8 1    
    14   10    8 1    
    15   52    8 1    
    16   72    9 1    
    17   11   10 1    
    18   12   10 1    
    19   53   10 1    
    20   45   11 1    
    21   13   12 1    
    22   54   12 1    
    23   14   13 1    
    24   22   13 1    
    25   15   14 2    
    26   55   14 1    
    27   16   15 1    
    28   17   16 ar   
    29   22   16 ar   
    30   18   17 1    
    31   19   17 ar   
    32   56   18 1    
    33   57   18 1    
    34   20   19 ar   
    35   21   20 ar   
    36   58   20 1    
    37   22   21 ar   
    38   24   23 1    
    39   25   24 ar   
    40   26   24 ar   
    41   27   24 1    
    42   28   27 1    
    43   29   28 1    
    44   59   28 1    
    45   60   28 1    
    46   30   29 1    
    47   31   29 1    
    48   61   29 1    
    49   35   30 1    
    50   32   31 1    
    51   33   31 1    
    52   62   31 1    
    53   73   32 1    
    54   34   33 1    
    55   35   33 1    
    56   63   33 1    
    57   74   34 1    
    58   36   35 1    
    59   64   35 1    
    60   37   36 1    
    61   44   36 1    
    62   38   37 2    
    63   65   37 1    
    64   39   38 1    
    65   42   38 1    
    66   40   39 2    
    67   41   39 am   
    68   66   41 1    
    69   67   41 1    
    70   43   42 1    
    71   68   42 1    
    72   69   42 1    
    73   44   43 2    
    74   70   43 1    
    75   71   44 1    
    76   46   45 ar   
    77   47   45 ar   
    78   48   45 ar   
@<TRIPOS>SUBSTRUCTURE
     1 NDP500      1 GROUP   
@<TRIPOS>SET

