#    Name: 3BXO_1_CAVITY_N1_6.mol2
#    Modification time : Tue Mar 11 12:27:30 2014

@<TRIPOS>MOLECULE
3BXO_1_CAVITY_N1_6.mol2
   66     0     5     0     0
SMALL
NO_CHARGES


@<TRIPOS>ATOM
      1 CZ         13.0568    0.9443   22.7688 C.ar      3 PHE5        0.0000 
      2 O          13.9627    0.1826   21.8473 O.2       2 ALA2        0.0000 
      3 CA         14.8685   -0.5792   20.9258 C.3       4 GLY6        0.0000 
      4 OG         13.6440   -1.0856   22.5823 O.2       1 SER1        0.0000 
      5 OG         14.5499   -1.8473   21.6609 O.2       1 SER1        0.0000 
      6 OG         12.4195   -1.5920   24.2389 O.2       1 SER1        0.0000 
      7 OG         13.3253   -2.3537   23.3174 O.2       1 SER1        0.0000 
      8 OG         11.1949   -2.0984   25.8954 O.2       1 SER1        0.0000 
      9 N          12.1008   -2.8601   24.9739 N.2       2 ALA2        0.0000 
     10 OG         13.0067   -3.6219   24.0524 O.2       1 SER1        0.0000 
     11 DU         10.8763   -3.3665   26.6304 H         5 CUB7        0.0000 
     12 N          11.7821   -4.1282   25.7090 N.2       2 ALA2        0.0000 
     13 O          15.9265    3.7186   25.7382 O.2       2 ALA2        0.0000 
     14 O          15.6079    2.4505   26.4733 O.2       2 ALA2        0.0000 
     15 CA         16.5138    1.6887   25.5518 C.3       4 GLY6        0.0000 
     16 CA         17.4196    0.9270   24.6303 C.3       4 GLY6        0.0000 
     17 O          15.2892    1.1823   27.2083 O.2       2 ALA2        0.0000 
     18 CA         16.1951    0.4206   26.2868 C.3       4 GLY6        0.0000 
     19 CZ          9.2811   -1.0683   20.7208 C.ar      3 PHE5        0.0000 
     20 N          10.1870   -1.8300   19.7993 N.2       2 ALA2        0.0000 
     21 CZ          8.0566   -1.5747   22.3773 C.ar      3 PHE5        0.0000 
     22 DU          8.9625   -2.3364   21.4559 H         5 CUB7        0.0000 
     23 DU          9.8684   -3.0981   20.5344 H         5 CUB7        0.0000 
     24 CZ         11.5858   -0.5720   22.5762 C.ar      3 PHE5        0.0000 
     25 N          12.4917   -1.3337   21.6547 N.2       2 ALA2        0.0000 
     26 OG         13.3975   -2.0955   20.7332 O.2       1 SER1        0.0000 
     27 OG         10.3613   -1.0784   24.2327 O.2       1 SER1        0.0000 
     28 DU         11.2671   -1.8401   23.3112 H         5 CUB7        0.0000 
     29 OG         12.1730   -2.6019   22.3897 O.2       1 SER1        0.0000 
     30 CZ          9.1367   -1.5848   25.8892 C.ar      3 PHE5        0.0000 
     31 CZ         10.0426   -2.3465   24.9677 C.ar      3 PHE5        0.0000 
     32 DU         10.9485   -3.1082   24.0462 H         5 CUB7        0.0000 
     33 OG         11.8543   -3.8700   23.1248 O.2       1 SER1        0.0000 
     34 N          10.6298   -4.3764   24.7813 N.2       2 ALA2        0.0000 
     35 CZ         10.4335   -0.8201   21.6485 C.ar      3 PHE5        0.0000 
     36 N          11.3393   -1.5819   20.7270 N.2       2 ALA2        0.0000 
     37 CZ         12.2452   -2.3436   19.8055 C.ar      3 PHE5        0.0000 
     38 CZ          8.3031   -0.5648   24.2265 C.ar      3 PHE5        0.0000 
     39 CZ          9.2089   -1.3265   23.3050 C.ar      3 PHE5        0.0000 
     40 DU         10.1148   -2.0883   22.3835 H         5 CUB7        0.0000 
     41 OG         11.0207   -2.8500   21.4620 O.2       1 SER1        0.0000 
     42 DU          8.8903   -2.5946   24.0401 H         5 CUB7        0.0000 
     43 DU          9.7962   -3.3564   23.1186 H         5 CUB7        0.0000 
     44 OG         10.7020   -4.1181   22.1971 O.2       1 SER1        0.0000 
     45 O          13.8683    4.2322   25.7321 O.2       2 ALA2        0.0000 
     46 O          14.7742    3.4705   24.8106 O.2       2 ALA2        0.0000 
     47 OG         14.4556    2.2023   25.5456 O.2       1 SER1        0.0000 
     48 O          15.3614    1.4406   24.6241 O.2       2 ALA2        0.0000 
     49 CZ         16.2673    0.6788   23.7026 C.ar      3 PHE5        0.0000 
     50 CA         15.0428    0.1724   25.3592 C.3       4 GLY6        0.0000 
     51 CA         15.9486   -0.5893   24.4377 C.3       4 GLY6        0.0000 
     52 O          14.7241   -1.0957   26.0942 O.2       2 ALA2        0.0000 
     53 CZ         13.6219    3.2223   23.8829 C.ar      3 PHE5        0.0000 
     54 CZ         13.3032    1.9542   24.6179 C.ar      3 PHE5        0.0000 
     55 CZ         14.2091    1.1924   23.6965 C.ar      3 PHE5        0.0000 
     56 CZ         15.1150    0.4307   22.7750 C.ar      3 PHE5        0.0000 
     57 OG         13.8904   -0.0757   24.4315 O.2       1 SER1        0.0000 
     58 DU         14.7963   -0.8374   23.5100 H         5 CUB7        0.0000 
     59 CA         15.7022   -1.5992   22.5885 C.3       4 GLY6        0.0000 
     60 OG         13.5718   -1.3438   25.1665 O.2       1 SER1        0.0000 
     61 CA         14.4777   -2.1056   24.2451 C.3       4 GLY6        0.0000 
     62 CA         15.3835   -2.8673   23.3236 C.3       4 GLY6        0.0000 
     63 OG         13.2531   -2.6120   25.9016 O.2       1 SER1        0.0000 
     64 N          14.1590   -3.3737   24.9801 N.2       2 ALA2        0.0000 
     65 O          12.0286   -3.1184   27.5581 O.2       2 ALA2        0.0000 
     66 N          12.9345   -3.8801   26.6366 N.2       2 ALA2        0.0000 
@<TRIPOS>BOND
@<TRIPOS>SUBSTRUCTURE
     1 SER1        4 GROUP   
     2 ALA2        2 GROUP   
     3 PHE5        1 GROUP   
     4 GLY6        3 GROUP   
     5 CUB7       11 GROUP   
@<TRIPOS>SET

