#    Name: 3BXO_1_CAVITY_N1_ALL.mol2
#    Modification time : Tue Mar 11 12:27:30 2014

@<TRIPOS>MOLECULE
3BXO_1_CAVITY_N1_ALL.mol2
   95     0     5     0     0
SMALL
NO_CHARGES


@<TRIPOS>ATOM
      1 CZ         13.0568    0.9443   22.7688 C.ar      3 PHE5        0.0000 
      2 O          13.9627    0.1826   21.8473 O.2       2 ALA2        0.0000 
      3 CA         14.8685   -0.5792   20.9258 C.3       4 GLY6        0.0000 
      4 OG         13.6440   -1.0856   22.5823 O.2       1 SER1        0.0000 
      5 OG         14.5499   -1.8473   21.6609 O.2       1 SER1        0.0000 
      6 OG         12.4195   -1.5920   24.2389 O.2       1 SER1        0.0000 
      7 OG         13.3253   -2.3537   23.3174 O.2       1 SER1        0.0000 
      8 OG         11.1949   -2.0984   25.8954 O.2       1 SER1        0.0000 
      9 N          12.1008   -2.8601   24.9739 N.2       2 ALA2        0.0000 
     10 OG         13.0067   -3.6219   24.0524 O.2       1 SER1        0.0000 
     11 CZ          9.9704   -2.6047   27.5519 C.ar      3 PHE5        0.0000 
     12 DU         10.8763   -3.3665   26.6304 H         5 CUB7        0.0000 
     13 N          11.7821   -4.1282   25.7090 N.2       2 ALA2        0.0000 
     14 CZ         10.5576   -4.6346   27.3655 C.ar      3 PHE5        0.0000 
     15 O          15.9265    3.7186   25.7382 O.2       2 ALA2        0.0000 
     16 O          15.6079    2.4505   26.4733 O.2       2 ALA2        0.0000 
     17 CA         16.5138    1.6887   25.5518 C.3       4 GLY6        0.0000 
     18 CA         17.4196    0.9270   24.6303 C.3       4 GLY6        0.0000 
     19 O          15.2892    1.1823   27.2083 O.2       2 ALA2        0.0000 
     20 CA         16.1951    0.4206   26.2868 C.3       4 GLY6        0.0000 
     21 CZ          9.2811   -1.0683   20.7208 C.ar      3 PHE5        0.0000 
     22 N          10.1870   -1.8300   19.7993 N.2       2 ALA2        0.0000 
     23 OG          7.1507   -0.8129   23.2988 O.2       1 SER1        0.0000 
     24 CZ          8.0566   -1.5747   22.3773 C.ar      3 PHE5        0.0000 
     25 DU          8.9625   -2.3364   21.4559 H         5 CUB7        0.0000 
     26 DU          9.8684   -3.0981   20.5344 H         5 CUB7        0.0000 
     27 CA          6.8321   -2.0810   24.0339 C.3       4 GLY6        0.0000 
     28 DU          7.7380   -2.8428   23.1124 H         5 CUB7        0.0000 
     29 DU          8.6438   -3.6045   22.1909 H         5 CUB7        0.0000 
     30 CZ          7.4193   -4.1109   23.8474 C.ar      3 PHE5        0.0000 
     31 DU          8.3252   -4.8727   22.9259 H         5 CUB7        0.0000 
     32 DU          9.2310   -5.6344   22.0045 H         5 CUB7        0.0000 
     33 DU         10.1369   -6.3962   21.0830 H         5 CUB7        0.0000 
     34 CZ          8.0065   -6.1408   23.6610 C.ar      3 PHE5        0.0000 
     35 DU          8.9124   -6.9026   22.7395 H         5 CUB7        0.0000 
     36 DU          9.8183   -7.6643   21.8180 H         5 CUB7        0.0000 
     37 DU          8.5937   -8.1707   23.4745 H         5 CUB7        0.0000 
     38 CZ         11.5858   -0.5720   22.5762 C.ar      3 PHE5        0.0000 
     39 N          12.4917   -1.3337   21.6547 N.2       2 ALA2        0.0000 
     40 OG         13.3975   -2.0955   20.7332 O.2       1 SER1        0.0000 
     41 OG         10.3613   -1.0784   24.2327 O.2       1 SER1        0.0000 
     42 DU         11.2671   -1.8401   23.3112 H         5 CUB7        0.0000 
     43 OG         12.1730   -2.6019   22.3897 O.2       1 SER1        0.0000 
     44 CZ          9.1367   -1.5848   25.8892 C.ar      3 PHE5        0.0000 
     45 CZ         10.0426   -2.3465   24.9677 C.ar      3 PHE5        0.0000 
     46 DU         10.9485   -3.1082   24.0462 H         5 CUB7        0.0000 
     47 OG         11.8543   -3.8700   23.1248 O.2       1 SER1        0.0000 
     48 CZ          8.8181   -2.8529   26.6243 C.ar      3 PHE5        0.0000 
     49 CZ          9.7239   -3.6146   25.7028 C.ar      3 PHE5        0.0000 
     50 N          10.6298   -4.3764   24.7813 N.2       2 ALA2        0.0000 
     51 CZ          9.4053   -4.8828   26.4378 C.ar      3 PHE5        0.0000 
     52 N          10.3112   -5.6445   25.5163 N.2       2 ALA2        0.0000 
     53 CZ         10.4335   -0.8201   21.6485 C.ar      3 PHE5        0.0000 
     54 N          11.3393   -1.5819   20.7270 N.2       2 ALA2        0.0000 
     55 CZ         12.2452   -2.3436   19.8055 C.ar      3 PHE5        0.0000 
     56 CZ          7.3972    0.1970   25.1480 C.ar      3 PHE5        0.0000 
     57 CZ          8.3031   -0.5648   24.2265 C.ar      3 PHE5        0.0000 
     58 CZ          9.2089   -1.3265   23.3050 C.ar      3 PHE5        0.0000 
     59 DU         10.1148   -2.0883   22.3835 H         5 CUB7        0.0000 
     60 OG         11.0207   -2.8500   21.4620 O.2       1 SER1        0.0000 
     61 CA          7.0785   -1.0712   25.8830 C.3       4 GLY6        0.0000 
     62 CA          7.9844   -1.8329   24.9615 C.3       4 GLY6        0.0000 
     63 DU          8.8903   -2.5946   24.0401 H         5 CUB7        0.0000 
     64 DU          9.7962   -3.3564   23.1186 H         5 CUB7        0.0000 
     65 OG         10.7020   -4.1181   22.1971 O.2       1 SER1        0.0000 
     66 CZ          7.6657   -3.1010   25.6966 C.ar      3 PHE5        0.0000 
     67 CZ          8.5716   -3.8628   24.7751 C.ar      3 PHE5        0.0000 
     68 DU          9.4775   -4.6245   23.8536 H         5 CUB7        0.0000 
     69 OG         10.3834   -5.3863   22.9321 O.2       1 SER1        0.0000 
     70 OG         11.2892   -6.1480   22.0106 O.2       1 SER1        0.0000 
     71 CZ          9.1588   -5.8927   24.5887 C.ar      3 PHE5        0.0000 
     72 O          10.0647   -6.6544   23.6672 O.2       2 ALA2        0.0000 
     73 O          11.8764   -8.1779   21.8242 O.2       2 ALA2        0.0000 
     74 O          13.8683    4.2322   25.7321 O.2       2 ALA2        0.0000 
     75 O          14.7742    3.4705   24.8106 O.2       2 ALA2        0.0000 
     76 OG         14.4556    2.2023   25.5456 O.2       1 SER1        0.0000 
     77 O          15.3614    1.4406   24.6241 O.2       2 ALA2        0.0000 
     78 CZ         16.2673    0.6788   23.7026 C.ar      3 PHE5        0.0000 
     79 CA         15.0428    0.1724   25.3592 C.3       4 GLY6        0.0000 
     80 CA         15.9486   -0.5893   24.4377 C.3       4 GLY6        0.0000 
     81 O          14.7241   -1.0957   26.0942 O.2       2 ALA2        0.0000 
     82 CZ         13.6219    3.2223   23.8829 C.ar      3 PHE5        0.0000 
     83 CZ         13.3032    1.9542   24.6179 C.ar      3 PHE5        0.0000 
     84 CZ         14.2091    1.1924   23.6965 C.ar      3 PHE5        0.0000 
     85 CZ         15.1150    0.4307   22.7750 C.ar      3 PHE5        0.0000 
     86 OG         13.8904   -0.0757   24.4315 O.2       1 SER1        0.0000 
     87 DU         14.7963   -0.8374   23.5100 H         5 CUB7        0.0000 
     88 CA         15.7022   -1.5992   22.5885 C.3       4 GLY6        0.0000 
     89 OG         13.5718   -1.3438   25.1665 O.2       1 SER1        0.0000 
     90 CA         14.4777   -2.1056   24.2451 C.3       4 GLY6        0.0000 
     91 CA         15.3835   -2.8673   23.3236 C.3       4 GLY6        0.0000 
     92 OG         13.2531   -2.6120   25.9016 O.2       1 SER1        0.0000 
     93 N          14.1590   -3.3737   24.9801 N.2       2 ALA2        0.0000 
     94 O          12.0286   -3.1184   27.5581 O.2       2 ALA2        0.0000 
     95 N          12.9345   -3.8801   26.6366 N.2       2 ALA2        0.0000 
@<TRIPOS>BOND
@<TRIPOS>SUBSTRUCTURE
     1 SER1        4 GROUP   
     2 ALA2        2 GROUP   
     3 PHE5        1 GROUP   
     4 GLY6        3 GROUP   
     5 CUB7       12 GROUP   
@<TRIPOS>SET

