#    Name: 3bxo_UPP_1_INTS_M
#    Modification time : Mon Mar 24 20:10:57 2014

@<TRIPOS>MOLECULE
3bxo_UPP_1_INTS_M
   86     0    12     0     0
SMALL
NO_CHARGES


@<TRIPOS>ATOM
      1 O          24.9985    5.5675   21.8455 O.2       1 ALC1        0.0000 
      2 O          23.9590    5.4210   22.8580 O.2       9 ALL1        0.0000 
      3 O          26.0380    5.7140   20.8330 O.2       5 ALP1        0.0000 
      4 CA         23.4645    6.6965   26.4655 C.3       4 GLC5        0.0000 
      5 CA         22.8240    6.5110   24.6780 C.3      12 GLL5        0.0000 
      6 CA         24.1050    6.8820   28.2530 C.3       8 GLP5        0.0000 
      7 CA         23.2515    5.4320   26.5970 C.3       4 GLC5        0.0000 
      8 CA         22.1950    5.3530   24.9530 C.3      12 GLL5        0.0000 
      9 CA         24.3080    5.5110   28.2410 C.3       8 GLP5        0.0000 
     10 N          25.0490    3.2865   22.9170 N.am      2 SEC2        0.0000 
     11 N          23.6040    3.3000   22.4870 N.am     10 SEL2        0.0000 
     12 N          26.4940    3.2730   23.3470 N.am      6 SEP2        0.0000 
     13 CA         21.3910    3.0525   22.6900 C.3       4 GLC5        0.0000 
     14 CA         21.8170    3.0090   24.4680 C.3      12 GLL5        0.0000 
     15 CA         20.9650    3.0960   20.9120 C.3       8 GLP5        0.0000 
     16 CA         23.5745    0.9790   24.5145 C.3       4 GLC5        0.0000 
     17 CA         22.2850    2.2870   25.7350 C.3      12 GLL5        0.0000 
     18 CA         24.8640   -0.3290   23.2940 C.3       8 GLP5        0.0000 
     19 CA         23.2195    2.2445   27.1035 C.3       4 GLC5        0.0000 
     20 CA         24.1540    2.2020   28.4720 C.3       8 GLP5        0.0000 
     21 O          24.8390    1.6100   25.6700 O.2       1 ALC1        0.0000 
     22 O          23.4430    1.4920   25.3830 O.2       9 ALL1        0.0000 
     23 O          26.2350    1.7280   25.9570 O.2       5 ALP1        0.0000 
     24 N          20.4195    3.7110   23.1665 N.am      2 SEC2        0.0000 
     25 N          20.4060    3.3200   24.6320 N.am     10 SEL2        0.0000 
     26 N          20.4330    4.1020   21.7010 N.am      6 SEP2        0.0000 
     27 O          21.2765   -0.6745   25.9250 O.2       1 ALC1        0.0000 
     28 O          21.0710    0.3040   24.9750 O.2       9 ALL1        0.0000 
     29 O          21.4820   -1.6530   26.8750 O.2       5 ALP1        0.0000 
     30 N          18.5195    2.7180   29.0835 N.am      2 SEC2        0.0000 
     31 N          18.6860    1.9160   27.5390 N.am     10 SEL2        0.0000 
     32 N          18.3530    3.5200   30.6280 N.am      6 SEP2        0.0000 
     33 NZ         15.6430   -0.1495   28.6545 N.4       3 LYC4        0.0000 
     34 NZ         16.6660    0.7110   28.4800 N.4      11 LYL4        0.0000 
     35 NZ         14.1230   -0.3820   29.8850 N.4       7 LYP4        0.0000 
     36 N          15.6860    0.7290   29.3755 N.am      2 SEC2        0.0000 
     37 N          16.6660    0.7110   28.4800 N.am     10 SEL2        0.0000 
     38 N          14.7060    0.7470   30.2710 N.am      6 SEP2        0.0000 
     39 N          15.6430   -0.1495   28.6545 N.am      2 SEC2        0.0000 
     40 N          14.6200   -1.0100   28.8290 N.am      6 SEP2        0.0000 
     41 N          17.5460    0.0965   29.4275 N.am      2 SEC2        0.0000 
     42 N          18.4260   -0.5180   30.3750 N.am      6 SEP2        0.0000 
     43 NZ         15.8175    3.8370   29.3260 N.4       3 LYC4        0.0000 
     44 NZ         16.7430    3.3210   28.5460 N.4      11 LYL4        0.0000 
     45 NZ         13.7400    4.7770   29.6060 N.4       7 LYP4        0.0000 
     46 N          15.8175    3.8370   29.3260 N.am      2 SEC2        0.0000 
     47 N          16.7430    3.3210   28.5460 N.am     10 SEL2        0.0000 
     48 N          14.8920    4.3530   30.1060 N.am      6 SEP2        0.0000 
     49 N          17.5480    3.4205   29.5870 N.am      2 SEC2        0.0000 
     50 NZ         13.6375    3.2850   27.6460 N.4       3 LYC4        0.0000 
     51 NZ         13.8800    2.1840   26.9130 N.4      11 LYL4        0.0000 
     52 NZ         14.0015    0.9010   28.3990 N.4       3 LYC4        0.0000 
     53 N          12.8630    1.3705   26.8995 N.am      2 SEC2        0.0000 
     54 N          13.8800    2.1840   26.9130 N.am     10 SEL2        0.0000 
     55 N          11.8460    0.5570   26.8860 N.am      6 SEP2        0.0000 
     56 N          13.6375    3.2850   27.6460 N.am      2 SEC2        0.0000 
     57 N          13.3950    4.3860   28.3790 N.am      6 SEP2        0.0000 
     58 NZ         15.5965    3.2900   23.6280 N.4       3 LYC4        0.0000 
     59 NZ         14.6580    2.7600   24.5150 N.4      11 LYL4        0.0000 
     60 NZ         16.4590    3.7680   21.4130 N.4       7 LYP4        0.0000 
     61 N          15.5965    3.2900   23.6280 N.am      2 SEC2        0.0000 
     62 N          14.6580    2.7600   24.5150 N.am     10 SEL2        0.0000 
     63 N          16.5350    3.8200   22.7410 N.am      6 SEP2        0.0000 
     64 CA         21.6098    6.2610   23.2828 C.3       4 GLC5        0.0000 
     65 CA         20.7100    6.5900   21.7500 C.3       8 GLP5        0.0000 
     66 CA         24.4608    5.2370   25.1232 C.3       4 GLC5        0.0000 
     67 CA         26.4120    4.5420   25.4310 C.3       8 GLP5        0.0000 
     68 CA         22.2830    0.0302   26.3227 C.3       4 GLC5        0.0000 
     69 CA         22.9080   -1.7760   26.8100 C.3       8 GLP5        0.0000 
     70 CA         19.7345    1.0505   23.9870 C.3       4 GLC5        0.0000 
     71 CA         21.0310    1.3860   25.9360 C.3      12 GLL5        0.0000 
     72 CA         19.0320    0.2530   22.2520 C.3       8 GLP5        0.0000 
     73 CA         20.7948    2.7355   27.7260 C.3       4 GLC5        0.0000 
     74 CA         19.8430    2.3100   25.5080 C.3      12 GLL5        0.0000 
     75 CA         21.8430    3.0710   29.2660 C.3       8 GLP5        0.0000 
     76 CA         19.0153    0.6065   26.0215 C.3       4 GLC5        0.0000 
     77 CA         19.0560    2.9520   26.6500 C.3      12 GLL5        0.0000 
     78 CA         18.2840   -1.1870   25.8570 C.3       8 GLP5        0.0000 
     79 CA         16.6090   -0.8280   24.7858 C.3       4 GLC5        0.0000 
     80 CA         15.2740   -0.9860   23.4060 C.3      12 GLL5        0.0000 
     81 CA         14.3498    0.3210   19.6938 C.3       4 GLC5        0.0000 
     82 CA         14.1360   -0.6350   21.3310 C.3      12 GLL5        0.0000 
     83 CA         14.9160    0.7680   17.7560 C.3       8 GLP5        0.0000 
     84 CA         16.2792   -2.5815   22.0450 C.3       4 GLC5        0.0000 
     85 CA         15.0650   -1.3180   22.0880 C.3      12 GLL5        0.0000 
     86 CA         17.3890   -4.0110   21.3430 C.3       8 GLP5        0.0000 
@<TRIPOS>BOND
@<TRIPOS>SUBSTRUCTURE
     1 ALC1        1 GROUP        1 X    ALC  0     ROOT ALC X 1
     2 SEC2       10 GROUP        1 X    SEC  0     **** SEC X 2
     3 LYC4       33 GROUP        1 X    LYC  0     **** LYC X 4
     4 GLC5        4 GROUP        1 X    GLC  0     **** GLC X 6
     5 ALP1        3 GROUP        1 Y    ALP  0     ROOT ALP Y 8
     6 SEP2       12 GROUP        1 Y    SEP  0     **** SEP Y 9
     7 LYP4       35 GROUP        1 Y    LYP  0     **** LYP Y 11
     8 GLP5        6 GROUP        1 Y    GLP  0     **** GLP Y 13
     9 ALL1        2 GROUP        1 Z    ALL  0     ROOT ALL Z 15
    10 SEL2       11 GROUP        1 Z    SEL  0     **** SEL Z 16
    11 LYL4       34 GROUP        1 Z    LYL  0     **** LYL Z 18
    12 GLL5        5 GROUP        1 Z    GLL  0     **** GLL Z 20
@<TRIPOS>SET

