#    Name: 3bxo_UPP_1_ligand
#    Modification time : Mon Mar 24 20:10:57 2014

@<TRIPOS>MOLECULE
3bxo_UPP_1_ligand
   47    49     1     0     0
SMALL
NO_CHARGES


@<TRIPOS>ATOM
      1 N1         22.4980    4.2510   24.2050 N.am      1 UPP239      0.0000 
      2 C2         23.3600    4.2870   23.1640 C.2       1 UPP239      0.0000 
      3 N3         23.9590    5.4210   22.8580 N.am      1 UPP239      0.0000 
      4 C4         23.7250    6.5300   23.5860 C.2       1 UPP239      0.0000 
      5 C5         22.8240    6.5110   24.6780 C.2       1 UPP239      0.0000 
      6 C6         22.1950    5.3530   24.9530 C.2       1 UPP239      0.0000 
      7 O2         23.6040    3.3000   22.4870 O.2       1 UPP239      0.0000 
      8 O4         24.2970    7.5560   23.2680 O.2       1 UPP239      0.0000 
      9 C1B        21.8170    3.0090   24.4680 C.3       1 UPP239      0.0000 
     10 C2B        22.2850    2.2870   25.7350 C.3       1 UPP239      0.0000 
     11 O2'        23.4430    1.4920   25.3830 O.3       1 UPP239      0.0000 
     12 C3B        21.0310    1.3860   25.9360 C.3       1 UPP239      0.0000 
     13 C4B        19.8430    2.3100   25.5080 C.3       1 UPP239      0.0000 
     14 O4'        20.4060    3.3200   24.6320 O.3       1 UPP239      0.0000 
     15 O3'        21.0710    0.3040   24.9750 O.3       1 UPP239      0.0000 
     16 C5B        19.0560    2.9520   26.6500 C.3       1 UPP239      0.0000 
     17 O5'        18.6860    1.9160   27.5390 O.3       1 UPP239      0.0000 
     18 PA         17.1060    2.0330   27.6870 P.3       1 UPP239      0.0000 
     19 O1A        16.6660    0.7110   28.4800 O.co2     1 UPP239      0.0000 
     20 O2A        16.7430    3.3210   28.5460 O.co2     1 UPP239      0.0000 
     21 O3A        16.5010    2.1930   26.1730 O.3       1 UPP239      0.0000 
     22 PB         14.9660    1.8510   25.7750 P.3       1 UPP239      0.0000 
     23 O1B        13.8800    2.1840   26.9130 O.co2     1 UPP239      0.0000 
     24 O2B        14.6580    2.7600   24.5150 O.co2     1 UPP239      0.0000 
     25 O3B        14.8450    0.2980   25.3570 O.3       1 UPP239      0.0000 
     26 C1'        14.5940    0.0480   24.0230 C.ar      1 UPP239      0.0000 
     27 C2'        13.6440    0.7130   23.2600 C.ar      1 UPP239      0.0000 
     28 C3'        13.4310    0.3830   21.9320 C.ar      1 UPP239      0.0000 
     29 C4'        14.1360   -0.6350   21.3310 C.ar      1 UPP239      0.0000 
     30 C5'        15.0650   -1.3180   22.0880 C.ar      1 UPP239      0.0000 
     31 C6'        15.2740   -0.9860   23.4060 C.ar      1 UPP239      0.0000 
     32 H          24.6226    5.4732   22.0469 H         1 UPP239      0.0000 
     33 H          22.6794    7.3612   25.2166 H         1 UPP239      0.0000 
     34 H          21.4986    5.2899   25.7095 H         1 UPP239      0.0000 
     35 H          21.9250    2.3260   23.6337 H         1 UPP239      0.0000 
     36 H          22.3740    2.9372   26.4943 H         1 UPP239      0.0000 
     37 H          20.9287    1.1166   26.9054 H         1 UPP239      0.0000 
     38 H          19.1595    1.6818   24.9193 H         1 UPP239      0.0000 
     39 H          18.1936    3.4543   26.2172 H         1 UPP239      0.0000 
     40 H          19.6991    3.6922   27.1210 H         1 UPP239      0.0000 
     41 H          13.0836    1.4714   23.6941 H         1 UPP239      0.0000 
     42 H          12.7267    0.9148   21.3835 H         1 UPP239      0.0000 
     43 H          13.9770   -0.8785   20.3537 H         1 UPP239      0.0000 
     44 H          15.6096   -2.0882   21.6578 H         1 UPP239      0.0000 
     45 H          15.9715   -1.5332   23.9645 H         1 UPP239      0.0000 
     46 H          24.2147    1.9490   25.8254 H         1 UPP239      0.0000 
     47 H          21.2144   -0.5216   25.5208 H         1 UPP239      0.0000 
@<TRIPOS>BOND
     1    2    1 1    
     2    6    1 1    
     3    9    1 1    
     4    3    2 1    
     5    7    2 2    
     6    4    3 1    
     7   32    3 1    
     8    5    4 1    
     9    8    4 2    
    10    6    5 2    
    11   33    5 1    
    12   34    6 1    
    13   10    9 1    
    14   14    9 1    
    15   35    9 1    
    16   11   10 1    
    17   12   10 1    
    18   36   10 1    
    19   46   11 1    
    20   13   12 1    
    21   15   12 1    
    22   37   12 1    
    23   14   13 1    
    24   16   13 1    
    25   38   13 1    
    26   47   15 1    
    27   17   16 1    
    28   39   16 1    
    29   40   16 1    
    30   18   17 1    
    31   19   18 ar   
    32   20   18 ar   
    33   21   18 1    
    34   22   21 1    
    35   23   22 ar   
    36   24   22 ar   
    37   25   22 1    
    38   26   25 1    
    39   27   26 ar   
    40   31   26 ar   
    41   28   27 ar   
    42   41   27 1    
    43   29   28 ar   
    44   42   28 1    
    45   30   29 ar   
    46   43   29 1    
    47   31   30 ar   
    48   44   30 1    
    49   45   31 1    
@<TRIPOS>SUBSTRUCTURE
     1 UPP239      1 GROUP   
@<TRIPOS>SET

