#    Name: 3mhj_M3F_2_INTS_M
#    Modification time : Mon Mar 24 23:13:30 2014

@<TRIPOS>MOLECULE
3mhj_M3F_2_INTS_M
   55     0     9     0     0
SMALL
NO_CHARGES


@<TRIPOS>ATOM
      1 CA         -2.9090   13.1495   12.5795 C.3       3 GLC5        0.0000 
      2 CA         -4.0350   14.3230   11.5370 C.3       9 GLL5        0.0000 
      3 CA         -1.7830   11.9760   13.6220 C.3       6 GLP5        0.0000 
      4 CA         -5.6730   14.9965   11.3060 C.3       3 GLC5        0.0000 
      5 CA         -7.3110   15.6700   11.0750 C.3       6 GLP5        0.0000 
      6 N          -9.2100    9.6520   14.7935 N.am      2 SEC2        0.0000 
      7 N          -8.1100   10.6120   15.1180 N.am      8 SEL2        0.0000 
      8 N         -10.3100    8.6920   14.4690 N.am      5 SEP2        0.0000 
      9 N          -8.8425   10.6210   16.3625 N.am      2 SEC2        0.0000 
     10 N          -9.5750   10.6300   17.6070 N.am      5 SEP2        0.0000 
     11 CA         -9.5000   10.7365    7.5490 C.3       3 GLC5        0.0000 
     12 CA         -7.9120   11.5780    8.1940 C.3       9 GLL5        0.0000 
     13 CA        -11.0880    9.8950    6.9040 C.3       6 GLP5        0.0000 
     14 CA         -4.5410   12.3385    6.6205 C.3       3 GLC5        0.0000 
     15 CA         -5.8750   11.8530    7.5260 C.3       9 GLL5        0.0000 
     16 CA         -3.2070   12.8240    5.7150 C.3       6 GLP5        0.0000 
     17 CA         -5.4850   10.7580   16.9950 C.3       3 GLC5        0.0000 
     18 CA         -6.3990   12.4200   16.1530 C.3       9 GLL5        0.0000 
     19 CA         -4.5710    9.0960   17.8370 C.3       6 GLP5        0.0000 
     20 CA         -8.6250   12.4000   16.3500 C.3       3 GLC5        0.0000 
     21 CA        -10.8510   12.3800   16.5470 C.3       6 GLP5        0.0000 
     22 O          -8.6625   10.4655   12.5345 O.2       1 ALC1        0.0000 
     23 O          -7.5080   11.0250   13.0300 O.2       7 ALL1        0.0000 
     24 O          -9.8170    9.9060   12.0390 O.2       4 ALP1        0.0000 
     25 CA         -8.2275   12.4935   10.7315 C.3       3 GLC5        0.0000 
     26 CA         -6.3290   11.8220    9.8310 C.3       9 GLL5        0.0000 
     27 CA        -10.1260   13.1650   11.6320 C.3       6 GLP5        0.0000 
     28 CA         -6.8055    9.2437    6.9832 C.3       3 GLC5        0.0000 
     29 CA         -6.5410    9.9660    8.3920 C.3       9 GLL5        0.0000 
     30 CA         -7.0040    7.8560    5.5600 C.3       6 GLP5        0.0000 
     31 CA         -8.4057    9.8429    8.9161 C.3       3 GLC5        0.0000 
     32 CA         -6.6730   11.2970    8.4210 C.3       9 GLL5        0.0000 
     33 CA         -9.5520    8.5810    9.5320 C.3       6 GLP5        0.0000 
     34 CA         -7.7858   13.0542    9.5787 C.3       3 GLC5        0.0000 
     35 CA         -8.2790   14.6710   10.8500 C.3       6 GLP5        0.0000 
     36 CA         -4.0563   12.4558   15.1788 C.3       3 GLC5        0.0000 
     37 CA         -4.7680   14.1340   15.7870 C.3       9 GLL5        0.0000 
     38 CA         -2.9610   11.1580   14.1260 C.3       6 GLP5        0.0000 
     39 CA         -6.6325   12.6433   18.1163 C.3       3 GLC5        0.0000 
     40 CA         -5.5350   13.3730   16.6760 C.3       9 GLL5        0.0000 
     41 CA         -7.2980   12.3900   19.8180 C.3       6 GLP5        0.0000 
     42 CA         -4.4663   14.5102   18.0557 C.3       3 GLC5        0.0000 
     43 CA         -3.7810   15.2670   19.8800 C.3       6 GLP5        0.0000 
     44 CA         -4.6947   11.7362   14.7967 C.3       3 GLC5        0.0000 
     45 CA         -6.8191   14.4259   17.1406 C.3       3 GLC5        0.0000 
     46 CA         -7.8630   15.7650   18.0890 C.3       6 GLP5        0.0000 
     47 CA         -4.1285   12.3035   14.1250 C.3       3 GLC5        0.0000 
     48 CA         -4.8660   13.9220   14.3900 C.3       9 GLL5        0.0000 
     49 CA         -5.8773   13.8962    9.1535 C.3       3 GLC5        0.0000 
     50 CA         -5.1120   13.2350   11.4000 C.3       9 GLL5        0.0000 
     51 CA         -6.5070   14.7760    7.5600 C.3       6 GLP5        0.0000 
     52 CA         -6.4817   13.2548    8.2169 C.3       3 GLC5        0.0000 
     53 CA         -4.5360   11.7353   13.0700 C.3       3 GLC5        0.0000 
     54 CA         -8.2075   12.6662   11.9558 C.3       3 GLC5        0.0000 
     55 CA         -5.8240   12.6550   12.4620 C.3       9 GLL5        0.0000 
@<TRIPOS>BOND
@<TRIPOS>SUBSTRUCTURE
     1 ALC1       22 GROUP        1 X    ALC  0     ROOT ALC X 1
     2 SEC2        6 GROUP        1 X    SEC  0     **** SEC X 2
     3 GLC5        1 GROUP        1 X    GLC  0     **** GLC X 6
     4 ALP1       24 GROUP        1 Y    ALP  0     ROOT ALP Y 8
     5 SEP2        8 GROUP        1 Y    SEP  0     **** SEP Y 9
     6 GLP5        3 GROUP        1 Y    GLP  0     **** GLP Y 13
     7 ALL1       23 GROUP        1 Z    ALL  0     ROOT ALL Z 15
     8 SEL2        7 GROUP        1 Z    SEL  0     **** SEL Z 16
     9 GLL5        2 GROUP        1 Z    GLL  0     **** GLL Z 20
@<TRIPOS>SET

