#    Name: 3mhj_M3F_2_ligand
#    Modification time : Mon Mar 24 23:13:30 2014

@<TRIPOS>MOLECULE
3mhj_M3F_2_ligand
   29    31     1     0     0
SMALL
NO_CHARGES


@<TRIPOS>ATOM
      1 CAA        -4.0350   14.3230   11.5370 C.3       1 M3F2        0.0000 
      2 OAB        -8.1100   10.6120   15.1180 O.2       1 M3F2        0.0000 
      3 FAC        -6.5410    9.9660    8.3920 F         1 M3F2        0.0000 
      4 FAD        -7.9120   11.5780    8.1940 F         1 M3F2        0.0000 
      5 FAE        -5.8750   11.8530    7.5260 F         1 M3F2        0.0000 
      6 CAF        -5.5350   13.3730   16.6760 C.ar      1 M3F2        0.0000 
      7 CAG        -4.7680   14.1340   15.7870 C.ar      1 M3F2        0.0000 
      8 CAH        -6.3990   12.4200   16.1530 C.ar      1 M3F2        0.0000 
      9 CAI        -4.8660   13.9220   14.3900 C.ar      1 M3F2        0.0000 
     10 CAJ        -5.3830   12.7980   10.0940 C.ar      1 M3F2        0.0000 
     11 NAK        -7.0020   11.2780   10.8310 N.ar      1 M3F2        0.0000 
     12 NAL        -7.5080   11.0250   13.0300 N.am      1 M3F2        0.0000 
     13 CAM        -5.1120   13.2350   11.4000 C.ar      1 M3F2        0.0000 
     14 CAN        -6.3290   11.8220    9.8310 C.ar      1 M3F2        0.0000 
     15 CAO        -7.3960   11.2600   14.3460 C.2       1 M3F2        0.0000 
     16 CAP        -6.4580   12.2090   14.7820 C.ar      1 M3F2        0.0000 
     17 CAQ        -6.7540   11.6800   12.0970 C.ar      1 M3F2        0.0000 
     18 CAR        -5.7260   12.9760   13.8580 C.ar      1 M3F2        0.0000 
     19 CAS        -5.8240   12.6550   12.4620 C.ar      1 M3F2        0.0000 
     20 CAT        -6.6730   11.2970    8.4210 C.3       1 M3F2        0.0000 
     21 H          -5.4582   13.5178   17.6784 H         1 M3F2        0.0000 
     22 H          -4.1277   14.8527   16.1422 H         1 M3F2        0.0000 
     23 H          -6.9978   11.8681   16.7840 H         1 M3F2        0.0000 
     24 H          -4.2739   14.4958   13.7619 H         1 M3F2        0.0000 
     25 H          -4.8535   13.2248    9.3066 H         1 M3F2        0.0000 
     26 H          -8.2056   10.3050   12.6896 H         1 M3F2        0.0000 
     27 H          -3.1523   14.0190   11.1785 H         1 M3F2        0.0000 
     28 H          -4.2823   15.1550   11.0403 H         1 M3F2        0.0000 
     29 H          -3.8897   14.5837   12.4914 H         1 M3F2        0.0000 
@<TRIPOS>BOND
     1   13    1 1    
     2   27    1 1    
     3   28    1 1    
     4   29    1 1    
     5   15    2 2    
     6   20    3 1    
     7   20    4 1    
     8   20    5 1    
     9    7    6 ar   
    10    8    6 ar   
    11   21    6 1    
    12    9    7 ar   
    13   22    7 1    
    14   16    8 ar   
    15   23    8 1    
    16   18    9 ar   
    17   24    9 1    
    18   13   10 ar   
    19   14   10 ar   
    20   25   10 1    
    21   14   11 ar   
    22   17   11 ar   
    23   15   12 am   
    24   17   12 1    
    25   26   12 1    
    26   19   13 ar   
    27   20   14 1    
    28   16   15 1    
    29   18   16 ar   
    30   19   17 ar   
    31   19   18 1    
@<TRIPOS>SUBSTRUCTURE
     1 M3F2        1 GROUP   
@<TRIPOS>SET

