#    Name: 2ywl_FAD_1_INTS_M
#    Modification time : Tue Mar 25 09:46:14 2014

@<TRIPOS>MOLECULE
2ywl_FAD_1_INTS_M
  126     0     9     0     0
SMALL
NO_CHARGES


@<TRIPOS>ATOM
      1 N          -8.3810  -16.9115   24.0520 N.am      2 SEC2        0.0000 
      2 N          -9.5740  -16.3470   23.7550 N.am      8 SEL2        0.0000 
      3 N          -7.1880  -17.4760   24.3490 N.am      5 SEP2        0.0000 
      4 N          -9.3390  -15.9545   26.5520 N.am      2 SEC2        0.0000 
      5 N         -10.2910  -15.0110   25.8500 N.am      8 SEL2        0.0000 
      6 N          -8.3870  -16.8980   27.2540 N.am      5 SEP2        0.0000 
      7 CA        -10.4990  -10.7670   23.6950 C.3       3 GLC5        0.0000 
      8 CA         -9.4920  -12.5600   24.0700 C.3       9 GLL5        0.0000 
      9 CA        -11.5060   -8.9740   23.3200 C.3       6 GLP5        0.0000 
     10 CA        -10.9885  -12.3455   25.1950 C.3       3 GLC5        0.0000 
     11 CA        -12.4850  -12.1310   26.3200 C.3       6 GLP5        0.0000 
     12 CA         -7.8725  -10.9780   22.1225 C.3       3 GLC5        0.0000 
     13 CA         -8.1590  -11.9870   23.6970 C.3       9 GLL5        0.0000 
     14 CA         -7.5860   -9.9690   20.5480 C.3       6 GLP5        0.0000 
     15 CA         -5.7665  -12.8320   26.3550 C.3       3 GLC5        0.0000 
     16 CA         -6.9890  -12.3010   24.6730 C.3       9 GLL5        0.0000 
     17 CA         -4.5440  -13.3630   28.0370 C.3       6 GLP5        0.0000 
     18 CA         -6.8495  -14.0080   25.3150 C.3       3 GLC5        0.0000 
     19 CA         -6.7100  -15.7150   25.9570 C.3       6 GLP5        0.0000 
     20 O          -5.3410  -12.3050   23.1905 O.2       1 ALC1        0.0000 
     21 O          -5.8520  -12.9180   24.1030 O.2       7 ALL1        0.0000 
     22 O          -4.8300  -11.6920   22.2780 O.2       4 ALP1        0.0000 
     23 O          -4.3660  -12.7810   23.3595 O.2       1 ALC1        0.0000 
     24 O          -2.8800  -12.6440   22.6160 O.2       4 ALP1        0.0000 
     25 CA         -5.8540  -11.5765   27.1170 C.3       3 GLC5        0.0000 
     26 CA         -6.7090  -10.9500   25.3120 C.3       9 GLL5        0.0000 
     27 CA         -4.9990  -12.2030   28.9220 C.3       6 GLP5        0.0000 
     28 N          -4.5835  -11.7955   26.3790 N.am      2 SEC2        0.0000 
     29 N          -5.4140  -10.7390   25.8300 N.am      8 SEL2        0.0000 
     30 N          -3.7530  -12.8520   26.9280 N.am      5 SEP2        0.0000 
     31 CA         -7.3360   -9.9780   22.3775 C.3       3 GLC5        0.0000 
     32 CA         -7.0860   -9.9870   24.2070 C.3       9 GLL5        0.0000 
     33 CA         -5.9310   -3.4930   23.5845 C.3       3 GLC5        0.0000 
     34 CA         -6.5270   -5.1730   24.7220 C.3       9 GLL5        0.0000 
     35 CA         -5.3350   -1.8130   22.4470 C.3       6 GLP5        0.0000 
     36 O          -6.1315   -2.6790   25.3640 O.2       1 ALC1        0.0000 
     37 O          -6.9820   -4.0460   25.2780 O.2       7 ALL1        0.0000 
     38 O          -5.2810   -1.3120   25.4500 O.2       4 ALP1        0.0000 
     39 N          -4.4865   -4.0195   23.8630 N.am      2 SEC2        0.0000 
     40 N          -5.4120   -5.1350   23.9330 N.am      8 SEL2        0.0000 
     41 N          -3.5610   -2.9040   23.7930 N.am      5 SEP2        0.0000 
     42 CA         -6.3410   -5.8315   22.1700 C.3       3 GLC5        0.0000 
     43 CA         -4.9570   -6.2910   23.3770 C.3       9 GLL5        0.0000 
     44 CA         -7.7250   -5.3720   20.9630 C.3       6 GLP5        0.0000 
     45 CA         -3.9970   -7.9065   22.3195 C.3       3 GLC5        0.0000 
     46 CA         -3.0370   -9.5220   21.2620 C.3       6 GLP5        0.0000 
     47 CA         -3.7395   -7.6155   24.1745 C.3       3 GLC5        0.0000 
     48 CA         -2.5220   -8.9400   24.9720 C.3       6 GLP5        0.0000 
     49 CA         -3.4330   -5.3310   24.0855 C.3       3 GLC5        0.0000 
     50 CA         -1.9090   -4.3710   24.7940 C.3       6 GLP5        0.0000 
     51 CA         -4.9360   -4.4235   22.2805 C.3       3 GLC5        0.0000 
     52 CA         -4.9150   -2.5560   21.1840 C.3       6 GLP5        0.0000 
     53 N          -4.2755   -8.3400   23.5750 N.am      2 SEC2        0.0000 
     54 N          -5.4750   -7.5290   23.5040 N.am      8 SEL2        0.0000 
     55 N          -3.0760   -9.1510   23.6460 N.am      5 SEP2        0.0000 
     56 CA         -4.5695   -8.2315   24.6460 C.3       3 GLC5        0.0000 
     57 CA         -6.6170   -7.5230   24.3200 C.3       9 GLL5        0.0000 
     58 N         -13.7485  -22.9575   24.1885 N.am      2 SEC2        0.0000 
     59 N         -13.3650  -23.5730   25.7750 N.am      8 SEL2        0.0000 
     60 N         -14.1320  -22.3420   22.6020 N.am      5 SEP2        0.0000 
     61 N         -14.0420  -23.5665   23.2575 N.am      2 SEC2        0.0000 
     62 N         -13.9520  -24.7910   23.9130 N.am      8 SEL2        0.0000 
     63 O         -13.3695  -27.0750   24.8210 O.2       1 ALC1        0.0000 
     64 O         -13.0110  -25.9320   25.6460 O.2       7 ALL1        0.0000 
     65 O         -13.7280  -28.2180   23.9960 O.2       4 ALP1        0.0000 
     66 N         -12.2015  -27.3550   28.8935 N.am      2 SEC2        0.0000 
     67 N         -12.0690  -27.1470   27.3420 N.am      8 SEL2        0.0000 
     68 N         -12.3340  -27.5630   30.4450 N.am      5 SEP2        0.0000 
     69 N         -12.0315  -26.1915   29.6905 N.am      2 SEC2        0.0000 
     70 N         -11.7290  -24.8200   28.9360 N.am      8 SEL2        0.0000 
     71 CA        -10.8735  -18.7560   30.1540 C.3       3 GLC5        0.0000 
     72 CA        -11.3700  -19.8390   31.8410 C.3       9 GLL5        0.0000 
     73 CA        -10.3770  -17.6730   28.4670 C.3       6 GLP5        0.0000 
     74 CA        -11.2015  -19.4300   29.1375 C.3       3 GLC5        0.0000 
     75 CA        -12.0260  -21.1870   29.8080 C.3       9 GLL5        0.0000 
     76 CA        -14.4480  -22.5670   28.0570 C.3       3 GLC5        0.0000 
     77 CA        -13.2280  -21.1670   27.1470 C.3       9 GLL5        0.0000 
     78 CA        -15.6680  -23.9670   28.9670 C.3       6 GLP5        0.0000 
     79 CA        -10.4065  -21.0540   25.4840 C.3       3 GLC5        0.0000 
     80 CA        -12.4220  -20.6880   25.9730 C.3       9 GLL5        0.0000 
     81 CA         -8.3910  -21.4200   24.9950 C.3       6 GLP5        0.0000 
     82 O         -15.5865  -20.4365   25.8750 O.2       1 ALC1        0.0000 
     83 O         -14.4010  -19.6500   25.1530 O.2       7 ALL1        0.0000 
     84 O         -16.7720  -21.2230   26.5970 O.2       4 ALP1        0.0000 
     85 CA        -12.7705  -20.4585   22.8895 C.3       3 GLC5        0.0000 
     86 CA        -12.3180  -18.8430   24.2870 C.3       9 GLL5        0.0000 
     87 CA        -13.2230  -22.0740   21.4920 C.3       6 GLP5        0.0000 
     88 CA        -13.1565  -16.0430   25.4230 C.3       3 GLC5        0.0000 
     89 CA        -13.0030  -17.5720   23.8990 C.3       9 GLL5        0.0000 
     90 CA        -13.3100  -14.5140   26.9470 C.3       6 GLP5        0.0000 
     91 CA        -14.6695  -16.6145   24.4370 C.3       3 GLC5        0.0000 
     92 CA        -16.3360  -15.6570   24.9750 C.3       6 GLP5        0.0000 
     93 CA        -13.8325  -17.6050   22.1225 C.3       3 GLC5        0.0000 
     94 CA        -14.6620  -17.6380   20.3460 C.3       6 GLP5        0.0000 
     95 N         -13.8415  -17.0450   22.1115 N.am      2 SEC2        0.0000 
     96 N         -12.3680  -17.0370   22.7600 N.am      8 SEL2        0.0000 
     97 N         -15.3150  -17.0530   21.4630 N.am      5 SEP2        0.0000 
     98 N         -11.6090  -15.7915   19.8525 N.am      2 SEC2        0.0000 
     99 N         -11.6670  -15.2870   21.2440 N.am      8 SEL2        0.0000 
    100 N         -11.5510  -16.2960   18.4610 N.am      5 SEP2        0.0000 
    101 N         -12.2030  -14.5160   20.3115 N.am      2 SEC2        0.0000 
    102 N         -12.7390  -13.7450   19.3790 N.am      5 SEP2        0.0000 
    103 N         -15.3320  -14.4690   22.5740 N.am      2 SEC2        0.0000 
    104 N         -13.7990  -14.9900   22.5890 N.am      8 SEL2        0.0000 
    105 N         -16.8650  -13.9480   22.5590 N.am      5 SEP2        0.0000 
    106 N         -14.5570  -16.0215   22.0260 N.am      2 SEC2        0.0000 
    107 CA         -8.6333   -6.8970   23.6860 C.3       3 GLC5        0.0000 
    108 CA         -7.1760   -6.4530   24.9280 C.3       9 GLL5        0.0000 
    109 CA        -10.3700   -6.8060   22.7480 C.3       6 GLP5        0.0000 
    110 CA         -7.9413   -4.2770   24.1265 C.3       3 GLC5        0.0000 
    111 CA         -9.0310   -2.7410   23.4280 C.3       6 GLP5        0.0000 
    112 CA         -7.2296   -6.0200   22.7677 C.3       3 GLC5        0.0000 
    113 CA        -12.9220  -24.3957   30.6075 C.3       3 GLC5        0.0000 
    114 CA        -11.6460  -23.6040   29.6310 C.3       9 GLL5        0.0000 
    115 CA        -14.4890  -25.2020   30.9280 C.3       6 GLP5        0.0000 
    116 CA        -13.5910  -22.9140   29.8140 C.3       3 GLC5        0.0000 
    117 CA        -12.1360  -22.3710   29.0600 C.3       9 GLL5        0.0000 
    118 CA        -15.1010  -24.0490   30.1940 C.3       6 GLP5        0.0000 
    119 CA        -10.0053  -23.7291   29.1103 C.3       3 GLC5        0.0000 
    120 CA         -8.2650  -24.4780   28.5470 C.3       6 GLP5        0.0000 
    121 CA        -11.5540  -18.8607   27.1025 C.3       3 GLC5        0.0000 
    122 CA        -14.5168  -21.0986   25.0078 C.3       3 GLC5        0.0000 
    123 CA        -13.0400  -19.4090   25.5030 C.3       9 GLL5        0.0000 
    124 CA        -16.1010  -22.0290   23.9840 C.3       6 GLP5        0.0000 
    125 CA        -11.1172  -18.2237   22.6375 C.3       3 GLC5        0.0000 
    126 CA         -9.5740  -18.2400   21.1820 C.3       6 GLP5        0.0000 
@<TRIPOS>BOND
@<TRIPOS>SUBSTRUCTURE
     1 ALC1       20 GROUP        1 X    ALC  0     ROOT ALC X 1
     2 SEC2        1 GROUP        1 X    SEC  0     **** SEC X 2
     3 GLC5        7 GROUP        1 X    GLC  0     **** GLC X 6
     4 ALP1       22 GROUP        1 Y    ALP  0     ROOT ALP Y 8
     5 SEP2        3 GROUP        1 Y    SEP  0     **** SEP Y 9
     6 GLP5        9 GROUP        1 Y    GLP  0     **** GLP Y 13
     7 ALL1       21 GROUP        1 Z    ALL  0     ROOT ALL Z 15
     8 SEL2        2 GROUP        1 Z    SEL  0     **** SEL Z 16
     9 GLL5        8 GROUP        1 Z    GLL  0     **** GLL Z 20
@<TRIPOS>SET

