#    Name: 2ywl_FAD_1_ligand
#    Modification time : Tue Mar 25 09:46:14 2014

@<TRIPOS>MOLECULE
2ywl_FAD_1_ligand
   84    89     1     0     0
SMALL
NO_CHARGES


@<TRIPOS>ATOM
      1 PA        -10.1650  -15.1290   24.3680 P.3       1 FAD1001     0.0000 
      2 O1A        -9.5740  -16.3470   23.7550 O.co2     1 FAD1001     0.0000 
      3 O2A       -10.2910  -15.0110   25.8500 O.co2     1 FAD1001     0.0000 
      4 O5B        -9.3120  -13.9540   23.7690 O.3       1 FAD1001     0.0000 
      5 C5B        -9.4920  -12.5600   24.0700 C.3       1 FAD1001     0.0000 
      6 C4B        -8.1590  -11.9870   23.6970 C.3       1 FAD1001     0.0000 
      7 O4B        -8.2070  -10.5480   23.5220 O.3       1 FAD1001     0.0000 
      8 C3B        -6.9890  -12.3010   24.6730 C.3       1 FAD1001     0.0000 
      9 O3B        -5.8520  -12.9180   24.1030 O.3       1 FAD1001     0.0000 
     10 C2B        -6.7090  -10.9500   25.3120 C.3       1 FAD1001     0.0000 
     11 O2B        -5.4140  -10.7390   25.8300 O.3       1 FAD1001     0.0000 
     12 C1B        -7.0860   -9.9870   24.2070 C.3       1 FAD1001     0.0000 
     13 N9A        -7.3700   -8.6300   24.6490 N.pl3     1 FAD1001     0.0000 
     14 C8A        -8.3690   -8.1470   25.4520 C.2       1 FAD1001     0.0000 
     15 N7A        -8.3020   -6.8370   25.6540 N.2       1 FAD1001     0.0000 
     16 C5A        -7.1760   -6.4530   24.9280 C.ar      1 FAD1001     0.0000 
     17 C6A        -6.5270   -5.1730   24.7220 C.ar      1 FAD1001     0.0000 
     18 N6A        -6.9820   -4.0460   25.2780 N.pl3     1 FAD1001     0.0000 
     19 N1A        -5.4120   -5.1350   23.9330 N.ar      1 FAD1001     0.0000 
     20 C2A        -4.9570   -6.2910   23.3770 C.ar      1 FAD1001     0.0000 
     21 N3A        -5.4750   -7.5290   23.5040 N.ar      1 FAD1001     0.0000 
     22 C4A        -6.6170   -7.5230   24.3200 C.ar      1 FAD1001     0.0000 
     23 N1        -13.3650  -23.5730   25.7750 N.2       1 FAD1001     0.0000 
     24 C2        -13.4590  -24.7360   25.0660 C.2       1 FAD1001     0.0000 
     25 O2        -13.9520  -24.7910   23.9130 O.2       1 FAD1001     0.0000 
     26 N3        -13.0110  -25.9320   25.6460 N.am      1 FAD1001     0.0000 
     27 C4        -12.4290  -26.0340   26.9200 C.2       1 FAD1001     0.0000 
     28 O4        -12.0690  -27.1470   27.3420 O.2       1 FAD1001     0.0000 
     29 C4X       -12.3090  -24.8140   27.6370 C.2       1 FAD1001     0.0000 
     30 N5        -11.7290  -24.8200   28.9360 N.2       1 FAD1001     0.0000 
     31 C5X       -11.6460  -23.6040   29.6310 C.ar      1 FAD1001     0.0000 
     32 C6        -11.0640  -23.5750   30.9430 C.ar      1 FAD1001     0.0000 
     33 C7        -10.9620  -22.3930   31.6690 C.ar      1 FAD1001     0.0000 
     34 C7M       -10.3260  -22.4610   33.0590 C.3       1 FAD1001     0.0000 
     35 C8        -11.4410  -21.1700   31.1190 C.ar      1 FAD1001     0.0000 
     36 C8M       -11.3700  -19.8390   31.8410 C.3       1 FAD1001     0.0000 
     37 C9        -12.0260  -21.1870   29.8080 C.ar      1 FAD1001     0.0000 
     38 C9A       -12.1360  -22.3710   29.0600 C.ar      1 FAD1001     0.0000 
     39 N10       -12.7200  -22.4020   27.7410 N.pl3     1 FAD1001     0.0000 
     40 C10       -12.8010  -23.6070   27.0360 C.2       1 FAD1001     0.0000 
     41 C1'       -13.2280  -21.1670   27.1470 C.3       1 FAD1001     0.0000 
     42 C2'       -12.4220  -20.6880   25.9730 C.3       1 FAD1001     0.0000 
     43 O2'       -11.0500  -20.5480   26.3720 O.3       1 FAD1001     0.0000 
     44 C3'       -13.0400  -19.4090   25.5030 C.3       1 FAD1001     0.0000 
     45 O3'       -14.4010  -19.6500   25.1530 O.3       1 FAD1001     0.0000 
     46 C4'       -12.3180  -18.8430   24.2870 C.3       1 FAD1001     0.0000 
     47 O4'       -10.9420  -18.6130   24.6080 O.3       1 FAD1001     0.0000 
     48 C5'       -13.0030  -17.5720   23.8990 C.3       1 FAD1001     0.0000 
     49 O5'       -12.3680  -17.0370   22.7600 O.3       1 FAD1001     0.0000 
     50 P         -12.3930  -15.4850   22.5060 P.3       1 FAD1001     0.0000 
     51 O1P       -11.6670  -15.2870   21.2440 O.co2     1 FAD1001     0.0000 
     52 O2P       -13.7990  -14.9900   22.5890 O.co2     1 FAD1001     0.0000 
     53 O3P       -11.5710  -14.8140   23.7010 O.3       1 FAD1001     0.0000 
     54 H          -9.6664  -12.3985   25.1107 H         1 FAD1001     0.0000 
     55 H         -10.2489  -12.1175   23.4609 H         1 FAD1001     0.0000 
     56 H          -7.8509  -12.4312   22.7166 H         1 FAD1001     0.0000 
     57 H          -7.4451  -12.9151   25.4740 H         1 FAD1001     0.0000 
     58 H          -7.4952  -10.8189   26.0857 H         1 FAD1001     0.0000 
     59 H          -6.2290   -9.9684   23.5019 H         1 FAD1001     0.0000 
     60 H          -9.0722   -8.7433   25.8387 H         1 FAD1001     0.0000 
     61 H          -7.9659   -4.0074   25.4522 H         1 FAD1001     0.0000 
     62 H          -6.2976   -3.3425   25.4699 H         1 FAD1001     0.0000 
     63 H          -4.0627   -6.1993   22.7525 H         1 FAD1001     0.0000 
     64 H         -13.1190  -26.8214   25.0839 H         1 FAD1001     0.0000 
     65 H         -10.7185  -24.4629   31.3405 H         1 FAD1001     0.0000 
     66 H         -12.3716  -20.2974   29.4155 H         1 FAD1001     0.0000 
     67 H         -13.2537  -20.3593   27.9093 H         1 FAD1001     0.0000 
     68 H         -14.2801  -21.3061   26.8184 H         1 FAD1001     0.0000 
     69 H         -12.5256  -21.4310   25.1870 H         1 FAD1001     0.0000 
     70 H         -12.9803  -18.6760   26.2986 H         1 FAD1001     0.0000 
     71 H         -12.4231  -19.5553   23.4845 H         1 FAD1001     0.0000 
     72 H         -12.9591  -16.8815   24.7526 H         1 FAD1001     0.0000 
     73 H         -14.0621  -17.7946   23.7087 H         1 FAD1001     0.0000 
     74 H          -9.3846  -22.7960   33.0207 H         1 FAD1001     0.0000 
     75 H         -10.3002  -21.5638   33.4999 H         1 FAD1001     0.0000 
     76 H         -10.8302  -23.0727   33.6686 H         1 FAD1001     0.0000 
     77 H         -10.4275  -19.5824   32.0549 H         1 FAD1001     0.0000 
     78 H         -11.7584  -19.0981   31.2931 H         1 FAD1001     0.0000 
     79 H         -11.8720  -19.8583   32.7057 H         1 FAD1001     0.0000 
     80 H          -5.2639  -12.1618   23.8161 H         1 FAD1001     0.0000 
     81 H          -5.4664   -9.8624   26.3083 H         1 FAD1001     0.0000 
     82 H         -10.6812  -19.8294   25.7825 H         1 FAD1001     0.0000 
     83 H         -14.7753  -20.1758   25.9168 H         1 FAD1001     0.0000 
     84 H         -10.8398  -17.6182   24.6109 H         1 FAD1001     0.0000 
@<TRIPOS>BOND
     1    2    1 ar   
     2    3    1 ar   
     3    4    1 1    
     4   53    1 1    
     5    5    4 1    
     6    6    5 1    
     7   54    5 1    
     8   55    5 1    
     9    7    6 1    
    10    8    6 1    
    11   56    6 1    
    12   12    7 1    
    13    9    8 1    
    14   10    8 1    
    15   57    8 1    
    16   80    9 1    
    17   11   10 1    
    18   12   10 1    
    19   58   10 1    
    20   81   11 1    
    21   13   12 1    
    22   59   12 1    
    23   14   13 1    
    24   22   13 1    
    25   15   14 2    
    26   60   14 1    
    27   16   15 1    
    28   17   16 ar   
    29   22   16 ar   
    30   18   17 1    
    31   19   17 ar   
    32   61   18 1    
    33   62   18 1    
    34   20   19 ar   
    35   21   20 ar   
    36   63   20 1    
    37   22   21 ar   
    38   24   23 1    
    39   40   23 2    
    40   25   24 2    
    41   26   24 am   
    42   27   26 am   
    43   64   26 1    
    44   28   27 2    
    45   29   27 1    
    46   30   29 2    
    47   40   29 1    
    48   31   30 1    
    49   32   31 ar   
    50   38   31 ar   
    51   33   32 ar   
    52   65   32 1    
    53   34   33 1    
    54   35   33 ar   
    55   74   34 1    
    56   75   34 1    
    57   76   34 1    
    58   36   35 1    
    59   37   35 ar   
    60   77   36 1    
    61   78   36 1    
    62   79   36 1    
    63   38   37 ar   
    64   66   37 1    
    65   39   38 1    
    66   40   39 1    
    67   41   39 1    
    68   42   41 1    
    69   67   41 1    
    70   68   41 1    
    71   43   42 1    
    72   44   42 1    
    73   69   42 1    
    74   82   43 1    
    75   45   44 1    
    76   46   44 1    
    77   70   44 1    
    78   83   45 1    
    79   47   46 1    
    80   48   46 1    
    81   71   46 1    
    82   84   47 1    
    83   49   48 1    
    84   72   48 1    
    85   73   48 1    
    86   50   49 1    
    87   51   50 ar   
    88   52   50 ar   
    89   53   50 1    
@<TRIPOS>SUBSTRUCTURE
     1 FAD1001     1 GROUP   
@<TRIPOS>SET

