#    Name: 3frq_ERY_1_INTS_M
#    Modification time : Tue Mar 25 06:25:28 2014

@<TRIPOS>MOLECULE
3frq_ERY_1_INTS_M
   95     0     9     0     0
SMALL
NO_CHARGES


@<TRIPOS>ATOM
      1 CA          8.8710   10.3580   20.0485 C.3       3 GLC5        0.0000 
      2 CA          7.2290    9.6790   21.3060 C.3       9 GLL5        0.0000 
      3 CA         10.5130   11.0370   18.7910 C.3       6 GLP5        0.0000 
      4 CA         10.4020   10.0700   20.5390 C.3       3 GLC5        0.0000 
      5 CA         10.2910    9.1030   22.2870 C.3       9 GLL5        0.0000 
      6 CA          9.0760    9.6540   25.1090 C.3       3 GLC5        0.0000 
      7 CA          9.2550    9.9260   23.0450 C.3       9 GLL5        0.0000 
      8 CA          8.8970    9.3820   27.1730 C.3       6 GLP5        0.0000 
      9 N           5.7405    9.6255   24.1920 N.am      2 SEC2        0.0000 
     10 N           7.1660    9.2040   23.7230 N.am      8 SEL2        0.0000 
     11 N           4.3150   10.0470   24.6610 N.am      5 SEP2        0.0000 
     12 CA          5.3025   11.0395   23.2970 C.3       3 GLC5        0.0000 
     13 CA          6.1100   10.7660   21.4090 C.3       9 GLL5        0.0000 
     14 CA          4.4950   11.3130   25.1850 C.3       6 GLP5        0.0000 
     15 CA          6.6315   12.5135   21.0040 C.3       3 GLC5        0.0000 
     16 CA          7.1530   14.2610   20.5990 C.3       6 GLP5        0.0000 
     17 CA          4.3965   10.8780   20.6420 C.3       3 GLC5        0.0000 
     18 CA          2.6830   10.9900   19.8750 C.3       6 GLP5        0.0000 
     19 CA         10.5810   12.3510   23.9890 C.3       3 GLC5        0.0000 
     20 CA          9.5170   11.4740   22.7210 C.3       9 GLL5        0.0000 
     21 CA         11.6450   13.2280   25.2570 C.3       6 GLP5        0.0000 
     22 CA         10.0150   11.2555   20.7560 C.3       3 GLC5        0.0000 
     23 CA          8.3350   12.8675   21.6600 C.3       3 GLC5        0.0000 
     24 CA          8.9675   10.0215   18.6645 C.3       3 GLC5        0.0000 
     25 CA          7.4220    9.0060   18.5380 C.3       9 GLL5        0.0000 
     26 CA          7.5090   10.1135   16.8955 C.3       3 GLC5        0.0000 
     27 CA          7.5960   11.2210   15.2530 C.3       6 GLP5        0.0000 
     28 O           5.3790    7.2270   23.2010 O.2       1 ALC1        0.0000 
     29 O           5.7590    7.7510   21.6610 O.2       7 ALL1        0.0000 
     30 O           4.9990    6.7030   24.7410 O.2       4 ALP1        0.0000 
     31 CA          9.3715    1.0975   18.9295 C.3       3 GLC5        0.0000 
     32 CA          9.2740    3.1200   19.1960 C.3       9 GLL5        0.0000 
     33 CA          9.4690   -0.9250   18.6630 C.3       6 GLP5        0.0000 
     34 CA         11.7035    6.5905   25.6240 C.3       3 GLC5        0.0000 
     35 CA         10.6590    7.4350   24.2200 C.3       9 GLL5        0.0000 
     36 CA         12.7480    5.7460   27.0280 C.3       6 GLP5        0.0000 
     37 CA         10.0575    5.7700   25.3505 C.3       3 GLC5        0.0000 
     38 CA          9.4560    4.1050   26.4810 C.3       6 GLP5        0.0000 
     39 CA          9.7780    8.4085   25.6965 C.3       3 GLC5        0.0000 
     40 CA         16.6765    9.9640   25.7745 C.3       3 GLC5        0.0000 
     41 CA         15.6080    9.0570   24.4000 C.3       9 GLL5        0.0000 
     42 CA         17.7450   10.8710   27.1490 C.3       6 GLP5        0.0000 
     43 CA         15.9000   10.8760   23.4285 C.3       3 GLC5        0.0000 
     44 CA         16.1920   12.6950   22.4570 C.3       6 GLP5        0.0000 
     45 CA         13.4420    7.3525   25.9045 C.3       3 GLC5        0.0000 
     46 CA         14.1360    8.9590   24.7810 C.3       9 GLL5        0.0000 
     47 CA         12.8110    8.8735   27.0500 C.3       3 GLC5        0.0000 
     48 CA         13.7180   10.1940   25.5730 C.3       9 GLL5        0.0000 
     49 CA         11.9040    7.5530   28.5270 C.3       6 GLP5        0.0000 
     50 CA         15.3425   11.0875   26.1825 C.3       3 GLC5        0.0000 
     51 CA         16.9670   11.9810   26.7920 C.3       6 GLP5        0.0000 
     52 CA         12.6815   11.7110   25.4150 C.3       3 GLC5        0.0000 
     53 CA         16.9705   10.7040   22.3075 C.3       3 GLC5        0.0000 
     54 CA         17.7490    8.7130   22.1580 C.3       9 GLL5        0.0000 
     55 CA         10.6330    3.0715   23.3980 C.3       3 GLC5        0.0000 
     56 CA         11.3990    2.9170   21.4990 C.3       9 GLL5        0.0000 
     57 CA          9.8670    3.2260   25.2970 C.3       6 GLP5        0.0000 
     58 CA         10.7715    0.3610   19.8030 C.3       3 GLC5        0.0000 
     59 CA         12.0740    1.6470   20.9430 C.3       9 GLL5        0.0000 
     60 CA         15.3280    2.7145   18.1875 C.3       3 GLC5        0.0000 
     61 CA         13.5100    2.7640   18.6210 C.3       9 GLL5        0.0000 
     62 CA         17.1460    2.6650   17.7540 C.3       6 GLP5        0.0000 
     63 CA         12.6185    1.2100   17.6195 C.3       3 GLC5        0.0000 
     64 CA         11.7270   -0.3440   16.6180 C.3       6 GLP5        0.0000 
     65 CA         18.5655    9.2155   25.3920 C.3       3 GLC5        0.0000 
     66 CA         18.2060    7.7820   24.3150 C.3       9 GLL5        0.0000 
     67 CA         18.9250   10.6490   26.4690 C.3       6 GLP5        0.0000 
     68 CA         14.2875    2.3670   25.4115 C.3       3 GLC5        0.0000 
     69 CA         13.8170    3.8850   24.1160 C.3       9 GLL5        0.0000 
     70 CA         14.7580    0.8490   26.7070 C.3       6 GLP5        0.0000 
     71 CA         13.2825    4.8155   25.5720 C.3       3 GLC5        0.0000 
     72 CA          7.6025    4.6185   16.3450 C.3       3 GLC5        0.0000 
     73 CA          5.6690    4.9540   17.3040 C.3       9 GLL5        0.0000 
     74 CA          9.5360    4.2830   15.3860 C.3       6 GLP5        0.0000 
     75 CA          5.0910    3.1770   17.6985 C.3       3 GLC5        0.0000 
     76 CA          4.5130    1.4000   18.0930 C.3       6 GLP5        0.0000 
     77 CA         15.9375   -0.1225   20.4555 C.3       3 GLC5        0.0000 
     78 CA         14.1780    0.3830   20.4620 C.3       9 GLL5        0.0000 
     79 CA         17.6970   -0.6280   20.4490 C.3       6 GLP5        0.0000 
     80 CA         13.9530   -1.4460   19.6160 C.3       3 GLC5        0.0000 
     81 CA         13.7280   -3.2750   18.7700 C.3       6 GLP5        0.0000 
     82 CA         13.0270   -1.0285   21.7235 C.3       3 GLC5        0.0000 
     83 CA         11.8760   -2.4400   22.9850 C.3       6 GLP5        0.0000 
     84 CA          4.7231    7.5111   19.7701 C.3       3 GLC5        0.0000 
     85 CA          6.8040    8.3070   20.8350 C.3       9 GLL5        0.0000 
     86 CA          2.9500    7.5350   20.0330 C.3       6 GLP5        0.0000 
     87 CA          9.4512    4.0793   17.3813 C.3       3 GLC5        0.0000 
     88 CA          9.4590    4.6310   19.5570 C.3       9 GLL5        0.0000 
     89 CA          5.0260    6.0898   15.9183 C.3       3 GLC5        0.0000 
     90 CA          4.2960    6.4640   14.4300 C.3       6 GLP5        0.0000 
     91 CA          3.9635    6.4037   17.9572 C.3       3 GLC5        0.0000 
     92 CA          5.8430    6.4770   17.5090 C.3       9 GLL5        0.0000 
     93 CA          2.1710    7.0920   18.5080 C.3       6 GLP5        0.0000 
     94 CA         11.7365    3.4400   24.3567 C.3       3 GLC5        0.0000 
     95 CA         13.3950    3.4230   22.7170 C.3       9 GLL5        0.0000 
@<TRIPOS>BOND
@<TRIPOS>SUBSTRUCTURE
     1 ALC1       28 GROUP        1 X    ALC  0     ROOT ALC X 1
     2 SEC2        9 GROUP        1 X    SEC  0     **** SEC X 2
     3 GLC5        1 GROUP        1 X    GLC  0     **** GLC X 6
     4 ALP1       30 GROUP        1 Y    ALP  0     ROOT ALP Y 8
     5 SEP2       11 GROUP        1 Y    SEP  0     **** SEP Y 9
     6 GLP5        3 GROUP        1 Y    GLP  0     **** GLP Y 13
     7 ALL1       29 GROUP        1 Z    ALL  0     ROOT ALL Z 15
     8 SEL2       10 GROUP        1 Z    SEL  0     **** SEL Z 16
     9 GLL5        2 GROUP        1 Z    GLL  0     **** GLL Z 20
@<TRIPOS>SET

