#    Name: 3frq_ERY_1_ligand
#    Modification time : Tue Mar 25 06:25:28 2014

@<TRIPOS>MOLECULE
3frq_ERY_1_ligand
  119   121     1     0     0
SMALL
NO_CHARGES


@<TRIPOS>ATOM
      1 C10         7.2290    9.6790   21.3060 C.3       1 ERY195      0.0000 
      2 C11         6.8040    8.3070   20.8350 C.3       1 ERY195      0.0000 
      3 C12         6.4410    8.2680   19.3500 C.3       1 ERY195      0.0000 
      4 C13         6.3700    6.6870   18.9220 C.3       1 ERY195      0.0000 
      5 O2          7.7520    6.1950   18.9230 O.3       1 ERY195      0.0000 
      6 C2          9.4590    4.6310   19.5570 C.3       1 ERY195      0.0000 
      7 C3         10.4170    4.9360   20.6840 C.3       1 ERY195      0.0000 
      8 C4         10.9170    6.3730   20.6040 C.3       1 ERY195      0.0000 
      9 C5         11.5070    6.8120   21.9650 C.3       1 ERY195      0.0000 
     10 C6         10.3950    7.6390   22.6620 C.3       1 ERY195      0.0000 
     11 C7         10.2910    9.1030   22.2870 C.3       1 ERY195      0.0000 
     12 C8          9.2550    9.9260   23.0450 C.3       1 ERY195      0.0000 
     13 C9          7.8160    9.5880   22.7420 C.2       1 ERY195      0.0000 
     14 O11         7.1660    9.2040   23.7230 O.2       1 ERY195      0.0000 
     15 C1          8.0930    5.2610   19.7630 C.2       1 ERY195      0.0000 
     16 O1          7.3550    4.8340   20.6810 O.2       1 ERY195      0.0000 
     17 O3         11.5950    3.9950   20.5810 O.3       1 ERY195      0.0000 
     18 O7         12.6700    7.6310   21.7350 O.3       1 ERY195      0.0000 
     19 C34         6.1100   10.7660   21.4090 C.3       1 ERY195      0.0000 
     20 C33         9.5170   11.4740   22.7210 C.3       1 ERY195      0.0000 
     21 C35         7.4220    9.0060   18.5380 C.3       1 ERY195      0.0000 
     22 O12         5.7590    7.7510   21.6610 O.3       1 ERY195      0.0000 
     23 O13         5.1490    8.7900   19.1280 O.3       1 ERY195      0.0000 
     24 C36         5.8430    6.4770   17.5090 C.3       1 ERY195      0.0000 
     25 C30         9.2740    3.1200   19.1960 C.3       1 ERY195      0.0000 
     26 C32        10.6590    7.4350   24.2200 C.3       1 ERY195      0.0000 
     27 O10         9.1500    6.9450   22.4740 O.3       1 ERY195      0.0000 
     28 C22        13.5850    7.7170   22.8510 C.3       1 ERY195      0.0000 
     29 C23        14.9950    7.7290   22.2920 C.3       1 ERY195      0.0000 
     30 C24        15.9330    7.8180   23.5180 C.3       1 ERY195      0.0000 
     31 C25        15.6080    9.0570   24.4000 C.3       1 ERY195      0.0000 
     32 C26        14.1360    8.9590   24.7810 C.3       1 ERY195      0.0000 
     33 O9         13.3780    8.9300   23.5800 O.3       1 ERY195      0.0000 
     34 N1         17.3550    7.6540   23.1090 N.4       1 ERY195      0.0000 
     35 C27        13.7180   10.1940   25.5730 C.3       1 ERY195      0.0000 
     36 O8         15.2180    6.4470   21.6990 O.3       1 ERY195      0.0000 
     37 C28        17.7490    8.7130   22.1580 C.3       1 ERY195      0.0000 
     38 C14        11.3990    2.9170   21.4990 C.3       1 ERY195      0.0000 
     39 C15        12.0740    1.6470   20.9430 C.3       1 ERY195      0.0000 
     40 C16        13.6020    1.7660   20.8590 C.3       1 ERY195      0.0000 
     41 C17        14.0770    2.1310   22.2640 C.3       1 ERY195      0.0000 
     42 C18        13.3950    3.4230   22.7170 C.3       1 ERY195      0.0000 
     43 O4         11.9920    3.2670   22.7530 O.3       1 ERY195      0.0000 
     44 O5         14.0480    2.8290   19.9710 O.3       1 ERY195      0.0000 
     45 O6         15.5110    2.2830   22.2390 O.3       1 ERY195      0.0000 
     46 C20        13.5100    2.7640   18.6210 C.3       1 ERY195      0.0000 
     47 C29        18.2060    7.7820   24.3150 C.3       1 ERY195      0.0000 
     48 C21        13.8170    3.8850   24.1160 C.3       1 ERY195      0.0000 
     49 C37         5.6690    4.9540   17.3040 C.3       1 ERY195      0.0000 
     50 C31        12.0400    6.3760   19.5060 C.3       1 ERY195      0.0000 
     51 C19        14.1780    0.3830   20.4620 C.3       1 ERY195      0.0000 
     52 H           8.0178   10.0763   20.6821 H         1 ERY195      0.0000 
     53 H           7.7139    7.6451   20.9412 H         1 ERY195      0.0000 
     54 H           5.7852    6.1896   19.6307 H         1 ERY195      0.0000 
     55 H           9.8715    5.1082   18.6203 H         1 ERY195      0.0000 
     56 H           9.9280    4.7821   21.6229 H         1 ERY195      0.0000 
     57 H          10.1470    7.0138   20.3041 H         1 ERY195      0.0000 
     58 H          11.7026    5.9537   22.5397 H         1 ERY195      0.0000 
     59 H          10.0742    9.1809   21.1958 H         1 ERY195      0.0000 
     60 H          11.2894    9.5813   22.4219 H         1 ERY195      0.0000 
     61 H           9.4398    9.8264   24.1148 H         1 ERY195      0.0000 
     62 H           6.5520    6.8474   16.7942 H         1 ERY195      0.0000 
     63 H           4.8896    6.9560   17.3981 H         1 ERY195      0.0000 
     64 H          13.4910    6.8585   23.4849 H         1 ERY195      0.0000 
     65 H          15.1449    8.5240   21.6706 H         1 ERY195      0.0000 
     66 H          15.6591    6.9149   24.1495 H         1 ERY195      0.0000 
     67 H          15.7820    9.9445   23.8274 H         1 ERY195      0.0000 
     68 H          16.2188    9.0260   25.2785 H         1 ERY195      0.0000 
     69 H          13.9834    8.0943   25.3727 H         1 ERY195      0.0000 
     70 H          17.5000    6.6911   22.6712 H         1 ERY195      0.0000 
     71 H          10.3520    2.7003   21.6167 H         1 ERY195      0.0000 
     72 H          11.6748    1.4438   19.9426 H         1 ERY195      0.0000 
     73 H          11.8155    0.7986   21.5870 H         1 ERY195      0.0000 
     74 H          13.7832    1.3371   22.9302 H         1 ERY195      0.0000 
     75 H          13.6661    4.2179   22.0202 H         1 ERY195      0.0000 
     76 H           6.4723   11.6434   21.7236 H         1 ERY195      0.0000 
     77 H           5.6695   10.9303   20.5264 H         1 ERY195      0.0000 
     78 H           5.3908   10.4990   22.0504 H         1 ERY195      0.0000 
     79 H          10.4314   11.7631   23.0042 H         1 ERY195      0.0000 
     80 H           9.4383   11.6672   21.7430 H         1 ERY195      0.0000 
     81 H           8.8634   12.0675   23.1906 H         1 ERY195      0.0000 
     82 H           8.3420    8.6251   18.6301 H         1 ERY195      0.0000 
     83 H           7.1913    8.9831   17.5653 H         1 ERY195      0.0000 
     84 H           7.4753    9.9685   18.8040 H         1 ERY195      0.0000 
     85 H          10.1353    2.6974   18.9140 H         1 ERY195      0.0000 
     86 H           8.9289    2.5923   19.9721 H         1 ERY195      0.0000 
     87 H           8.6261    2.9943   18.4448 H         1 ERY195      0.0000 
     88 H          11.5642    7.7637   24.4895 H         1 ERY195      0.0000 
     89 H           9.9905    7.9272   24.7775 H         1 ERY195      0.0000 
     90 H          10.6069    6.4715   24.4825 H         1 ERY195      0.0000 
     91 H          14.2505   10.2940   26.4135 H         1 ERY195      0.0000 
     92 H          13.8434   11.0339   25.0449 H         1 ERY195      0.0000 
     93 H          12.7548   10.1561   25.8391 H         1 ERY195      0.0000 
     94 H          18.7032    8.6203   21.8734 H         1 ERY195      0.0000 
     95 H          17.1921    8.6925   21.3277 H         1 ERY195      0.0000 
     96 H          17.6490    9.6251   22.5555 H         1 ERY195      0.0000 
     97 H          13.8454    3.5141   18.0510 H         1 ERY195      0.0000 
     98 H          13.7612    1.9120   18.1617 H         1 ERY195      0.0000 
     99 H          12.5114    2.8162   18.6163 H         1 ERY195      0.0000 
    100 H          19.1769    7.6835   24.0966 H         1 ERY195      0.0000 
    101 H          18.0937    8.6724   24.7560 H         1 ERY195      0.0000 
    102 H          17.9874    7.0863   24.9993 H         1 ERY195      0.0000 
    103 H          14.8006    4.0576   24.1692 H         1 ERY195      0.0000 
    104 H          13.3561    4.7315   24.3823 H         1 ERY195      0.0000 
    105 H          13.6012    3.2018   24.8136 H         1 ERY195      0.0000 
    106 H           6.5333    4.4633   17.4141 H         1 ERY195      0.0000 
    107 H           5.0239    4.5623   17.9600 H         1 ERY195      0.0000 
    108 H           5.3244    4.7392   16.3901 H         1 ERY195      0.0000 
    109 H          12.4345    7.2863   19.3807 H         1 ERY195      0.0000 
    110 H          12.7920    5.7606   19.7422 H         1 ERY195      0.0000 
    111 H          11.6901    6.0832   18.6161 H         1 ERY195      0.0000 
    112 H          15.1752    0.4029   20.3897 H         1 ERY195      0.0000 
    113 H          13.9467   -0.3220   21.1324 H         1 ERY195      0.0000 
    114 H          13.8262    0.0739   19.5784 H         1 ERY195      0.0000 
    115 H           5.9705    8.0596   22.5884 H         1 ERY195      0.0000 
    116 H           5.0781    8.8918   18.1357 H         1 ERY195      0.0000 
    117 H           8.4538    7.5561   22.8505 H         1 ERY195      0.0000 
    118 H          15.9028    6.0084   22.2809 H         1 ERY195      0.0000 
    119 H          15.8422    1.7396   23.0104 H         1 ERY195      0.0000 
@<TRIPOS>BOND
     1    2    1 1    
     2   13    1 1    
     3   19    1 1    
     4   52    1 1    
     5    3    2 1    
     6   22    2 1    
     7   53    2 1    
     8    4    3 1    
     9   21    3 1    
    10   23    3 1    
    11    5    4 1    
    12   24    4 1    
    13   54    4 1    
    14   15    5 1    
    15    7    6 1    
    16   15    6 1    
    17   25    6 1    
    18   55    6 1    
    19    8    7 1    
    20   17    7 1    
    21   56    7 1    
    22    9    8 1    
    23   50    8 1    
    24   57    8 1    
    25   10    9 1    
    26   18    9 1    
    27   58    9 1    
    28   11   10 1    
    29   26   10 1    
    30   27   10 1    
    31   12   11 1    
    32   59   11 1    
    33   60   11 1    
    34   13   12 1    
    35   20   12 1    
    36   61   12 1    
    37   14   13 2    
    38   16   15 2    
    39   38   17 1    
    40   28   18 1    
    41   76   19 1    
    42   77   19 1    
    43   78   19 1    
    44   79   20 1    
    45   80   20 1    
    46   81   20 1    
    47   82   21 1    
    48   83   21 1    
    49   84   21 1    
    50  115   22 1    
    51  116   23 1    
    52   49   24 1    
    53   62   24 1    
    54   63   24 1    
    55   85   25 1    
    56   86   25 1    
    57   87   25 1    
    58   88   26 1    
    59   89   26 1    
    60   90   26 1    
    61  117   27 1    
    62   29   28 1    
    63   33   28 1    
    64   64   28 1    
    65   30   29 1    
    66   36   29 1    
    67   65   29 1    
    68   31   30 1    
    69   34   30 1    
    70   66   30 1    
    71   32   31 1    
    72   67   31 1    
    73   68   31 1    
    74   33   32 1    
    75   35   32 1    
    76   69   32 1    
    77   37   34 1    
    78   47   34 1    
    79   70   34 1    
    80   91   35 1    
    81   92   35 1    
    82   93   35 1    
    83  118   36 1    
    84   94   37 1    
    85   95   37 1    
    86   96   37 1    
    87   39   38 1    
    88   43   38 1    
    89   71   38 1    
    90   40   39 1    
    91   72   39 1    
    92   73   39 1    
    93   41   40 1    
    94   44   40 1    
    95   51   40 1    
    96   42   41 1    
    97   45   41 1    
    98   74   41 1    
    99   43   42 1    
   100   48   42 1    
   101   75   42 1    
   102   46   44 1    
   103  119   45 1    
   104   97   46 1    
   105   98   46 1    
   106   99   46 1    
   107  100   47 1    
   108  101   47 1    
   109  102   47 1    
   110  103   48 1    
   111  104   48 1    
   112  105   48 1    
   113  106   49 1    
   114  107   49 1    
   115  108   49 1    
   116  109   50 1    
   117  110   50 1    
   118  111   50 1    
   119  112   51 1    
   120  113   51 1    
   121  114   51 1    
@<TRIPOS>SUBSTRUCTURE
     1 ERY195      1 GROUP   
@<TRIPOS>SET

