#    Name: 1n5q_TNC_1_INTS_M
#    Modification time : Tue Mar 25 12:25:30 2014

@<TRIPOS>MOLECULE
1n5q_TNC_1_INTS_M
   63     0     9     0     0
SMALL
NO_CHARGES


@<TRIPOS>ATOM
      1 CA         33.5480   24.0900   -8.1385 C.3       3 GLC5        0.0000 
      2 CA         33.5650   25.5490   -6.5780 C.3       9 GLL5        0.0000 
      3 CA         33.5310   22.6310   -9.6990 C.3       6 GLP5        0.0000 
      4 CA         35.2945   25.0840   -9.0490 C.3       3 GLC5        0.0000 
      5 CA         34.7620   25.9730   -7.1320 C.3       9 GLL5        0.0000 
      6 CA         35.8270   24.1950  -10.9660 C.3       6 GLP5        0.0000 
      7 N          35.5570   30.1085   -7.6520 N.am      2 SEC2        0.0000 
      8 N          34.5380   29.5630   -6.6170 N.am      8 SEL2        0.0000 
      9 N          36.5760   30.6540   -8.6870 N.am      5 SEP2        0.0000 
     10 CA         31.3990   26.5160   -7.4430 C.3       3 GLC5        0.0000 
     11 CA         31.5160   26.0690   -5.3540 C.3       9 GLL5        0.0000 
     12 CA         31.2820   26.9630   -9.5320 C.3       6 GLP5        0.0000 
     13 CA         30.9845   28.3475   -7.2500 C.3       3 GLC5        0.0000 
     14 CA         30.8900   28.3650   -5.0170 C.3       9 GLL5        0.0000 
     15 CA         31.0790   28.3300   -9.4830 C.3       6 GLP5        0.0000 
     16 CA         29.5400   24.4730   -3.6370 C.3       3 GLC5        0.0000 
     17 CA         29.5460   26.6680   -4.0670 C.3       9 GLL5        0.0000 
     18 CA         29.5340   22.2780   -3.2070 C.3       6 GLP5        0.0000 
     19 O          30.5515   31.3430   -5.8110 O.2       1 ALC1        0.0000 
     20 O          30.3460   30.6420   -4.5010 O.2       7 ALL1        0.0000 
     21 O          30.7570   32.0440   -7.1210 O.2       4 ALP1        0.0000 
     22 CA         27.9930   26.1285   -1.6145 C.3       3 GLC5        0.0000 
     23 CA         27.3160   27.1820   -3.3090 C.3       9 GLL5        0.0000 
     24 CA         28.6700   25.0750    0.0800 C.3       6 GLP5        0.0000 
     25 CA         26.7405   28.6945   -1.0810 C.3       3 GLC5        0.0000 
     26 CA         26.5960   29.4160   -3.0450 C.3       9 GLL5        0.0000 
     27 CA         26.8850   27.9730    0.8830 C.3       6 GLP5        0.0000 
     28 CA         27.2600   25.3435   -1.1545 C.3       3 GLC5        0.0000 
     29 CA         25.8500   25.6120   -2.3890 C.3       9 GLL5        0.0000 
     30 CA         25.4035   25.1415   -4.1790 C.3       3 GLC5        0.0000 
     31 CA         24.9570   24.6710   -5.9690 C.3       6 GLP5        0.0000 
     32 CA         26.4960   23.7455   -2.3495 C.3       3 GLC5        0.0000 
     33 CA         27.1420   21.8790   -2.3100 C.3       6 GLP5        0.0000 
     34 CA         24.3990   25.1030   -1.7520 C.3       3 GLC5        0.0000 
     35 CA         22.9480   24.5940   -1.1150 C.3       6 GLP5        0.0000 
     36 CA         25.8335   26.3105   -0.9435 C.3       3 GLC5        0.0000 
     37 CA         25.8170   27.0090    0.5020 C.3       6 GLP5        0.0000 
     38 CA         28.3230   25.0260   -1.5720 C.3       3 GLC5        0.0000 
     39 CA         27.9760   24.9770   -3.2240 C.3       9 GLL5        0.0000 
     40 CA         26.9090   25.9505   -4.6200 C.3       3 GLC5        0.0000 
     41 CA         25.8420   26.9240   -6.0160 C.3       6 GLP5        0.0000 
     42 CA         28.7550   23.6275   -3.2155 C.3       3 GLC5        0.0000 
     43 CA         36.5273   25.8140   -6.4318 C.3       3 GLC5        0.0000 
     44 CA         38.1140   24.9910   -5.7170 C.3       6 GLP5        0.0000 
     45 CA         36.0825   28.5093   -6.0790 C.3       3 GLC5        0.0000 
     46 CA         35.1190   27.3010   -7.1610 C.3       9 GLL5        0.0000 
     47 CA         37.4970   29.2570   -5.2680 C.3       6 GLP5        0.0000 
     48 CA         28.5408   26.7035   -5.7138 C.3       3 GLC5        0.0000 
     49 CA         30.5530   27.0100   -4.9900 C.3       9 GLL5        0.0000 
     50 CA         27.0320   26.5680   -6.8990 C.3       6 GLP5        0.0000 
     51 CA         31.2125   24.6356   -6.8216 C.3       3 GLC5        0.0000 
     52 CA         30.1110   23.2340   -7.8070 C.3       6 GLP5        0.0000 
     53 CA         31.3445   29.4222   -3.3273 C.3       3 GLC5        0.0000 
     54 CA         32.2360   30.0160   -1.9070 C.3       6 GLP5        0.0000 
     55 CA         29.4763   26.1932   -2.2025 C.3       3 GLC5        0.0000 
     56 CA         28.4810   27.5610   -3.9390 C.3       9 GLL5        0.0000 
     57 CA         29.9390   25.2720   -0.4020 C.3       6 GLP5        0.0000 
     58 CA         27.2372   27.5840   -4.9798 C.3       3 GLC5        0.0000 
     59 CA         29.7299   28.4484   -2.1972 C.3       3 GLC5        0.0000 
     60 CA         28.7840   28.9270   -3.9480 C.3       9 GLL5        0.0000 
     61 CA         30.5610   28.8760   -0.4190 C.3       6 GLP5        0.0000 
     62 CA         26.3157   27.3193   -1.3240 C.3       3 GLC5        0.0000 
     63 CA         26.2736   27.7234   -4.5568 C.3       3 GLC5        0.0000 
@<TRIPOS>BOND
@<TRIPOS>SUBSTRUCTURE
     1 ALC1       19 GROUP        1 X    ALC  0     ROOT ALC X 1
     2 SEC2        7 GROUP        1 X    SEC  0     **** SEC X 2
     3 GLC5        1 GROUP        1 X    GLC  0     **** GLC X 6
     4 ALP1       21 GROUP        1 Y    ALP  0     ROOT ALP Y 8
     5 SEP2        9 GROUP        1 Y    SEP  0     **** SEP Y 9
     6 GLP5        3 GROUP        1 Y    GLP  0     **** GLP Y 13
     7 ALL1       20 GROUP        1 Z    ALL  0     ROOT ALL Z 15
     8 SEL2        8 GROUP        1 Z    SEL  0     **** SEL Z 16
     9 GLL5        2 GROUP        1 Z    GLL  0     **** GLL Z 20
@<TRIPOS>SET

