#    Name: 1n5q_TNC_1_ligand
#    Modification time : Tue Mar 25 12:25:30 2014

@<TRIPOS>MOLECULE
1n5q_TNC_1_ligand
   52    55     1     0     0
SMALL
NO_CHARGES


@<TRIPOS>ATOM
      1 C2         32.6590   26.4620   -6.0590 C.ar      1 TNC1001     0.0000 
      2 C1         33.5650   25.5490   -6.5780 C.ar      1 TNC1001     0.0000 
      3 C6         34.7620   25.9730   -7.1320 C.ar      1 TNC1001     0.0000 
      4 C5         35.1190   27.3010   -7.1610 C.ar      1 TNC1001     0.0000 
      5 C4         34.2170   28.2220   -6.6190 C.ar      1 TNC1001     0.0000 
      6 C3         33.0150   27.7970   -6.0690 C.ar      1 TNC1001     0.0000 
      7 O1         34.5380   29.5630   -6.6170 O.3       1 TNC1001     0.0000 
      8 C8         30.5530   27.0100   -4.9900 C.3       1 TNC1001     0.0000 
      9 C7         31.5160   26.0690   -5.3540 C.3       1 TNC1001     0.0000 
     10 C10        32.1240   28.7130   -5.5340 C.2       1 TNC1001     0.0000 
     11 C9         30.8900   28.3650   -5.0170 C.2       1 TNC1001     0.0000 
     12 O2         32.5200   30.0190   -5.5740 O.2       1 TNC1001     0.0000 
     13 C12        28.4810   27.5610   -3.9390 C.3       1 TNC1001     0.0000 
     14 C11        29.5460   26.6680   -4.0670 C.3       1 TNC1001     0.0000 
     15 C14        30.0160   29.2920   -4.4780 C.2       1 TNC1001     0.0000 
     16 C13        28.7840   28.9270   -3.9480 C.3       1 TNC1001     0.0000 
     17 O3         30.3460   30.6420   -4.5010 O.3       1 TNC1001     0.0000 
     18 C15        27.3160   27.1820   -3.3090 C.3       1 TNC1001     0.0000 
     19 C16        26.3130   28.0770   -2.9910 C.2       1 TNC1001     0.0000 
     20 C17        26.5960   29.4160   -3.0450 C.2       1 TNC1001     0.0000 
     21 C18        27.8330   29.8330   -3.5220 C.2       1 TNC1001     0.0000 
     22 O4         28.0020   31.2120   -3.5190 O.2       1 TNC1001     0.0000 
     23 C19        25.5830   30.3620   -2.5890 C.2       1 TNC1001     0.0000 
     24 O5         25.0960   27.5970   -2.5270 O.3       1 TNC1001     0.0000 
     25 N2         24.3060   29.9010   -2.5970 N.am      1 TNC1001     0.0000 
     26 O6         25.7480   31.5210   -2.2260 O.2       1 TNC1001     0.0000 
     27 N1         26.8350   25.8450   -3.4150 N.4       1 TNC1001     0.0000 
     28 C20        25.8500   25.6120   -2.3890 C.3       1 TNC1001     0.0000 
     29 C21        27.9760   24.9770   -3.2240 C.3       1 TNC1001     0.0000 
     30 H          33.3433   24.5378   -6.5508 H         1 TNC1001     0.0000 
     31 H          35.4091   25.2603   -7.5383 H         1 TNC1001     0.0000 
     32 H          35.9971   27.6104   -7.5565 H         1 TNC1001     0.0000 
     33 H          29.8290   26.9839   -6.0630 H         1 TNC1001     0.0000 
     34 H          31.8470   25.4878   -4.4068 H         1 TNC1001     0.0000 
     35 H          30.9980   25.2111   -5.9374 H         1 TNC1001     0.0000 
     36 H          28.0471   27.4898   -5.1752 H         1 TNC1001     0.0000 
     37 H          30.0219   26.4910   -3.0438 H         1 TNC1001     0.0000 
     38 H          29.1454   25.6285   -4.3196 H         1 TNC1001     0.0000 
     39 H          29.3396   28.8248   -2.6409 H         1 TNC1001     0.0000 
     40 H          27.7955   27.0484   -2.0848 H         1 TNC1001     0.0000 
     41 H          24.1815   28.9551   -2.8966 H         1 TNC1001     0.0000 
     42 H          23.6027   30.5481   -2.3026 H         1 TNC1001     0.0000 
     43 H          26.4123   25.6798   -4.3893 H         1 TNC1001     0.0000 
     44 H          26.2307   25.7387   -1.4730 H         1 TNC1001     0.0000 
     45 H          25.0726   26.2355   -2.4721 H         1 TNC1001     0.0000 
     46 H          25.4853   24.6817   -2.4287 H         1 TNC1001     0.0000 
     47 H          28.6822   25.1347   -3.9142 H         1 TNC1001     0.0000 
     48 H          28.4031   25.1162   -2.3305 H         1 TNC1001     0.0000 
     49 H          27.7217   24.0115   -3.2801 H         1 TNC1001     0.0000 
     50 H          34.0995   29.9328   -5.7979 H         1 TNC1001     0.0000 
     51 H          30.4958   30.8553   -5.4664 H         1 TNC1001     0.0000 
     52 H          25.2007   27.5436   -1.5339 H         1 TNC1001     0.0000 
@<TRIPOS>BOND
     1    2    1 ar   
     2    6    1 ar   
     3    9    1 1    
     4    3    2 ar   
     5   30    2 1    
     6    4    3 ar   
     7   31    3 1    
     8    5    4 ar   
     9   32    4 1    
    10    6    5 ar   
    11    7    5 1    
    12   10    6 1    
    13   50    7 1    
    14    9    8 1    
    15   11    8 1    
    16   14    8 1    
    17   33    8 1    
    18   34    9 1    
    19   35    9 1    
    20   11   10 1    
    21   12   10 2    
    22   15   11 2    
    23   14   13 1    
    24   16   13 1    
    25   18   13 1    
    26   36   13 1    
    27   37   14 1    
    28   38   14 1    
    29   16   15 1    
    30   17   15 1    
    31   21   16 1    
    32   39   16 1    
    33   51   17 1    
    34   19   18 1    
    35   27   18 1    
    36   40   18 1    
    37   20   19 2    
    38   24   19 1    
    39   21   20 1    
    40   23   20 1    
    41   22   21 2    
    42   25   23 am   
    43   26   23 2    
    44   52   24 1    
    45   41   25 1    
    46   42   25 1    
    47   28   27 1    
    48   29   27 1    
    49   43   27 1    
    50   44   28 1    
    51   45   28 1    
    52   46   28 1    
    53   47   29 1    
    54   48   29 1    
    55   49   29 1    
@<TRIPOS>SUBSTRUCTURE
     1 TNC1001     1 GROUP   
@<TRIPOS>SET

