#    Name: 4fod_0UV_1_INTS_M
#    Modification time : Mon Mar 24 20:25:44 2014

@<TRIPOS>MOLECULE
4fod_0UV_1_INTS_M
   85     0     9     0     0
SMALL
NO_CHARGES


@<TRIPOS>ATOM
      1 CA         14.0590   13.0290   10.7340 C.3       3 GLC5        0.0000 
      2 CA         14.6190   11.9760    9.0930 C.3       9 GLL5        0.0000 
      3 CA         13.4990   14.0820   12.3750 C.3       6 GLP5        0.0000 
      4 CA         15.1275   10.5965   12.1080 C.3       3 GLC5        0.0000 
      5 CA         16.4060   11.3540   10.7510 C.3       9 GLL5        0.0000 
      6 CA         13.8490    9.8390   13.4650 C.3       6 GLP5        0.0000 
      7 CA         18.1620   10.6015   11.1255 C.3       3 GLC5        0.0000 
      8 CA         19.9180    9.8490   11.5000 C.3       6 GLP5        0.0000 
      9 CA         14.9525   12.7180   11.5630 C.3       3 GLC5        0.0000 
     10 CA         19.4700   10.0000    3.3860 C.3       3 GLC5        0.0000 
     11 CA         19.0060   10.5160    5.4330 C.3       9 GLL5        0.0000 
     12 CA         19.9340    9.4840    1.3390 C.3       6 GLP5        0.0000 
     13 CA         21.2960    7.8540    8.9335 C.3       3 GLC5        0.0000 
     14 CA         19.9360    9.1120    7.8310 C.3       9 GLL5        0.0000 
     15 CA         22.6560    6.5960   10.0360 C.3       6 GLP5        0.0000 
     16 CA         19.9270    9.4805    9.6655 C.3       3 GLC5        0.0000 
     17 CA         25.5325    4.1705   10.1495 C.3       3 GLC5        0.0000 
     18 CA         25.3250    2.9490    8.3330 C.3       9 GLL5        0.0000 
     19 CA         25.7400    5.3920   11.9660 C.3       6 GLP5        0.0000 
     20 CA         22.3250    0.3200   10.3410 C.3       3 GLC5        0.0000 
     21 CA         23.9010    0.3630    9.0590 C.3       9 GLL5        0.0000 
     22 CA         20.7490    0.2770   11.6230 C.3       6 GLP5        0.0000 
     23 CA         22.8035   -1.3060    8.6000 C.3       3 GLC5        0.0000 
     24 CA         21.7060   -2.9750    8.1410 C.3       6 GLP5        0.0000 
     25 CA         27.2225    0.9275   10.9255 C.3       3 GLC5        0.0000 
     26 CA         26.3400    0.4670    9.5700 C.3       9 GLL5        0.0000 
     27 CA         28.1050    1.3880   12.2810 C.3       6 GLP5        0.0000 
     28 O          24.0345   -0.8185    7.0500 O.2       1 ALC1        0.0000 
     29 O          25.5440   -0.7500    7.6370 O.2       7 ALL1        0.0000 
     30 O          22.5250   -0.8870    6.4630 O.2       4 ALP1        0.0000 
     31 CA         26.7240    8.2960    9.1785 C.3       3 GLC5        0.0000 
     32 CA         25.5500    8.2800    7.5920 C.3       9 GLL5        0.0000 
     33 CA         27.8980    8.3120   10.7650 C.3       6 GLP5        0.0000 
     34 CA         24.7500   10.6025    6.4415 C.3       3 GLC5        0.0000 
     35 CA         24.3720    9.0220    7.6370 C.3       9 GLL5        0.0000 
     36 CA         25.1280   12.1830    5.2460 C.3       6 GLP5        0.0000 
     37 N          24.9130   12.2395   10.6035 N.am      2 SEC2        0.0000 
     38 N          23.8690   12.2670    9.5720 N.am      8 SEL2        0.0000 
     39 N          25.9570   12.2120   11.6350 N.am      5 SEP2        0.0000 
     40 CA         21.0395   14.1015    7.2985 C.3       3 GLC5        0.0000 
     41 CA         20.4870   13.5880    9.2990 C.3       9 GLL5        0.0000 
     42 CA         21.5920   14.6150    5.2980 C.3       6 GLP5        0.0000 
     43 CA         21.4465   14.9020   13.3495 C.3       3 GLC5        0.0000 
     44 CA         21.4630   15.2630   11.2980 C.3       9 GLL5        0.0000 
     45 CA         21.4300   14.5410   15.4010 C.3       6 GLP5        0.0000 
     46 CA         22.1520   17.0215   11.2365 C.3       3 GLC5        0.0000 
     47 CA         22.8410   18.7800   11.1750 C.3       6 GLP5        0.0000 
     48 CA         23.0645   13.2065   12.2310 C.3       3 GLC5        0.0000 
     49 CA         22.2730   14.2700   10.7710 C.3       9 GLL5        0.0000 
     50 CA         23.8560   12.1430   13.6910 C.3       6 GLP5        0.0000 
     51 CA         16.9468   11.6110    5.2952 C.3       3 GLC5        0.0000 
     52 CA         17.9770   10.0200    6.4760 C.3       9 GLL5        0.0000 
     53 CA         15.4020   12.9540    4.6360 C.3       6 GLP5        0.0000 
     54 CA         20.1193   12.4295    4.9882 C.3       3 GLC5        0.0000 
     55 CA         20.5160   14.2770    4.2710 C.3       6 GLP5        0.0000 
     56 CA         22.2250   10.4282    4.9930 C.3       3 GLC5        0.0000 
     57 CA         20.4390   10.6480    5.9780 C.3       9 GLL5        0.0000 
     58 CA         23.7850   10.8500    3.6670 C.3       6 GLP5        0.0000 
     59 CA         18.5010    7.7395    9.0222 C.3       3 GLC5        0.0000 
     60 CA         17.7780    6.4940   10.4690 C.3       6 GLP5        0.0000 
     61 CA         23.5292    9.4002    5.1418 C.3       3 GLC5        0.0000 
     62 CA         23.2470    8.5550    6.9690 C.3       9 GLL5        0.0000 
     63 CA         22.9648    7.2732    8.3262 C.3       3 GLC5        0.0000 
     64 CA         23.8500    6.7170    8.2987 C.3       3 GLC5        0.0000 
     65 CA         24.4800    6.6020    6.2280 C.3       9 GLL5        0.0000 
     66 CA         25.8735    8.9355    5.6632 C.3       3 GLC5        0.0000 
     67 CA         25.6080    7.0740    6.8950 C.3       9 GLL5        0.0000 
     68 CA         26.1680   10.1940    4.0830 C.3       6 GLP5        0.0000 
     69 CA         23.8085    7.6235    8.8253 C.3       3 GLC5        0.0000 
     70 CA         20.5932   12.7843   11.1040 C.3       3 GLC5        0.0000 
     71 CA         21.7920   13.4450    9.7610 C.3       9 GLL5        0.0000 
     72 CA         20.0470   12.0520   12.6780 C.3       6 GLP5        0.0000 
     73 CA         19.9845   13.5255   11.5048 C.3       3 GLC5        0.0000 
     74 CA         19.6770   14.5830    9.8330 C.3       9 GLL5        0.0000 
     75 CA         19.9525   16.2848   13.1073 C.3       3 GLC5        0.0000 
     76 CA         20.1670   15.4150   10.8300 C.3       9 GLL5        0.0000 
     77 CA         20.1280   16.6750   15.1210 C.3       6 GLP5        0.0000 
     78 CA         20.2315   17.4858   10.4847 C.3       3 GLC5        0.0000 
     79 CA         19.3870   16.3740   11.3570 C.3       9 GLL5        0.0000 
     80 CA         20.6860   19.0770    9.8760 C.3       6 GLP5        0.0000 
     81 CA         18.6157   16.8023    9.7886 C.3       3 GLC5        0.0000 
     82 CA         17.5770   17.9180    8.7330 C.3       6 GLP5        0.0000 
     83 CA         23.0444   15.1321    9.5510 C.3       3 GLC5        0.0000 
     84 CA         24.3410   15.7040    8.3200 C.3       6 GLP5        0.0000 
     85 CA         20.9575   13.4093   11.8562 C.3       3 GLC5        0.0000 
@<TRIPOS>BOND
@<TRIPOS>SUBSTRUCTURE
     1 ALC1       28 GROUP        1 X    ALC  0     ROOT ALC X 1
     2 SEC2       37 GROUP        1 X    SEC  0     **** SEC X 2
     3 GLC5        1 GROUP        1 X    GLC  0     **** GLC X 6
     4 ALP1       30 GROUP        1 Y    ALP  0     ROOT ALP Y 8
     5 SEP2       39 GROUP        1 Y    SEP  0     **** SEP Y 9
     6 GLP5        3 GROUP        1 Y    GLP  0     **** GLP Y 13
     7 ALL1       29 GROUP        1 Z    ALL  0     ROOT ALL Z 15
     8 SEL2       38 GROUP        1 Z    SEL  0     **** SEL Z 16
     9 GLL5        2 GROUP        1 Z    GLL  0     **** GLL Z 20
@<TRIPOS>SET

