#    Name: 4fod_0UV_1_ligand
#    Modification time : Mon Mar 24 20:25:44 2014

@<TRIPOS>MOLECULE
4fod_0UV_1_ligand
   87    91     1     0     0
SMALL
NO_CHARGES


@<TRIPOS>ATOM
      1 C24        14.6190   11.9760    9.0930 C.3       1 0UV1501     0.0000 
      2 C23        16.1270   11.8150    9.3280 C.3       1 0UV1501     0.0000 
      3 C25        16.4060   11.3540   10.7510 C.3       1 0UV1501     0.0000 
      4 N5         16.6650   10.8250    8.3620 N.am      1 0UV1501     0.0000 
      5 C22        17.5280   11.1660    7.4000 C.2       1 0UV1501     0.0000 
      6 O2         17.9350   12.3100    7.2210 O.2       1 0UV1501     0.0000 
      7 C19        17.9770   10.0200    6.4760 C.3       1 0UV1501     0.0000 
      8 C20        19.0060   10.5160    5.4330 C.3       1 0UV1501     0.0000 
      9 C21        20.4390   10.6480    5.9780 C.3       1 0UV1501     0.0000 
     10 C18        18.5120    8.8580    7.3200 C.3       1 0UV1501     0.0000 
     11 C17        19.9360    9.1120    7.8310 C.3       1 0UV1501     0.0000 
     12 C16        20.8910    9.3650    6.6600 C.3       1 0UV1501     0.0000 
     13 N1         22.2830    9.4600    7.1760 N.pl3     1 0UV1501     0.0000 
     14 C4         23.2470    8.5550    6.9690 C.ar      1 0UV1501     0.0000 
     15 C3         23.3000    7.3460    6.2640 C.ar      1 0UV1501     0.0000 
     16 C2         24.4800    6.6020    6.2280 C.ar      1 0UV1501     0.0000 
     17 C15        24.5480    5.2730    5.4500 C.3       1 0UV1501     0.0000 
     18 N4         24.4330    4.1140    6.3520 N.4       1 0UV1501     0.0000 
     19 C30        25.4840    4.1440    7.3870 C.3       1 0UV1501     0.0000 
     20 C29        25.3250    2.9490    8.3330 C.3       1 0UV1501     0.0000 
     21 C26        24.5460    2.8760    5.5510 C.3       1 0UV1501     0.0000 
     22 C27        24.4130    1.6290    6.4330 C.3       1 0UV1501     0.0000 
     23 C28        25.4480    1.6410    7.5540 C.3       1 0UV1501     0.0000 
     24 C31        25.3060    0.4140    8.4560 C.3       1 0UV1501     0.0000 
     25 C32        23.9010    0.3630    9.0590 C.3       1 0UV1501     0.0000 
     26 C33        26.3400    0.4670    9.5700 C.3       1 0UV1501     0.0000 
     27 O3         25.5440   -0.7500    7.6370 O.3       1 0UV1501     0.0000 
     28 C1         25.6080    7.0740    6.8950 C.ar      1 0UV1501     0.0000 
     29 C6         25.5500    8.2800    7.5920 C.ar      1 0UV1501     0.0000 
     30 C5         24.3720    9.0220    7.6370 C.ar      1 0UV1501     0.0000 
     31 N2         24.0540   10.1890    8.2260 N.pl3     1 0UV1501     0.0000 
     32 C7         22.7810   10.4460    7.9250 C.2       1 0UV1501     0.0000 
     33 N3         22.1000   11.5010    8.3620 N.2       1 0UV1501     0.0000 
     34 C8         22.6930   12.3480    9.2130 C.2       1 0UV1501     0.0000 
     35 O1         23.8690   12.2670    9.5720 O.2       1 0UV1501     0.0000 
     36 C9         21.7920   13.4450    9.7610 C.ar      1 0UV1501     0.0000 
     37 C10        20.4870   13.5880    9.2990 C.ar      1 0UV1501     0.0000 
     38 C11        19.6770   14.5830    9.8330 C.ar      1 0UV1501     0.0000 
     39 C12        20.1670   15.4150   10.8300 C.ar      1 0UV1501     0.0000 
     40 F1         19.3870   16.3740   11.3570 F         1 0UV1501     0.0000 
     41 C13        21.4630   15.2630   11.2980 C.ar      1 0UV1501     0.0000 
     42 C14        22.2730   14.2700   10.7710 C.ar      1 0UV1501     0.0000 
     43 H          16.5987   12.7697    9.1700 H         1 0UV1501     0.0000 
     44 H          16.3220    9.8524    8.4894 H         1 0UV1501     0.0000 
     45 H          17.0933    9.6679    5.9376 H         1 0UV1501     0.0000 
     46 H          18.6771   11.4939    5.0523 H         1 0UV1501     0.0000 
     47 H          19.0098    9.8177    4.5834 H         1 0UV1501     0.0000 
     48 H          20.4699   11.4710    6.6923 H         1 0UV1501     0.0000 
     49 H          21.1109   10.8773    5.1507 H         1 0UV1501     0.0000 
     50 H          18.5073    7.9452    6.7160 H         1 0UV1501     0.0000 
     51 H          17.8482    8.7024    8.1763 H         1 0UV1501     0.0000 
     52 H          20.2754    8.2442    8.3897 H         1 0UV1501     0.0000 
     53 H          19.9317    9.9800    8.4845 H         1 0UV1501     0.0000 
     54 H          20.7946    8.5494    5.9729 H         1 0UV1501     0.0000 
     55 H          22.4638    7.0067    5.7711 H         1 0UV1501     0.0000 
     56 H          25.4992    5.2477    4.9054 H         1 0UV1501     0.0000 
     57 H          23.7380    5.2713    4.7112 H         1 0UV1501     0.0000 
     58 H          23.4579    4.1310    6.8288 H         1 0UV1501     0.0000 
     59 H          25.4186    5.0602    7.9760 H         1 0UV1501     0.0000 
     60 H          26.4744    4.0932    6.9319 H         1 0UV1501     0.0000 
     61 H          24.3497    2.9961    8.8072 H         1 0UV1501     0.0000 
     62 H          26.0984    2.9901    9.0935 H         1 0UV1501     0.0000 
     63 H          25.5156    2.8358    5.0424 H         1 0UV1501     0.0000 
     64 H          23.7623    2.8416    4.7862 H         1 0UV1501     0.0000 
     65 H          24.5559    0.7414    5.8187 H         1 0UV1501     0.0000 
     66 H          23.4135    1.6027    6.8642 H         1 0UV1501     0.0000 
     67 H          26.4376    1.6176    7.0921 H         1 0UV1501     0.0000 
     68 H          26.4815    6.5348    6.8737 H         1 0UV1501     0.0000 
     69 H          26.3911    8.6271    8.0809 H         1 0UV1501     0.0000 
     70 H          24.6402   10.7306    8.7621 H         1 0UV1501     0.0000 
     71 H          20.1269   12.9638    8.5704 H         1 0UV1501     0.0000 
     72 H          18.7150   14.7022    9.4890 H         1 0UV1501     0.0000 
     73 H          21.8218   15.8853   12.0338 H         1 0UV1501     0.0000 
     74 H          23.2303   14.1418   11.1258 H         1 0UV1501     0.0000 
     75 H          14.4187   12.2819    8.1622 H         1 0UV1501     0.0000 
     76 H          14.1277   11.1160    9.2309 H         1 0UV1501     0.0000 
     77 H          14.2157   12.6470    9.7152 H         1 0UV1501     0.0000 
     78 H          17.3851   11.2402   10.9193 H         1 0UV1501     0.0000 
     79 H          16.0666   12.0084   11.4267 H         1 0UV1501     0.0000 
     80 H          15.9705   10.4758   10.9490 H         1 0UV1501     0.0000 
     81 H          23.7822   -0.4294    9.6573 H         1 0UV1501     0.0000 
     82 H          23.7020    1.1760    9.6062 H         1 0UV1501     0.0000 
     83 H          23.1955    0.3053    8.3526 H         1 0UV1501     0.0000 
     84 H          27.2731    0.4770    9.2105 H         1 0UV1501     0.0000 
     85 H          26.2350    1.2850   10.1356 H         1 0UV1501     0.0000 
     86 H          26.2694   -0.3222   10.1801 H         1 0UV1501     0.0000 
     87 H          24.6731   -0.9259    7.1782 H         1 0UV1501     0.0000 
@<TRIPOS>BOND
     1    2    1 1    
     2   75    1 1    
     3   76    1 1    
     4   77    1 1    
     5    3    2 1    
     6    4    2 1    
     7   43    2 1    
     8   78    3 1    
     9   79    3 1    
    10   80    3 1    
    11    5    4 am   
    12   44    4 1    
    13    6    5 2    
    14    7    5 1    
    15    8    7 1    
    16   10    7 1    
    17   45    7 1    
    18    9    8 1    
    19   46    8 1    
    20   47    8 1    
    21   12    9 1    
    22   48    9 1    
    23   49    9 1    
    24   11   10 1    
    25   50   10 1    
    26   51   10 1    
    27   12   11 1    
    28   52   11 1    
    29   53   11 1    
    30   13   12 1    
    31   54   12 1    
    32   14   13 1    
    33   32   13 1    
    34   15   14 ar   
    35   30   14 ar   
    36   16   15 ar   
    37   55   15 1    
    38   17   16 1    
    39   28   16 ar   
    40   18   17 1    
    41   56   17 1    
    42   57   17 1    
    43   19   18 1    
    44   21   18 1    
    45   58   18 1    
    46   20   19 1    
    47   59   19 1    
    48   60   19 1    
    49   23   20 1    
    50   61   20 1    
    51   62   20 1    
    52   22   21 1    
    53   63   21 1    
    54   64   21 1    
    55   23   22 1    
    56   65   22 1    
    57   66   22 1    
    58   24   23 1    
    59   67   23 1    
    60   25   24 1    
    61   26   24 1    
    62   27   24 1    
    63   81   25 1    
    64   82   25 1    
    65   83   25 1    
    66   84   26 1    
    67   85   26 1    
    68   86   26 1    
    69   87   27 1    
    70   29   28 ar   
    71   68   28 1    
    72   30   29 ar   
    73   69   29 1    
    74   31   30 1    
    75   32   31 1    
    76   70   31 1    
    77   33   32 2    
    78   34   33 1    
    79   35   34 2    
    80   36   34 1    
    81   37   36 ar   
    82   42   36 ar   
    83   38   37 ar   
    84   71   37 1    
    85   39   38 ar   
    86   72   38 1    
    87   40   39 1    
    88   41   39 ar   
    89   42   41 ar   
    90   73   41 1    
    91   74   42 1    
@<TRIPOS>SUBSTRUCTURE
     1 0UV1501     1 GROUP   
@<TRIPOS>SET

