#    Name: 2d1c_NAP_1_INTS_M
#    Modification time : Tue Mar 25 01:27:46 2014

@<TRIPOS>MOLECULE
2d1c_NAP_1_INTS_M
  106     0    12     0     0
SMALL
NO_CHARGES


@<TRIPOS>ATOM
      1 N          23.0440   61.5475   58.2480 N.am      2 SEC2        0.0000 
      2 N          22.6330   61.7720   56.9470 N.am     10 SEL2        0.0000 
      3 N          23.4550   61.3230   59.5490 N.am      6 SEP2        0.0000 
      4 N          22.1190   57.9570   57.7000 N.am      2 SEC2        0.0000 
      5 N          21.9710   59.4130   57.3660 N.am     10 SEL2        0.0000 
      6 N          22.2670   56.5010   58.0340 N.am      6 SEP2        0.0000 
      7 CA         20.4555   62.5995   53.8375 C.3       4 GLC5        0.0000 
      8 CA         21.8430   61.0460   53.8950 C.3      12 GLL5        0.0000 
      9 CA         19.0680   64.1530   53.7800 C.3       8 GLP5        0.0000 
     10 N          23.3490   61.8810   49.9710 N.am      2 SEC2        0.0000 
     11 N          24.4110   60.6130   50.4750 N.am     10 SEL2        0.0000 
     12 N          22.2870   63.1490   49.4670 N.am      6 SEP2        0.0000 
     13 CA         25.7805   62.7920   54.0010 C.3       4 GLC5        0.0000 
     14 CA         25.2020   61.0820   52.7710 C.3      12 GLL5        0.0000 
     15 CA         26.3590   64.5020   55.2310 C.3       8 GLP5        0.0000 
     16 CA         27.3390   60.8030   57.1035 C.3       4 GLC5        0.0000 
     17 CA         27.6720   60.0280   55.2460 C.3      12 GLL5        0.0000 
     18 CA         27.0060   61.5780   58.9610 C.3       8 GLP5        0.0000 
     19 CA         28.6730   60.6065   57.2155 C.3       4 GLC5        0.0000 
     20 CA         28.9880   59.5430   55.4900 C.3      12 GLL5        0.0000 
     21 CA         28.3580   61.6700   58.9410 C.3       8 GLP5        0.0000 
     22 CA         31.0345   59.3750   54.7765 C.3       4 GLC5        0.0000 
     23 CA         33.0810   59.2070   54.0630 C.3       8 GLP5        0.0000 
     24 O          30.8105   59.1655   56.7820 O.2       1 ALC1        0.0000 
     25 O          29.4060   59.3270   56.7060 O.2       9 ALL1        0.0000 
     26 O          32.2150   59.0040   56.8580 O.2       5 ALP1        0.0000 
     27 N          30.9880   58.1600   54.5195 N.am      2 SEC2        0.0000 
     28 N          29.8220   59.3030   54.3990 N.am     10 SEL2        0.0000 
     29 N          32.1540   57.0170   54.6400 N.am      6 SEP2        0.0000 
     30 CA         30.0130   61.1995   54.1160 C.3       4 GLC5        0.0000 
     31 CA         29.3740   59.5340   53.1250 C.3      12 GLL5        0.0000 
     32 CA         30.6520   62.8650   55.1070 C.3       8 GLP5        0.0000 
     33 CA         28.8210   57.8720   53.9970 C.3       4 GLC5        0.0000 
     34 CA         28.2680   56.2100   54.8690 C.3       8 GLP5        0.0000 
     35 CA         31.2275   59.3705   53.5940 C.3       4 GLC5        0.0000 
     36 CA         30.1535   59.9570   51.5110 C.3       4 GLC5        0.0000 
     37 CA         30.9330   60.3800   49.8970 C.3       8 GLP5        0.0000 
     38 CA         19.4040   56.5605   57.5435 C.3       4 GLC5        0.0000 
     39 CA         18.7560   58.3230   58.0400 C.3      12 GLL5        0.0000 
     40 CA         20.0520   54.7980   57.0470 C.3       8 GLP5        0.0000 
     41 CA         20.0655   56.9430   60.4240 C.3       4 GLC5        0.0000 
     42 CA         18.5370   58.1440   59.6970 C.3      12 GLL5        0.0000 
     43 CA         21.5940   55.7420   61.1510 C.3       8 GLP5        0.0000 
     44 N          20.8830   58.4255   60.3450 N.am      2 SEC2        0.0000 
     45 N          19.4010   58.9570   60.3380 N.am     10 SEL2        0.0000 
     46 N          22.3650   57.8940   60.3520 N.am      6 SEP2        0.0000 
     47 CA         17.8305   57.4330   62.2660 C.3       4 GLC5        0.0000 
     48 CA         17.1950   58.5460   60.4640 C.3      12 GLL5        0.0000 
     49 CA         18.4660   56.3200   64.0680 C.3       8 GLP5        0.0000 
     50 N          16.4765   57.7090   62.7685 N.am      2 SEC2        0.0000 
     51 N          16.5570   57.8430   61.4570 N.am     10 SEL2        0.0000 
     52 N          16.3960   57.5750   64.0800 N.am      6 SEP2        0.0000 
     53 O          15.3420   57.8860   61.9185 O.2       1 ALC1        0.0000 
     54 O          16.5570   57.8430   61.4570 O.2       9 ALL1        0.0000 
     55 O          14.1270   57.9290   62.3800 O.2       5 ALP1        0.0000 
     56 N          15.7285   61.7625   61.6525 N.am      2 SEC2        0.0000 
     57 N          16.6990   60.6770   61.9270 N.am     10 SEL2        0.0000 
     58 N          14.7580   62.8480   61.3780 N.am      6 SEP2        0.0000 
     59 CA         18.7780   58.0400   62.6855 C.3       4 GLC5        0.0000 
     60 CA         19.0900   59.7600   61.3030 C.3      12 GLL5        0.0000 
     61 CA         20.8925   60.0185   60.7545 C.3       4 GLC5        0.0000 
     62 CA         22.6950   60.2770   60.2060 C.3       8 GLP5        0.0000 
     63 N          22.4725   59.7655   65.2410 N.am      2 SEC2        0.0000 
     64 N          22.5010   61.1740   64.9250 N.am     10 SEL2        0.0000 
     65 N          22.4440   58.3570   65.5570 N.am      6 SEP2        0.0000 
     66 O          23.7290   63.4400   66.0000 O.2       1 ALC1        0.0000 
     67 O          22.6780   63.3740   64.8310 O.2       9 ALL1        0.0000 
     68 O          24.7800   63.5060   67.1690 O.2       5 ALP1        0.0000 
     69 CA         23.2890   63.2640   60.7450 C.3       4 GLC5        0.0000 
     70 CA         21.5450   63.3930   62.1160 C.3      12 GLL5        0.0000 
     71 CA         25.0330   63.1350   59.3740 C.3       8 GLP5        0.0000 
     72 NZ         22.3215   57.7970   49.0325 N.4       3 LYC4        0.0000 
     73 NZ         22.9140   59.0220   49.3900 N.4      11 LYL4        0.0000 
     74 NZ         21.7290   56.5720   48.6750 N.4       7 LYP4        0.0000 
     75 N          22.3215   57.7970   49.0325 N.am      2 SEC2        0.0000 
     76 N          22.9140   59.0220   49.3900 N.am     10 SEL2        0.0000 
     77 N          21.7290   56.5720   48.6750 N.am      6 SEP2        0.0000 
     78 NZ         25.1775   61.8910   48.1175 N.4       3 LYC4        0.0000 
     79 NZ         23.9790   60.8500   48.1540 N.4      11 LYL4        0.0000 
     80 NZ         26.3760   62.9320   48.0810 N.4       7 LYP4        0.0000 
     81 N          23.1330   61.9995   48.8105 N.am      2 SEC2        0.0000 
     82 N          23.9790   60.8500   48.1540 N.am     10 SEL2        0.0000 
     83 N          25.1775   61.8910   48.1175 N.am      2 SEC2        0.0000 
     84 N          26.3760   62.9320   48.0810 N.am      6 SEP2        0.0000 
     85 N          25.4580   57.6090   48.8820 N.am      2 SEC2        0.0000 
     86 N          25.2980   58.9460   48.9690 N.am     10 SEL2        0.0000 
     87 N          25.6180   56.2720   48.7950 N.am      6 SEP2        0.0000 
     88 CA         23.1035   62.7875   54.2728 C.3       4 GLC5        0.0000 
     89 CA         22.8610   61.0220   52.8280 C.3      12 GLL5        0.0000 
     90 CA         23.8550   64.5410   55.1840 C.3       8 GLP5        0.0000 
     91 CA         24.6995   58.0058   51.7020 C.3       4 GLC5        0.0000 
     92 CA         23.3730   59.7290   52.5720 C.3      12 GLL5        0.0000 
     93 CA         25.3700   56.1360   51.1730 C.3       8 GLP5        0.0000 
     94 CA         27.5335   58.3367   56.8050 C.3       4 GLC5        0.0000 
     95 CA         26.7370   56.8880   58.2420 C.3       8 GLP5        0.0000 
     96 CA         29.2385   61.4369   54.8770 C.3       4 GLC5        0.0000 
     97 CA         28.0465   58.1094   54.7580 C.3       4 GLC5        0.0000 
     98 CA         16.3032   60.3323   59.2028 C.3       4 GLC5        0.0000 
     99 CA         17.6380   60.0090   60.8190 C.3      12 GLL5        0.0000 
    100 CA         15.1900   61.3870   57.7640 C.3       8 GLP5        0.0000 
    101 CA         22.7743   60.2300   63.0018 C.3       4 GLC5        0.0000 
    102 CA         20.6460   61.0010   62.8370 C.3      12 GLL5        0.0000 
    103 CA         24.5060   58.8790   63.0440 C.3       8 GLP5        0.0000 
    104 CA         21.8687   60.9290   61.5828 C.3       4 GLC5        0.0000 
    105 CA         21.5980   61.4606   60.6457 C.3       4 GLC5        0.0000 
    106 CA         19.8960   62.0200   60.6600 C.3      12 GLL5        0.0000 
@<TRIPOS>BOND
@<TRIPOS>SUBSTRUCTURE
     1 ALC1       24 GROUP        1 X    ALC  0     ROOT ALC X 1
     2 SEC2        1 GROUP        1 X    SEC  0     **** SEC X 2
     3 LYC4       72 GROUP        1 X    LYC  0     **** LYC X 4
     4 GLC5        7 GROUP        1 X    GLC  0     **** GLC X 6
     5 ALP1       26 GROUP        1 Y    ALP  0     ROOT ALP Y 8
     6 SEP2        3 GROUP        1 Y    SEP  0     **** SEP Y 9
     7 LYP4       74 GROUP        1 Y    LYP  0     **** LYP Y 11
     8 GLP5        9 GROUP        1 Y    GLP  0     **** GLP Y 13
     9 ALL1       25 GROUP        1 Z    ALL  0     ROOT ALL Z 15
    10 SEL2        2 GROUP        1 Z    SEL  0     **** SEL Z 16
    11 LYL4       73 GROUP        1 Z    LYL  0     **** LYL Z 18
    12 GLL5        8 GROUP        1 Z    GLL  0     **** GLL Z 20
@<TRIPOS>SET

