#    Name: 2d1c_NAP_1_ligand
#    Modification time : Tue Mar 25 01:27:46 2014

@<TRIPOS>MOLECULE
2d1c_NAP_1_ligand
   73    77     1     0     0
SMALL
NO_CHARGES


@<TRIPOS>ATOM
      1 PA         21.7650   60.5330   56.5820 P.3       1 NAP1002     0.0000 
      2 O1A        22.6330   61.7720   56.9470 O.co2     1 NAP1002     0.0000 
      3 O2A        21.9710   59.4130   57.3660 O.co2     1 NAP1002     0.0000 
      4 O5B        22.0110   60.1020   55.1050 O.3       1 NAP1002     0.0000 
      5 C5B        21.8430   61.0460   53.8950 C.3       1 NAP1002     0.0000 
      6 C4B        22.8610   61.0220   52.8280 C.3       1 NAP1002     0.0000 
      7 O4B        24.0280   61.7130   53.3620 O.3       1 NAP1002     0.0000 
      8 C3B        23.3730   59.7290   52.5720 C.3       1 NAP1002     0.0000 
      9 O3B        22.5780   58.7030   51.9850 O.3       1 NAP1002     0.0000 
     10 C2B        24.6850   60.0220   51.8900 C.3       1 NAP1002     0.0000 
     11 O2B        24.4110   60.6130   50.4750 O.3       1 NAP1002     0.0000 
     12 C1B        25.2020   61.0820   52.7710 C.3       1 NAP1002     0.0000 
     13 N9A        26.0250   60.7030   53.9460 N.pl3     1 NAP1002     0.0000 
     14 C8A        25.7090   60.7360   55.3050 C.2       1 NAP1002     0.0000 
     15 N7A        26.6520   60.3470   56.0940 N.2       1 NAP1002     0.0000 
     16 C5A        27.6720   60.0280   55.2460 C.ar      1 NAP1002     0.0000 
     17 C6A        28.9880   59.5430   55.4900 C.ar      1 NAP1002     0.0000 
     18 N6A        29.4060   59.3270   56.7060 N.pl3     1 NAP1002     0.0000 
     19 N1A        29.8220   59.3030   54.3990 N.ar      1 NAP1002     0.0000 
     20 C2A        29.3740   59.5340   53.1250 C.ar      1 NAP1002     0.0000 
     21 N3A        28.1440   59.9970   52.8140 N.ar      1 NAP1002     0.0000 
     22 C4A        27.3200   60.2320   53.9260 C.ar      1 NAP1002     0.0000 
     23 O3         20.3260   60.8150   56.3660 O.3       1 NAP1002     0.0000 
     24 PN         18.8550   60.2120   56.3140 P.3       1 NAP1002     0.0000 
     25 O1N        18.8820   59.0830   55.3740 O.co2     1 NAP1002     0.0000 
     26 O2N        17.8890   61.2580   55.9730 O.co2     1 NAP1002     0.0000 
     27 O5D        18.4680   59.5240   57.8830 O.3       1 NAP1002     0.0000 
     28 C5D        18.7560   58.3230   58.0400 C.3       1 NAP1002     0.0000 
     29 C4D        18.5370   58.1440   59.6970 C.3       1 NAP1002     0.0000 
     30 O4D        19.4010   58.9570   60.3380 O.3       1 NAP1002     0.0000 
     31 C3D        17.1950   58.5460   60.4640 C.3       1 NAP1002     0.0000 
     32 O3D        16.5570   57.8430   61.4570 O.3       1 NAP1002     0.0000 
     33 C2D        17.6380   60.0090   60.8190 C.3       1 NAP1002     0.0000 
     34 O2D        16.6990   60.6770   61.9270 O.3       1 NAP1002     0.0000 
     35 C1D        19.0900   59.7600   61.3030 C.3       1 NAP1002     0.0000 
     36 N1N        19.9040   60.9710   61.6330 N.pl3     1 NAP1002     0.0000 
     37 C2N        20.6460   61.0010   62.8370 C.ar      1 NAP1002     0.0000 
     38 C3N        21.4390   62.1610   63.0820 C.ar      1 NAP1002     0.0000 
     39 C7N        22.2360   62.2230   64.3300 C.2       1 NAP1002     0.0000 
     40 O7N        22.5010   61.1740   64.9250 O.2       1 NAP1002     0.0000 
     41 N7N        22.6780   63.3740   64.8310 N.am      1 NAP1002     0.0000 
     42 C4N        21.5450   63.3930   62.1160 C.ar      1 NAP1002     0.0000 
     43 C5N        20.6670   63.1440   60.9060 C.ar      1 NAP1002     0.0000 
     44 C6N        19.8960   62.0200   60.6600 C.ar      1 NAP1002     0.0000 
     45 P2B        24.1190   59.7990   49.1460 P.3       1 NAP1002     0.0000 
     46 O1X        22.9140   59.0220   49.3900 O.co2     1 NAP1002     0.0000 
     47 O2X        23.9790   60.8500   48.1540 O.co2     1 NAP1002     0.0000 
     48 O3X        25.2980   58.9460   48.9690 O.co2     1 NAP1002     0.0000 
     49 H          21.7450   62.0936   54.3038 H         1 NAP1002     0.0000 
     50 H          20.8246   60.8403   53.4538 H         1 NAP1002     0.0000 
     51 H          22.5312   61.5100   51.9614 H         1 NAP1002     0.0000 
     52 H          23.7410   59.3437   53.6155 H         1 NAP1002     0.0000 
     53 H          25.2833   59.2044   51.8625 H         1 NAP1002     0.0000 
     54 H          25.7154   61.8410   52.1954 H         1 NAP1002     0.0000 
     55 H          24.7919   61.0509   55.5957 H         1 NAP1002     0.0000 
     56 H          30.3803   59.4815   56.8704 H         1 NAP1002     0.0000 
     57 H          28.7139   59.0267   57.3624 H         1 NAP1002     0.0000 
     58 H          30.0543   59.3302   52.3231 H         1 NAP1002     0.0000 
     59 H          19.7847   58.0039   57.9223 H         1 NAP1002     0.0000 
     60 H          18.0903   57.5620   57.6506 H         1 NAP1002     0.0000 
     61 H          18.7469   57.1050   59.9373 H         1 NAP1002     0.0000 
     62 H          16.4960   58.7809   59.5609 H         1 NAP1002     0.0000 
     63 H          17.6553   60.5733   59.9404 H         1 NAP1002     0.0000 
     64 H          18.9130   59.1638   62.2499 H         1 NAP1002     0.0000 
     65 H          20.6196   60.2470   63.4895 H         1 NAP1002     0.0000 
     66 H          23.2302   63.3089   65.6622 H         1 NAP1002     0.0000 
     67 H          22.4181   64.2002   64.3311 H         1 NAP1002     0.0000 
     68 H          22.0502   64.1123   62.2793 H         1 NAP1002     0.0000 
     69 H          20.6770   63.9389   60.2055 H         1 NAP1002     0.0000 
     70 H          19.3373   61.9234   59.8250 H         1 NAP1002     0.0000 
     71 H          22.6705   58.8367   50.9983 H         1 NAP1002     0.0000 
     72 H          15.6228   58.1996   61.4671 H         1 NAP1002     0.0000 
     73 H          16.0645   59.9534   62.1988 H         1 NAP1002     0.0000 
@<TRIPOS>BOND
     1    2    1 ar   
     2    3    1 ar   
     3    4    1 1    
     4   23    1 1    
     5    5    4 1    
     6    6    5 1    
     7   49    5 1    
     8   50    5 1    
     9    7    6 1    
    10    8    6 1    
    11   51    6 1    
    12   12    7 1    
    13    9    8 1    
    14   10    8 1    
    15   52    8 1    
    16   71    9 1    
    17   11   10 1    
    18   12   10 1    
    19   53   10 1    
    20   45   11 1    
    21   13   12 1    
    22   54   12 1    
    23   14   13 1    
    24   22   13 1    
    25   15   14 2    
    26   55   14 1    
    27   16   15 1    
    28   17   16 ar   
    29   22   16 ar   
    30   18   17 1    
    31   19   17 ar   
    32   56   18 1    
    33   57   18 1    
    34   20   19 ar   
    35   21   20 ar   
    36   58   20 1    
    37   22   21 ar   
    38   24   23 1    
    39   25   24 ar   
    40   26   24 ar   
    41   27   24 1    
    42   28   27 1    
    43   29   28 1    
    44   59   28 1    
    45   60   28 1    
    46   30   29 1    
    47   31   29 1    
    48   61   29 1    
    49   35   30 1    
    50   32   31 1    
    51   33   31 1    
    52   62   31 1    
    53   72   32 1    
    54   34   33 1    
    55   35   33 1    
    56   63   33 1    
    57   73   34 1    
    58   36   35 1    
    59   64   35 1    
    60   37   36 ar   
    61   44   36 ar   
    62   38   37 ar   
    63   65   37 1    
    64   39   38 1    
    65   42   38 ar   
    66   40   39 2    
    67   41   39 am   
    68   66   41 1    
    69   67   41 1    
    70   43   42 ar   
    71   68   42 1    
    72   44   43 ar   
    73   69   43 1    
    74   70   44 1    
    75   46   45 ar   
    76   47   45 ar   
    77   48   45 ar   
@<TRIPOS>SUBSTRUCTURE
     1 NAP1002     1 GROUP   
@<TRIPOS>SET

