#    Name: 2nru_T12_4_INTS_M
#    Modification time : Tue Mar 25 21:32:36 2014

@<TRIPOS>MOLECULE
2nru_T12_4_INTS_M
   63     0     6     0     0
SMALL
NO_CHARGES


@<TRIPOS>ATOM
      1 CA         22.7025    9.1775   36.8750 C.3       2 GLC5        0.0000 
      2 CA         24.7480    9.1170   36.5770 C.3       6 GLL5        0.0000 
      3 CA         20.6570    9.2380   37.1730 C.3       4 GLP5        0.0000 
      4 CA         22.9160    8.0580   35.4450 C.3       2 GLC5        0.0000 
      5 CA         24.7580    7.8260   36.0810 C.3       6 GLL5        0.0000 
      6 CA         21.0740    8.2900   34.8090 C.3       4 GLP5        0.0000 
      7 CA         28.6025   10.0320   35.2505 C.3       2 GLC5        0.0000 
      8 CA         26.5760    9.6900   35.0620 C.3       6 GLL5        0.0000 
      9 CA         30.6290   10.3740   35.4390 C.3       4 GLP5        0.0000 
     10 N          26.9145    5.4560   32.9195 N.am      1 SEC2        0.0000 
     11 N          27.5490    6.7420   33.1720 N.am      5 SEL2        0.0000 
     12 N          26.2800    4.1700   32.6670 N.am      3 SEP2        0.0000 
     13 CA         28.9280    4.8210   28.5405 C.3       2 GLC5        0.0000 
     14 CA         30.0820    6.7190   28.7670 C.3       6 GLL5        0.0000 
     15 CA         27.7740    2.9230   28.3140 C.3       4 GLP5        0.0000 
     16 CA         28.4085    5.1925   24.4635 C.3       2 GLC5        0.0000 
     17 CA         30.2070    5.1250   23.2480 C.3       6 GLL5        0.0000 
     18 CA         26.6100    5.2600   25.6790 C.3       4 GLP5        0.0000 
     19 CA         30.3450    6.0085   21.6000 C.3       2 GLC5        0.0000 
     20 CA         30.4830    6.8920   19.9520 C.3       4 GLP5        0.0000 
     21 CA         33.4885    8.0400   22.3220 C.3       2 GLC5        0.0000 
     22 CA         32.1430    6.7210   23.5050 C.3       6 GLL5        0.0000 
     23 CA         34.8340    9.3590   21.1390 C.3       4 GLP5        0.0000 
     24 CA         31.3130    6.8065   21.7285 C.3       2 GLC5        0.0000 
     25 CA         31.5255   10.0360   31.1525 C.3       2 GLC5        0.0000 
     26 CA         29.8320   10.7750   31.2130 C.3       6 GLL5        0.0000 
     27 CA         33.2190    9.2970   31.0920 C.3       4 GLP5        0.0000 
     28 CA         30.2305   10.5745   33.3260 C.3       2 GLC5        0.0000 
     29 CA         27.6810   10.3335   28.7290 C.3       2 GLC5        0.0000 
     30 CA         28.1980   12.1440   29.8290 C.3       6 GLL5        0.0000 
     31 CA         27.1640    8.5230   27.6290 C.3       4 GLP5        0.0000 
     32 CA         26.9145   12.5910   28.6030 C.3       2 GLC5        0.0000 
     33 CA         25.6310   13.0380   27.3770 C.3       4 GLP5        0.0000 
     34 CA         25.2205    8.0277   37.5275 C.3       2 GLC5        0.0000 
     35 CA         25.6480   10.0380   36.0530 C.3       6 GLL5        0.0000 
     36 CA         25.2430    6.4780   38.7400 C.3       4 GLP5        0.0000 
     37 CA         24.6840    9.6357   34.4965 C.3       2 GLC5        0.0000 
     38 CA         24.1700    9.6940   32.6780 C.3       4 GLP5        0.0000 
     39 CA         27.0598    7.1597   35.8530 C.3       2 GLC5        0.0000 
     40 CA         28.9070    6.6620   36.1320 C.3       4 GLP5        0.0000 
     41 CA         25.2278    7.0677   37.1570 C.3       2 GLC5        0.0000 
     42 CA         25.6670    7.4890   35.0670 C.3       6 GLL5        0.0000 
     43 CA         24.6913    8.6758   34.1260 C.3       2 GLC5        0.0000 
     44 CA         27.7488    7.8572   35.4727 C.3       2 GLC5        0.0000 
     45 CA         26.6050    8.4150   34.5650 C.3       6 GLL5        0.0000 
     46 CA         25.3803    9.3733   33.7458 C.3       2 GLC5        0.0000 
     47 CA         24.8509    6.9031   33.7422 C.3       2 GLC5        0.0000 
     48 CA         23.7930    5.7700   32.4150 C.3       4 GLP5        0.0000 
     49 CA         31.0907    6.9875   30.6273 C.3       2 GLC5        0.0000 
     50 CA         29.7150    7.5670   29.8220 C.3       6 GLL5        0.0000 
     51 CA         32.2830    6.8320   31.9600 C.3       4 GLP5        0.0000 
     52 CA         28.5312    7.8330   28.4618 C.3       2 GLC5        0.0000 
     53 CA         29.1110    8.1905   27.6292 C.3       2 GLC5        0.0000 
     54 CA         30.8430    7.1860   27.6500 C.3       6 GLL5        0.0000 
     55 CA         31.9185    9.1134   30.0203 C.3       2 GLC5        0.0000 
     56 CA         30.1410    8.9070   29.7560 C.3       6 GLL5        0.0000 
     57 CA         28.8465    8.8320   28.4218 C.3       2 GLC5        0.0000 
     58 CA         30.9170    9.3750   28.6730 C.3       6 GLL5        0.0000 
     59 CA         30.8008   12.3388   31.6870 C.3       2 GLC5        0.0000 
     60 CA         32.3920   13.4570   32.1590 C.3       4 GLP5        0.0000 
     61 CA         26.3727   11.4920   30.5790 C.3       2 GLC5        0.0000 
     62 CA         28.5870   11.6660   31.2170 C.3       6 GLL5        0.0000 
     63 CA         24.3530   11.0790   30.6350 C.3       4 GLP5        0.0000 
@<TRIPOS>BOND
@<TRIPOS>SUBSTRUCTURE
     1 SEC2       10 GROUP        1 X    SEC  0     ROOT SEC X 2
     2 GLC5        1 GROUP        1 X    GLC  0     **** GLC X 6
     3 SEP2       12 GROUP        1 Y    SEP  0     ROOT SEP Y 9
     4 GLP5        3 GROUP        1 Y    GLP  0     **** GLP Y 13
     5 SEL2       11 GROUP        1 Z    SEL  0     ROOT SEL Z 16
     6 GLL5        2 GROUP        1 Z    GLL  0     **** GLL Z 20
@<TRIPOS>SET

