#    Name: 2nru_T12_4_ligand
#    Modification time : Tue Mar 25 21:32:36 2014

@<TRIPOS>MOLECULE
2nru_T12_4_ligand
   56    58     1     0     0
SMALL
NO_CHARGES


@<TRIPOS>ATOM
      1 O56        24.8040   11.7930   37.5290 O.2       1 T12603      0.0000 
      2 N54        25.6830   11.3450   36.5380 N.pl3     1 T12603      0.0000 
      3 O55        26.6730   12.1940   36.0340 O.2       1 T12603      0.0000 
      4 C13        25.6480   10.0380   36.0530 C.ar      1 T12603      0.0000 
      5 C12        24.7480    9.1170   36.5770 C.ar      1 T12603      0.0000 
      6 C11        24.7580    7.8260   36.0810 C.ar      1 T12603      0.0000 
      7 C10        25.6670    7.4890   35.0670 C.ar      1 T12603      0.0000 
      8 C14        26.5760    9.6900   35.0620 C.ar      1 T12603      0.0000 
      9 C15        26.6050    8.4150   34.5650 C.ar      1 T12603      0.0000 
     10 C51        27.5470    8.0180   33.4800 C.2       1 T12603      0.0000 
     11 O53        27.5490    6.7420   33.1720 O.2       1 T12603      0.0000 
     12 N50        28.3610    8.8670   32.8270 N.am      1 T12603      0.0000 
     13 C21        29.0090    8.5660   31.6350 C.2       1 T12603      0.0000 
     14 N22        28.9980    7.3940   30.9870 N.2       1 T12603      0.0000 
     15 C3         29.7150    7.5670   29.8220 C.ar      1 T12603      0.0000 
     16 C4         30.0820    6.7190   28.7670 C.ar      1 T12603      0.0000 
     17 C5         30.8430    7.1860   27.6500 C.ar      1 T12603      0.0000 
     18 O23        31.1710    6.4000   26.7130 O.3       1 T12603      0.0000 
     19 C24        30.6070    6.3850   25.3720 C.2       1 T12603      0.0000 
     20 O26        29.4850    7.0550   25.1290 O.2       1 T12603      0.0000 
     21 C25        31.2770    5.6690   24.2180 C.3       1 T12603      0.0000 
     22 C35        30.2070    5.1250   23.2480 C.3       1 T12603      0.0000 
     23 C31        32.1430    6.7210   23.5050 C.3       1 T12603      0.0000 
     24 C27        32.1080    4.4550   24.6900 C.3       1 T12603      0.0000 
     25 C6         31.2730    8.5300   27.6090 C.ar      1 T12603      0.0000 
     26 C2         30.1410    8.9070   29.7560 C.ar      1 T12603      0.0000 
     27 C1         30.9170    9.3750   28.6730 C.ar      1 T12603      0.0000 
     28 N20        29.6750    9.4500   30.8790 N.pl3     1 T12603      0.0000 
     29 C39        29.8320   10.7750   31.2130 C.3       1 T12603      0.0000 
     30 C40        28.5870   11.6660   31.2170 C.3       1 T12603      0.0000 
     31 C43        28.1980   12.1440   29.8290 C.3       1 T12603      0.0000 
     32 O46        29.3060   12.0940   28.9140 O.3       1 T12603      0.0000 
     33 H          24.0956    9.3908   37.3114 H         1 T12603      0.0000 
     34 H          24.1144    7.1193   36.4429 H         1 T12603      0.0000 
     35 H          25.6514    6.5298   34.6720 H         1 T12603      0.0000 
     36 H          27.2320   10.4064   34.7162 H         1 T12603      0.0000 
     37 H          28.5313    9.8362   33.2350 H         1 T12603      0.0000 
     38 H          29.7996    5.7246   28.7865 H         1 T12603      0.0000 
     39 H          31.8223    8.8719   26.8332 H         1 T12603      0.0000 
     40 H          31.2276   10.3594   28.6662 H         1 T12603      0.0000 
     41 H          30.5839   11.2961   30.5360 H         1 T12603      0.0000 
     42 H          30.3055   10.8994   32.2404 H         1 T12603      0.0000 
     43 H          28.7757   12.5355   31.8609 H         1 T12603      0.0000 
     44 H          27.7509   11.1046   31.6553 H         1 T12603      0.0000 
     45 H          27.8041   13.1721   29.9218 H         1 T12603      0.0000 
     46 H          27.3608   11.5155   29.4755 H         1 T12603      0.0000 
     47 H          30.6181    4.6477   22.4713 H         1 T12603      0.0000 
     48 H          29.5925    4.4772   23.6983 H         1 T12603      0.0000 
     49 H          29.6379    5.8574   22.8741 H         1 T12603      0.0000 
     50 H          32.8346    7.1080   24.1149 H         1 T12603      0.0000 
     51 H          32.6276    6.3335   22.7208 H         1 T12603      0.0000 
     52 H          31.5942    7.4837   23.1628 H         1 T12603      0.0000 
     53 H          32.5465    3.9848   23.9241 H         1 T12603      0.0000 
     54 H          32.8339    4.7252   25.3225 H         1 T12603      0.0000 
     55 H          31.5428    3.7796   25.1637 H         1 T12603      0.0000 
     56 H          28.9195   11.7499   28.0583 H         1 T12603      0.0000 
@<TRIPOS>BOND
     1    2    1 2    
     2    3    2 2    
     3    4    2 1    
     4    5    4 ar   
     5    8    4 ar   
     6    6    5 ar   
     7   33    5 1    
     8    7    6 ar   
     9   34    6 1    
    10    9    7 ar   
    11   35    7 1    
    12    9    8 ar   
    13   36    8 1    
    14   10    9 1    
    15   11   10 2    
    16   12   10 am   
    17   13   12 1    
    18   37   12 1    
    19   14   13 2    
    20   28   13 1    
    21   15   14 1    
    22   16   15 ar   
    23   26   15 ar   
    24   17   16 ar   
    25   38   16 1    
    26   18   17 1    
    27   25   17 ar   
    28   19   18 1    
    29   20   19 2    
    30   21   19 1    
    31   22   21 1    
    32   23   21 1    
    33   24   21 1    
    34   47   22 1    
    35   48   22 1    
    36   49   22 1    
    37   50   23 1    
    38   51   23 1    
    39   52   23 1    
    40   53   24 1    
    41   54   24 1    
    42   55   24 1    
    43   27   25 ar   
    44   39   25 1    
    45   27   26 ar   
    46   28   26 1    
    47   40   27 1    
    48   29   28 1    
    49   30   29 1    
    50   41   29 1    
    51   42   29 1    
    52   31   30 1    
    53   43   30 1    
    54   44   30 1    
    55   32   31 1    
    56   45   31 1    
    57   46   31 1    
    58   56   32 1    
@<TRIPOS>SUBSTRUCTURE
     1 T12603      1 GROUP   
@<TRIPOS>SET

