#    Name: 3u33_FAD_7_INTS_M
#    Modification time : Mon Mar 24 21:29:45 2014

@<TRIPOS>MOLECULE
3u33_FAD_7_INTS_M
  121     0    12     0     0
SMALL
NO_CHARGES


@<TRIPOS>ATOM
      1 N         107.7435   56.9780  -73.9705 N.am      2 SEC2        0.0000 
      2 N         107.0940   57.1830  -72.3980 N.am     10 SEL2        0.0000 
      3 N         108.3930   56.7730  -75.5430 N.am      6 SEP2        0.0000 
      4 N         107.1505   58.1560  -73.5795 N.am      2 SEC2        0.0000 
      5 N         107.2070   59.1290  -74.7610 N.am      6 SEP2        0.0000 
      6 NZ        106.3340   55.8065  -69.4025 N.4       3 LYC4        0.0000 
      7 NZ        105.5690   56.5040  -70.3370 N.4      11 LYL4        0.0000 
      8 NZ        107.1270   53.9400  -69.1010 N.4       7 LYP4        0.0000 
      9 N         106.3340   55.8065  -69.4025 N.am      2 SEC2        0.0000 
     10 N         105.5690   56.5040  -70.3370 N.am     10 SEL2        0.0000 
     11 N         107.0990   55.1090  -68.4680 N.am      6 SEP2        0.0000 
     12 N         106.3000   55.2035  -70.3820 N.am      2 SEC2        0.0000 
     13 N         107.0310   53.9030  -70.4270 N.am      6 SEP2        0.0000 
     14 CA        102.3270   58.0320  -71.4385 C.3       4 GLC5        0.0000 
     15 CA        104.1560   59.1370  -70.7970 C.3      12 GLL5        0.0000 
     16 CA        100.4980   56.9270  -72.0800 C.3       8 GLP5        0.0000 
     17 CA        103.7975   62.3100  -69.9040 C.3       4 GLC5        0.0000 
     18 CA        103.8740   60.6250  -70.9620 C.3      12 GLL5        0.0000 
     19 CA        103.7210   63.9950  -68.8460 C.3       8 GLP5        0.0000 
     20 CA        102.1065   60.8970  -69.8515 C.3       4 GLC5        0.0000 
     21 CA        100.3390   61.1690  -68.7410 C.3       8 GLP5        0.0000 
     22 O         104.6450   61.9905  -75.1520 O.2       1 ALC1        0.0000 
     23 O         104.2900   62.7640  -73.8140 O.2       9 ALL1        0.0000 
     24 O         105.0000   61.2170  -76.4900 O.2       5 ALP1        0.0000 
     25 CA        105.2500   64.2545  -72.6390 C.3       4 GLC5        0.0000 
     26 CA        105.3420   62.2850  -71.6460 C.3      12 GLL5        0.0000 
     27 CA        105.1580   66.2240  -73.6320 C.3       8 GLP5        0.0000 
     28 CA        106.2355   62.3005  -69.8315 C.3       4 GLC5        0.0000 
     29 CA        107.1290   62.3160  -68.0170 C.3       8 GLP5        0.0000 
     30 CA        104.5315   63.1400  -70.2460 C.3       4 GLC5        0.0000 
     31 CA        110.0000   65.7410  -73.0135 C.3       4 GLC5        0.0000 
     32 CA        109.7460   64.5970  -71.6310 C.3      12 GLL5        0.0000 
     33 CA        110.2540   66.8850  -74.3960 C.3       8 GLP5        0.0000 
     34 CA        110.2950   64.5590  -69.6750 C.3       4 GLC5        0.0000 
     35 CA        110.8440   64.5210  -67.7190 C.3       8 GLP5        0.0000 
     36 CA        106.5060   66.0755  -72.3785 C.3       4 GLC5        0.0000 
     37 CA        107.8540   65.9270  -71.1250 C.3      12 GLL5        0.0000 
     38 CA        109.0540   66.4060  -72.7605 C.3       4 GLC5        0.0000 
     39 CA        108.9505   65.8740  -69.3975 C.3       4 GLC5        0.0000 
     40 CA        110.0470   65.8210  -67.6700 C.3       8 GLP5        0.0000 
     41 CA        107.5895   67.9470  -71.0885 C.3       4 GLC5        0.0000 
     42 CA        107.3250   69.9670  -71.0520 C.3       8 GLP5        0.0000 
     43 CA        106.8425   66.0720  -69.3035 C.3       4 GLC5        0.0000 
     44 CA        105.8310   66.2170  -67.4820 C.3       8 GLP5        0.0000 
     45 N         105.7290   65.6810  -71.2850 N.am      2 SEC2        0.0000 
     46 N         106.9740   64.9180  -71.2490 N.am     10 SEL2        0.0000 
     47 N         104.4840   66.4440  -71.3210 N.am      6 SEP2        0.0000 
     48 CA        106.2795   64.9480  -72.6020 C.3       4 GLC5        0.0000 
     49 CA        107.4010   63.6720  -71.5720 C.3      12 GLL5        0.0000 
     50 N         105.0340   51.9645  -79.1535 N.am      2 SEC2        0.0000 
     51 N         104.1240   51.4670  -80.1670 N.am     10 SEL2        0.0000 
     52 N         105.9440   52.4620  -78.1400 N.am      6 SEP2        0.0000 
     53 N         107.2705   50.1940  -81.4170 N.am      2 SEC2        0.0000 
     54 N         106.0960   50.9270  -81.0560 N.am     10 SEL2        0.0000 
     55 N         108.4450   49.4610  -81.7780 N.am      6 SEP2        0.0000 
     56 N         107.0265   50.7850  -80.0985 N.am      2 SEC2        0.0000 
     57 N         107.9570   50.6430  -79.1410 N.am      6 SEP2        0.0000 
     58 N         106.0200   51.6945  -79.5980 N.am      2 SEC2        0.0000 
     59 O         104.8900   49.5355  -83.1920 O.2       1 ALC1        0.0000 
     60 O         104.2810   50.1720  -82.1410 O.2       9 ALL1        0.0000 
     61 O         105.4990   48.8990  -84.2430 O.2       5 ALP1        0.0000 
     62 N         101.8030   48.0830  -83.0990 N.am      2 SEC2        0.0000 
     63 N         102.4710   49.4080  -83.2330 N.am     10 SEL2        0.0000 
     64 N         101.1350   46.7580  -82.9650 N.am      6 SEP2        0.0000 
     65 N          99.8560   49.7410  -82.0585 N.am      2 SEC2        0.0000 
     66 N         100.7270   50.6460  -81.3010 N.am     10 SEL2        0.0000 
     67 N          98.9850   48.8360  -82.8160 N.am      6 SEP2        0.0000 
     68 CA         97.8955   49.0700  -80.3230 C.3       4 GLC5        0.0000 
     69 CA         98.5870   51.1800  -80.4080 C.3      12 GLL5        0.0000 
     70 CA         97.2040   46.9600  -80.2380 C.3       8 GLP5        0.0000 
     71 CA         95.1775   50.4730  -79.1045 C.3       4 GLC5        0.0000 
     72 CA         96.3090   51.7110  -79.5090 C.3      12 GLL5        0.0000 
     73 CA         94.0460   49.2350  -78.7000 C.3       8 GLP5        0.0000 
     74 CA         95.0530   52.5015  -78.0505 C.3       4 GLC5        0.0000 
     75 CA         93.7970   53.2920  -76.5920 C.3       8 GLP5        0.0000 
     76 CA         98.3250   51.6155  -76.5830 C.3       4 GLC5        0.0000 
     77 CA         97.6260   53.2340  -77.2560 C.3      12 GLL5        0.0000 
     78 CA         99.0240   49.9970  -75.9100 C.3       8 GLP5        0.0000 
     79 CA         96.3965   54.1200  -78.7200 C.3       4 GLC5        0.0000 
     80 CA         95.1670   55.0060  -80.1840 C.3       8 GLP5        0.0000 
     81 CA         98.4820   55.2130  -76.7165 C.3       4 GLC5        0.0000 
     82 CA         99.3380   57.1920  -76.1770 C.3       8 GLP5        0.0000 
     83 CA         98.5885   53.4680  -75.5440 C.3       4 GLC5        0.0000 
     84 CA         99.5510   53.7020  -73.8320 C.3       8 GLP5        0.0000 
     85 CA         95.7115   53.2630  -76.9240 C.3       4 GLC5        0.0000 
     86 CA        104.4415   51.9740  -77.8270 C.3       4 GLC5        0.0000 
     87 CA        102.7460   52.7780  -78.1000 C.3      12 GLL5        0.0000 
     88 CA        106.1370   51.1700  -77.5540 C.3       8 GLP5        0.0000 
     89 CA        102.3665   50.9665  -78.0935 C.3       4 GLC5        0.0000 
     90 CA        101.9870   49.1550  -78.0870 C.3       8 GLP5        0.0000 
     91 CA        104.6095   53.0115  -76.5390 C.3       4 GLC5        0.0000 
     92 CA        103.4650   54.7970  -76.9950 C.3      12 GLL5        0.0000 
     93 CA        105.7540   51.2260  -76.0830 C.3       8 GLP5        0.0000 
     94 CA        104.5950   58.1510  -77.7135 C.3       4 GLC5        0.0000 
     95 CA        103.6610   56.3060  -76.9500 C.3      12 GLL5        0.0000 
     96 CA        105.5290   59.9960  -78.4770 C.3       8 GLP5        0.0000 
     97 N         104.8900   57.8645  -78.4605 N.am      2 SEC2        0.0000 
     98 N         104.9090   56.6640  -77.5430 N.am     10 SEL2        0.0000 
     99 N         104.8710   59.0650  -79.3780 N.am      6 SEP2        0.0000 
    100 N         101.6985   54.8090  -73.2415 N.am      2 SEC2        0.0000 
    101 N         103.1300   54.8020  -73.2380 N.am     10 SEL2        0.0000 
    102 N         100.2670   54.8160  -73.2450 N.am      6 SEP2        0.0000 
    103 N         105.7245   53.1280  -72.6680 N.am      2 SEC2        0.0000 
    104 N         105.7360   54.4350  -73.0880 N.am     10 SEL2        0.0000 
    105 N         105.7130   51.8210  -72.2480 N.am      6 SEP2        0.0000 
    106 CA        104.7205   60.2365  -69.1082 C.3       4 GLC5        0.0000 
    107 CA        105.4260   60.5920  -67.3370 C.3       8 GLP5        0.0000 
    108 CA        103.2710   61.5003  -74.2930 C.3       4 GLC5        0.0000 
    109 CA        103.5170   61.0200  -72.3950 C.3      12 GLL5        0.0000 
    110 CA        102.4180   61.6240  -75.9250 C.3       8 GLP5        0.0000 
    111 CA        109.1358   63.5797  -73.7543 C.3       4 GLC5        0.0000 
    112 CA        108.8370   63.4340  -71.7840 C.3      12 GLL5        0.0000 
    113 CA        108.9800   63.1440  -75.8010 C.3       8 GLP5        0.0000 
    114 CA        109.8438   62.5332  -70.3363 C.3       4 GLC5        0.0000 
    115 CA        110.3960   61.0510  -68.9650 C.3       8 GLP5        0.0000 
    116 CA        107.6240   62.9345  -69.8475 C.3       4 GLC5        0.0000 
    117 CA         96.1135   53.3815  -79.8277 C.3       4 GLC5        0.0000 
    118 CA         97.8110   51.8030  -79.4340 C.3      12 GLL5        0.0000 
    119 CA        101.0296   50.6400  -78.5538 C.3       4 GLC5        0.0000 
    120 CA         99.8460   52.6230  -78.2540 C.3      12 GLL5        0.0000 
    121 CA        101.5195   56.8442  -76.1990 C.3       4 GLC5        0.0000 
@<TRIPOS>BOND
@<TRIPOS>SUBSTRUCTURE
     1 ALC1       22 GROUP        1 X    ALC  0     ROOT ALC X 1
     2 SEC2        1 GROUP        1 X    SEC  0     **** SEC X 2
     3 LYC4        6 GROUP        1 X    LYC  0     **** LYC X 4
     4 GLC5       14 GROUP        1 X    GLC  0     **** GLC X 6
     5 ALP1       24 GROUP        1 Y    ALP  0     ROOT ALP Y 8
     6 SEP2        3 GROUP        1 Y    SEP  0     **** SEP Y 9
     7 LYP4        8 GROUP        1 Y    LYP  0     **** LYP Y 11
     8 GLP5       16 GROUP        1 Y    GLP  0     **** GLP Y 13
     9 ALL1       23 GROUP        1 Z    ALL  0     ROOT ALL Z 15
    10 SEL2        2 GROUP        1 Z    SEL  0     **** SEL Z 16
    11 LYL4        7 GROUP        1 Z    LYL  0     **** LYL Z 18
    12 GLL5       15 GROUP        1 Z    GLL  0     **** GLL Z 20
@<TRIPOS>SET

