#    Name: 3u33_FAD_7_ligand
#    Modification time : Mon Mar 24 21:29:45 2014

@<TRIPOS>MOLECULE
3u33_FAD_7_ligand
   84    89     1     0     0
SMALL
NO_CHARGES


@<TRIPOS>ATOM
      1 PA        105.7730   57.2240  -71.6600 P.3       1 FAD1000     0.0000 
      2 O1A       107.0940   57.1830  -72.3980 O.co2     1 FAD1000     0.0000 
      3 O2A       105.5690   56.5040  -70.3370 O.co2     1 FAD1000     0.0000 
      4 O5B       105.3550   58.7760  -71.4890 O.3       1 FAD1000     0.0000 
      5 C5B       104.1560   59.1370  -70.7970 C.3       1 FAD1000     0.0000 
      6 C4B       103.8740   60.6250  -70.9620 C.3       1 FAD1000     0.0000 
      7 O4B       105.0630   61.3310  -70.6200 O.3       1 FAD1000     0.0000 
      8 C3B       103.5170   61.0200  -72.3950 C.3       1 FAD1000     0.0000 
      9 O3B       102.4530   61.9800  -72.4110 O.3       1 FAD1000     0.0000 
     10 C2B       104.7310   61.7330  -72.9270 C.3       1 FAD1000     0.0000 
     11 O2B       104.2900   62.7640  -73.8140 O.3       1 FAD1000     0.0000 
     12 C1B       105.3420   62.2850  -71.6460 C.3       1 FAD1000     0.0000 
     13 N9A       106.8010   62.4990  -71.7590 N.pl3     1 FAD1000     0.0000 
     14 C8A       107.7270   61.5780  -72.0660 C.2       1 FAD1000     0.0000 
     15 N7A       108.9670   62.1280  -72.0850 N.2       1 FAD1000     0.0000 
     16 C5A       108.8370   63.4340  -71.7840 C.ar      1 FAD1000     0.0000 
     17 C6A       109.7460   64.5970  -71.6310 C.ar      1 FAD1000     0.0000 
     18 N6A       111.0850   64.4760  -71.8120 N.pl3     1 FAD1000     0.0000 
     19 N1A       109.1840   65.7860  -71.3040 N.ar      1 FAD1000     0.0000 
     20 C2A       107.8540   65.9270  -71.1250 C.ar      1 FAD1000     0.0000 
     21 N3A       106.9740   64.9180  -71.2490 N.ar      1 FAD1000     0.0000 
     22 C4A       107.4010   63.6720  -71.5720 C.ar      1 FAD1000     0.0000 
     23 N1        104.1240   51.4670  -80.1670 N.2       1 FAD1000     0.0000 
     24 C2        104.8520   50.8540  -81.1270 C.2       1 FAD1000     0.0000 
     25 O2        106.0960   50.9270  -81.0560 O.2       1 FAD1000     0.0000 
     26 N3        104.2810   50.1720  -82.1410 N.am      1 FAD1000     0.0000 
     27 C4        102.9520   50.0520  -82.2750 C.2       1 FAD1000     0.0000 
     28 O4        102.4710   49.4080  -83.2330 O.2       1 FAD1000     0.0000 
     29 C4X       102.0790   50.7020  -81.2620 C.2       1 FAD1000     0.0000 
     30 N5        100.7270   50.6460  -81.3010 N.2       1 FAD1000     0.0000 
     31 C5X        99.9740   51.2520  -80.3470 C.ar      1 FAD1000     0.0000 
     32 C6         98.5870   51.1800  -80.4080 C.ar      1 FAD1000     0.0000 
     33 C7         97.8110   51.8030  -79.4340 C.ar      1 FAD1000     0.0000 
     34 C7M        96.3090   51.7110  -79.5090 C.3       1 FAD1000     0.0000 
     35 C8         98.4600   52.5520  -78.3170 C.ar      1 FAD1000     0.0000 
     36 C8M        97.6260   53.2340  -77.2560 C.3       1 FAD1000     0.0000 
     37 C9         99.8460   52.6230  -78.2540 C.ar      1 FAD1000     0.0000 
     38 C9A       100.6230   52.0020  -79.2270 C.ar      1 FAD1000     0.0000 
     39 N10       102.0360   52.0810  -79.1790 N.pl3     1 FAD1000     0.0000 
     40 C10       102.7770   51.4300  -80.1780 C.2       1 FAD1000     0.0000 
     41 C1'       102.7460   52.7780  -78.1000 C.3       1 FAD1000     0.0000 
     42 C2'       102.9540   54.2670  -78.3210 C.3       1 FAD1000     0.0000 
     43 O2'       103.9150   54.5090  -79.3540 O.3       1 FAD1000     0.0000 
     44 C3'       103.4650   54.7970  -76.9950 C.3       1 FAD1000     0.0000 
     45 O3'       102.5310   54.4060  -75.9810 O.3       1 FAD1000     0.0000 
     46 C4'       103.6610   56.3060  -76.9500 C.3       1 FAD1000     0.0000 
     47 O4'       104.9090   56.6640  -77.5430 O.3       1 FAD1000     0.0000 
     48 C5'       103.7410   56.6870  -75.4920 C.3       1 FAD1000     0.0000 
     49 O5'       104.7120   55.8110  -74.9260 O.3       1 FAD1000     0.0000 
     50 P         104.5430   55.3170  -73.4070 P.3       1 FAD1000     0.0000 
     51 O1P       103.1300   54.8020  -73.2380 O.co2     1 FAD1000     0.0000 
     52 O2P       105.7360   54.4350  -73.0880 O.co2     1 FAD1000     0.0000 
     53 O3P       104.6230   56.7550  -72.6840 O.3       1 FAD1000     0.0000 
     54 H         104.2315   58.9260  -69.7210 H         1 FAD1000     0.0000 
     55 H         103.2864   58.5851  -71.1806 H         1 FAD1000     0.0000 
     56 H         103.0681   60.9057  -70.3139 H         1 FAD1000     0.0000 
     57 H         103.3286   60.1715  -72.9666 H         1 FAD1000     0.0000 
     58 H         105.3775   61.0338  -73.3498 H         1 FAD1000     0.0000 
     59 H         104.8466   63.2216  -71.4236 H         1 FAD1000     0.0000 
     60 H         107.5411   60.6327  -72.2529 H         1 FAD1000     0.0000 
     61 H         111.6175   65.3188  -71.7336 H         1 FAD1000     0.0000 
     62 H         111.4211   63.5547  -72.0078 H         1 FAD1000     0.0000 
     63 H         107.4814   66.8950  -70.8706 H         1 FAD1000     0.0000 
     64 H         104.9121   49.7127  -82.8607 H         1 FAD1000     0.0000 
     65 H          98.1319   50.6655  -81.1741 H         1 FAD1000     0.0000 
     66 H         100.3004   53.1362  -77.4858 H         1 FAD1000     0.0000 
     67 H         103.7456   52.3113  -77.9369 H         1 FAD1000     0.0000 
     68 H         102.2005   52.6459  -77.1364 H         1 FAD1000     0.0000 
     69 H         102.0084   54.7151  -78.5193 H         1 FAD1000     0.0000 
     70 H         104.4306   54.3217  -76.7935 H         1 FAD1000     0.0000 
     71 H         102.8384   56.7861  -77.3910 H         1 FAD1000     0.0000 
     72 H         102.7653   56.5520  -75.0470 H         1 FAD1000     0.0000 
     73 H         104.0410   57.7230  -75.4230 H         1 FAD1000     0.0000 
     74 H          95.9547   52.1043  -80.3574 H         1 FAD1000     0.0000 
     75 H          95.9926   50.7631  -79.4708 H         1 FAD1000     0.0000 
     76 H          95.8690   52.1975  -78.7542 H         1 FAD1000     0.0000 
     77 H          98.1955   53.6934  -76.5743 H         1 FAD1000     0.0000 
     78 H          97.0211   53.9273  -77.6478 H         1 FAD1000     0.0000 
     79 H          97.0469   52.5839  -76.7641 H         1 FAD1000     0.0000 
     80 H         102.6575   62.5800  -73.1844 H         1 FAD1000     0.0000 
     81 H         104.4300   62.3929  -74.7320 H         1 FAD1000     0.0000 
     82 H         104.4929   55.2454  -79.0023 H         1 FAD1000     0.0000 
     83 H         102.9547   54.6827  -75.1185 H         1 FAD1000     0.0000 
     84 H         105.5876   56.5244  -76.8218 H         1 FAD1000     0.0000 
@<TRIPOS>BOND
     1    2    1 ar   
     2    3    1 ar   
     3    4    1 1    
     4   53    1 1    
     5    5    4 1    
     6    6    5 1    
     7   54    5 1    
     8   55    5 1    
     9    7    6 1    
    10    8    6 1    
    11   56    6 1    
    12   12    7 1    
    13    9    8 1    
    14   10    8 1    
    15   57    8 1    
    16   80    9 1    
    17   11   10 1    
    18   12   10 1    
    19   58   10 1    
    20   81   11 1    
    21   13   12 1    
    22   59   12 1    
    23   14   13 1    
    24   22   13 1    
    25   15   14 2    
    26   60   14 1    
    27   16   15 1    
    28   17   16 ar   
    29   22   16 ar   
    30   18   17 1    
    31   19   17 ar   
    32   61   18 1    
    33   62   18 1    
    34   20   19 ar   
    35   21   20 ar   
    36   63   20 1    
    37   22   21 ar   
    38   24   23 1    
    39   40   23 2    
    40   25   24 2    
    41   26   24 am   
    42   27   26 am   
    43   64   26 1    
    44   28   27 2    
    45   29   27 1    
    46   30   29 2    
    47   40   29 1    
    48   31   30 1    
    49   32   31 ar   
    50   38   31 ar   
    51   33   32 ar   
    52   65   32 1    
    53   34   33 1    
    54   35   33 ar   
    55   74   34 1    
    56   75   34 1    
    57   76   34 1    
    58   36   35 1    
    59   37   35 ar   
    60   77   36 1    
    61   78   36 1    
    62   79   36 1    
    63   38   37 ar   
    64   66   37 1    
    65   39   38 1    
    66   40   39 1    
    67   41   39 1    
    68   42   41 1    
    69   67   41 1    
    70   68   41 1    
    71   43   42 1    
    72   44   42 1    
    73   69   42 1    
    74   82   43 1    
    75   45   44 1    
    76   46   44 1    
    77   70   44 1    
    78   83   45 1    
    79   47   46 1    
    80   48   46 1    
    81   71   46 1    
    82   84   47 1    
    83   49   48 1    
    84   72   48 1    
    85   73   48 1    
    86   50   49 1    
    87   51   50 ar   
    88   52   50 ar   
    89   53   50 1    
@<TRIPOS>SUBSTRUCTURE
     1 FAD1000     1 GROUP   
@<TRIPOS>SET

