#    Name: 4mpn_PV0_1_INTS_M
#    Modification time : Tue Mar 25 12:18:17 2014

@<TRIPOS>MOLECULE
4mpn_PV0_1_INTS_M
   43     0     9     0     0
SMALL
NO_CHARGES


@<TRIPOS>ATOM
      1 CA         10.1010    1.8825  -38.1090 C.3       3 GLC5        0.0000 
      2 CA         11.4780    3.0250  -37.6780 C.3       9 GLL5        0.0000 
      3 CA          8.7240    0.7400  -38.5400 C.3       6 GLP5        0.0000 
      4 CA         11.6435    5.2160  -39.2905 C.3       3 GLC5        0.0000 
      5 CA         10.7980    4.2320  -37.6030 C.3       9 GLL5        0.0000 
      6 CA         12.4890    6.2000  -40.9780 C.3       6 GLP5        0.0000 
      7 CA          8.8635    4.7690  -35.1850 C.3       3 GLC5        0.0000 
      8 CA         10.6460    4.8540  -36.3670 C.3       9 GLL5        0.0000 
      9 CA          7.0810    4.6840  -34.0030 C.3       6 GLP5        0.0000 
     10 CA         11.5595    5.3365  -33.4235 C.3       3 GLC5        0.0000 
     11 CA         11.1780    4.2870  -35.2250 C.3       9 GLL5        0.0000 
     12 CA         11.9410    6.3860  -31.6220 C.3       6 GLP5        0.0000 
     13 CA          9.8480    4.0240  -33.6945 C.3       3 GLC5        0.0000 
     14 CA          8.5180    3.7610  -32.1640 C.3       6 GLP5        0.0000 
     15 CA         10.0490    1.9335  -36.9280 C.3       3 GLC5        0.0000 
     16 CA         12.0110    2.4650  -36.5280 C.3       9 GLL5        0.0000 
     17 CA          8.0870    1.4020  -37.3280 C.3       6 GLP5        0.0000 
     18 O          20.7390    0.9280  -39.4700 O.2       1 ALC1        0.0000 
     19 O          19.7410    0.0040  -39.3780 O.2       7 ALL1        0.0000 
     20 O          21.7370    1.8520  -39.5620 O.2       4 ALP1        0.0000 
     21 N          10.8710   -0.2390  -37.7050 N.am      2 SEC2        0.0000 
     22 N          12.1930   -0.1290  -37.2970 N.am      8 SEL2        0.0000 
     23 N           9.5490   -0.3490  -38.1130 N.am      5 SEP2        0.0000 
     24 CA         12.2650    5.2613  -37.1637 C.3       3 GLC5        0.0000 
     25 CA         13.3920    6.8940  -36.6870 C.3       6 GLP5        0.0000 
     26 CA          9.4045    2.9725  -37.1565 C.3       3 GLC5        0.0000 
     27 CA         11.6028    2.7737  -33.4390 C.3       3 GLC5        0.0000 
     28 CA         11.6830    1.8550  -31.6160 C.3       6 GLP5        0.0000 
     29 CA         12.3908    5.3641  -36.1172 C.3       3 GLC5        0.0000 
     30 CA         11.8670    3.0980  -35.2990 C.3       9 GLL5        0.0000 
     31 CA         15.0707    1.6080  -39.1816 C.3       3 GLC5        0.0000 
     32 CA         15.2100    2.2950  -37.0040 C.3       9 GLL5        0.0000 
     33 CA         14.8050    2.2670  -40.6830 C.3       6 GLP5        0.0000 
     34 CA         17.1197    1.3985  -40.0240 C.3       3 GLC5        0.0000 
     35 CA         17.4180   -0.0860  -38.7550 C.3       9 GLL5        0.0000 
     36 CA         16.2080    2.5470  -41.2770 C.3       6 GLP5        0.0000 
     37 CA         19.8380    1.3087  -40.3110 C.3       3 GLC5        0.0000 
     38 CA         18.6450    0.5860  -38.7870 C.3       9 GLL5        0.0000 
     39 CA         20.9610    1.3950  -42.1160 C.3       6 GLP5        0.0000 
     40 CA         19.0053    3.8262  -38.7023 C.3       3 GLC5        0.0000 
     41 CA         18.7850    1.8590  -38.2250 C.3       9 GLL5        0.0000 
     42 CA         19.7620    5.4840  -39.4810 C.3       6 GLP5        0.0000 
     43 CA         17.2282    2.3578  -39.6003 C.3       3 GLC5        0.0000 
@<TRIPOS>BOND
@<TRIPOS>SUBSTRUCTURE
     1 ALC1       18 GROUP        1 X    ALC  0     ROOT ALC X 1
     2 SEC2       21 GROUP        1 X    SEC  0     **** SEC X 2
     3 GLC5        1 GROUP        1 X    GLC  0     **** GLC X 6
     4 ALP1       20 GROUP        1 Y    ALP  0     ROOT ALP Y 8
     5 SEP2       23 GROUP        1 Y    SEP  0     **** SEP Y 9
     6 GLP5        3 GROUP        1 Y    GLP  0     **** GLP Y 13
     7 ALL1       19 GROUP        1 Z    ALL  0     ROOT ALL Z 15
     8 SEL2       22 GROUP        1 Z    SEL  0     **** SEL Z 16
     9 GLL5        2 GROUP        1 Z    GLL  0     **** GLL Z 20
@<TRIPOS>SET

