#    Name: 4mpn_PV0_1_ligand
#    Modification time : Tue Mar 25 12:18:17 2014

@<TRIPOS>MOLECULE
4mpn_PV0_1_ligand
   33    35     1     0     0
SMALL
NO_CHARGES


@<TRIPOS>ATOM
      1 C12        16.4750    1.8240  -37.5840 C.ar      1 PV0501      0.0000 
      2 C13        16.3120    0.5580  -38.1370 C.ar      1 PV0501      0.0000 
      3 O01        11.6470    2.3790  -38.8840 O.co2     1 PV0501      0.0000 
      4 C02        11.4780    3.0250  -37.6780 C.ar      1 PV0501      0.0000 
      5 C03        10.7980    4.2320  -37.6030 C.ar      1 PV0501      0.0000 
      6 C04        10.6460    4.8540  -36.3670 C.ar      1 PV0501      0.0000 
      7 O05         9.9800    6.0520  -36.2640 O.co2     1 PV0501      0.0000 
      8 C06        11.1780    4.2870  -35.2250 C.ar      1 PV0501      0.0000 
      9 C07        11.8670    3.0980  -35.2990 C.ar      1 PV0501      0.0000 
     10 C08        12.0110    2.4650  -36.5280 C.ar      1 PV0501      0.0000 
     11 S09        12.8760    0.9530  -36.6190 S.o2      1 PV0501      0.0000 
     12 N10        14.2410    1.3390  -37.3990 N.pl3     1 PV0501      0.0000 
     13 C11        15.2100    2.2950  -37.0040 C.3       1 PV0501      0.0000 
     14 C14        14.8710    0.1550  -37.9280 C.3       1 PV0501      0.0000 
     15 C15        17.4180   -0.0860  -38.7550 C.ar      1 PV0501      0.0000 
     16 C16        18.6450    0.5860  -38.7870 C.ar      1 PV0501      0.0000 
     17 C17        18.7850    1.8590  -38.2250 C.ar      1 PV0501      0.0000 
     18 C18        17.7120    2.4780  -37.6220 C.ar      1 PV0501      0.0000 
     19 O19        17.8050    3.7220  -37.0620 O.3       1 PV0501      0.0000 
     20 O20        19.7410    0.0040  -39.3780 O.3       1 PV0501      0.0000 
     21 O21        13.1870    0.5400  -35.2580 O.2       1 PV0501      0.0000 
     22 O22        12.1930   -0.1290  -37.2970 O.2       1 PV0501      0.0000 
     23 H          10.4109    4.6629  -38.4475 H         1 PV0501      0.0000 
     24 H          11.0569    4.7590  -34.3136 H         1 PV0501      0.0000 
     25 H          12.2744    2.6761  -34.4553 H         1 PV0501      0.0000 
     26 H          14.9792    3.2818  -37.3928 H         1 PV0501      0.0000 
     27 H          15.3041    2.3455  -35.9238 H         1 PV0501      0.0000 
     28 H          14.8361   -0.6601  -37.2283 H         1 PV0501      0.0000 
     29 H          14.4493   -0.1304  -38.8745 H         1 PV0501      0.0000 
     30 H          17.3107   -1.0058  -39.1581 H         1 PV0501      0.0000 
     31 H          19.7024    2.3304  -38.2670 H         1 PV0501      0.0000 
     32 H          17.0779    3.7520  -36.3762 H         1 PV0501      0.0000 
     33 H          20.3793    0.7571  -39.5375 H         1 PV0501      0.0000 
@<TRIPOS>BOND
     1    2    1 ar   
     2   13    1 1    
     3   18    1 ar   
     4   14    2 1    
     5   15    2 ar   
     6    4    3 1    
     7    5    4 ar   
     8   10    4 ar   
     9    6    5 ar   
    10   23    5 1    
    11    7    6 1    
    12    8    6 ar   
    13    9    8 ar   
    14   24    8 1    
    15   10    9 ar   
    16   25    9 1    
    17   11   10 1    
    18   12   11 1    
    19   21   11 2    
    20   22   11 2    
    21   13   12 1    
    22   14   12 1    
    23   26   13 1    
    24   27   13 1    
    25   28   14 1    
    26   29   14 1    
    27   16   15 ar   
    28   30   15 1    
    29   17   16 ar   
    30   20   16 1    
    31   18   17 ar   
    32   31   17 1    
    33   19   18 1    
    34   32   19 1    
    35   33   20 1    
@<TRIPOS>SUBSTRUCTURE
     1 PV0501      1 GROUP   
@<TRIPOS>SET

