#    Name: 1hw8_114_4_INTS_M
#    Modification time : Tue Mar 25 06:21:21 2014

@<TRIPOS>MOLECULE
1hw8_114_4_INTS_M
   73     0    12     0     0
SMALL
NO_CHARGES


@<TRIPOS>ATOM
      1 NZ         45.6210    7.9600   18.2915 N.4       3 LYC4        0.0000 
      2 NZ         44.8080    8.0480   19.8050 N.4      11 LYL4        0.0000 
      3 NZ         46.4340    7.8720   16.7780 N.4       7 LYP4        0.0000 
      4 NZ         43.5090    8.3400   18.9660 N.4       3 LYC4        0.0000 
      5 NZ         42.2100    8.6320   18.1270 N.4       7 LYP4        0.0000 
      6 N          45.6865    7.1170   19.5535 N.am      2 SEC2        0.0000 
      7 N          44.8080    8.0480   19.8050 N.am     10 SEL2        0.0000 
      8 N          46.5650    6.1860   19.3020 N.am      6 SEP2        0.0000 
      9 N          44.1060    7.0130   19.7825 N.am      2 SEC2        0.0000 
     10 N          43.4040    5.9780   19.7600 N.am      6 SEP2        0.0000 
     11 NZ         46.4245    8.6715   17.9180 N.4       3 LYC4        0.0000 
     12 NZ         46.4150    9.4710   19.0580 N.4      11 LYL4        0.0000 
     13 N          46.4245    8.6715   17.9180 N.am      2 SEC2        0.0000 
     14 N          46.4150    9.4710   19.0580 N.am     10 SEL2        0.0000 
     15 N          46.4340    7.8720   16.7780 N.am      6 SEP2        0.0000 
     16 N          46.4900    7.8285   19.1800 N.am      2 SEC2        0.0000 
     17 N          45.9775    8.3205   22.6695 N.am      2 SEC2        0.0000 
     18 N          45.5320    9.7410   22.6190 N.am     10 SEL2        0.0000 
     19 N          46.4230    6.9000   22.7200 N.am      6 SEP2        0.0000 
     20 N          46.5835    8.9880   23.3900 N.am      2 SEC2        0.0000 
     21 N          47.6350    8.2350   24.1610 N.am      6 SEP2        0.0000 
     22 O          44.3850    9.6945   23.3325 O.2       1 ALC1        0.0000 
     23 O          45.5320    9.7410   22.6190 O.2       9 ALL1        0.0000 
     24 O          43.2380    9.6480   24.0460 O.2       5 ALP1        0.0000 
     25 N          44.0575   14.6715   23.1755 N.am      2 SEC2        0.0000 
     26 N          44.7280   13.6840   24.0100 N.am     10 SEL2        0.0000 
     27 N          43.3870   15.6590   22.3410 N.am      6 SEP2        0.0000 
     28 N          43.5030   13.7775   24.5800 N.am      2 SEC2        0.0000 
     29 N          42.2780   13.8710   25.1500 N.am      6 SEP2        0.0000 
     30 O          45.2080   14.6025   24.8590 O.2       1 ALC1        0.0000 
     31 O          44.7280   13.6840   24.0100 O.2       9 ALL1        0.0000 
     32 O          45.6880   15.5210   25.7080 O.2       5 ALP1        0.0000 
     33 CA         43.9255   12.2365   19.7105 C.3       4 GLC5        0.0000 
     34 CA         44.6570   10.3470   20.4570 C.3      12 GLL5        0.0000 
     35 CA         43.1940   14.1260   18.9640 C.3       8 GLP5        0.0000 
     36 CA         45.8315   11.7870   19.3405 C.3       4 GLC5        0.0000 
     37 CA         47.0060   13.2270   18.2240 C.3       8 GLP5        0.0000 
     38 CA         43.5550    8.9955   21.7345 C.3       4 GLC5        0.0000 
     39 CA         42.4530    7.6440   23.0120 C.3       8 GLP5        0.0000 
     40 CA         43.9390   13.0625   20.6650 C.3       4 GLC5        0.0000 
     41 CA         44.6840   11.9990   22.3660 C.3      12 GLL5        0.0000 
     42 CA         42.7940   12.2830   22.9000 C.3       4 GLC5        0.0000 
     43 CA         40.9040   12.5670   23.4340 C.3       8 GLP5        0.0000 
     44 CA         46.7940   13.4545   20.3540 C.3       4 GLC5        0.0000 
     45 CA         46.5820   13.6820   22.4840 C.3      12 GLL5        0.0000 
     46 CA         50.5615   17.3190   24.1790 C.3       4 GLC5        0.0000 
     47 CA         50.1110   15.4260   23.3780 C.3      12 GLL5        0.0000 
     48 CA         51.0120   19.2120   24.9800 C.3       8 GLP5        0.0000 
     49 CA         47.3010   19.0445   22.8530 C.3       4 GLC5        0.0000 
     50 CA         47.6160   17.2530   22.4160 C.3      12 GLL5        0.0000 
     51 CA         46.9860   20.8360   23.2900 C.3       8 GLP5        0.0000 
     52 CA         51.5590    8.3105   25.1565 C.3       4 GLC5        0.0000 
     53 CA         51.7660    9.4880   23.6530 C.3      12 GLL5        0.0000 
     54 CA         51.3520    7.1330   26.6600 C.3       8 GLP5        0.0000 
     55 CA         48.9947   14.5530   20.4865 C.3       4 GLC5        0.0000 
     56 CA         48.8800   14.9560   22.5190 C.3      12 GLL5        0.0000 
     57 CA         49.3760   13.5520   18.9020 C.3       8 GLP5        0.0000 
     58 CA         50.0680   18.5553   20.4735 C.3       4 GLC5        0.0000 
     59 CA         49.5170   16.8450   20.8970 C.3      12 GLL5        0.0000 
     60 CA         49.9760   20.2760   19.8240 C.3       8 GLP5        0.0000 
     61 CA         49.7680   15.1932   20.0125 C.3       4 GLC5        0.0000 
     62 CA         51.3717   17.7836   23.6863 C.3       4 GLC5        0.0000 
     63 CA         52.4770   16.2060   22.8640 C.3      12 GLL5        0.0000 
     64 CA         52.4345   17.0658   25.3865 C.3       4 GLC5        0.0000 
     65 CA         53.0290   15.5170   24.1230 C.3      12 GLL5        0.0000 
     66 CA         52.3810   18.9050   26.1690 C.3       8 GLP5        0.0000 
     67 CA         49.6638   12.0170   20.3325 C.3       4 GLC5        0.0000 
     68 CA         50.6600   10.7790   21.7020 C.3      12 GLL5        0.0000 
     69 CA         50.7203   10.0190   19.9810 C.3       4 GLC5        0.0000 
     70 CA         51.4890    9.5560   18.1990 C.3       8 GLP5        0.0000 
     71 CA         51.9599    8.6251   22.0055 C.3       4 GLC5        0.0000 
     72 CA         51.4990   10.8740   23.0040 C.3      12 GLL5        0.0000 
     73 CA         52.4970    7.0930   21.0080 C.3       8 GLP5        0.0000 
@<TRIPOS>BOND
@<TRIPOS>SUBSTRUCTURE
     1 ALC1       22 GROUP        1 X    ALC  0     ROOT ALC X 1
     2 SEC2        6 GROUP        1 X    SEC  0     **** SEC X 2
     3 LYC4        1 GROUP        1 X    LYC  0     **** LYC X 4
     4 GLC5       33 GROUP        1 X    GLC  0     **** GLC X 6
     5 ALP1       24 GROUP        1 Y    ALP  0     ROOT ALP Y 8
     6 SEP2        8 GROUP        1 Y    SEP  0     **** SEP Y 9
     7 LYP4        3 GROUP        1 Y    LYP  0     **** LYP Y 11
     8 GLP5       35 GROUP        1 Y    GLP  0     **** GLP Y 13
     9 ALL1       23 GROUP        1 Z    ALL  0     ROOT ALL Z 15
    10 SEL2        7 GROUP        1 Z    SEL  0     **** SEL Z 16
    11 LYL4        2 GROUP        1 Z    LYL  0     **** LYL Z 18
    12 GLL5       34 GROUP        1 Z    GLL  0     **** GLL Z 20
@<TRIPOS>SET

