#    Name: 1hw8_114_4_ligand
#    Modification time : Tue Mar 25 06:21:21 2014

@<TRIPOS>MOLECULE
1hw8_114_4_ligand
   64    65     1     0     0
SMALL
NO_CHARGES


@<TRIPOS>ATOM
      1 O1A        44.8080    8.0480   19.8050 O.co2     1 1143        0.0000 
      2 O1B        46.4150    9.4710   19.0580 O.co2     1 1143        0.0000 
      3 O3         45.5320    9.7410   22.6190 O.3       1 1143        0.0000 
      4 O5         44.7280   13.6840   24.0100 O.3       1 1143        0.0000 
      5 O14        51.1660   13.2060   23.5190 O.3       1 1143        0.0000 
      6 O18        50.4190   11.6310   25.0620 O.2       1 1143        0.0000 
      7 C1         45.3930    9.2660   19.6970 C.2       1 1143        0.0000 
      8 C2         44.6570   10.3470   20.4570 C.3       1 1143        0.0000 
      9 C3         45.4170   10.8350   21.6920 C.3       1 1143        0.0000 
     10 C4         44.6840   11.9990   22.3660 C.3       1 1143        0.0000 
     11 C5         45.5850   12.8370   23.2820 C.3       1 1143        0.0000 
     12 C6         46.5820   13.6820   22.4840 C.3       1 1143        0.0000 
     13 C7         47.7810   14.1810   23.3180 C.3       1 1143        0.0000 
     14 C8         48.8800   14.9560   22.5190 C.3       1 1143        0.0000 
     15 C9         48.3470   16.1520   21.6230 C.3       1 1143        0.0000 
     16 C10        49.5170   16.8450   20.8970 C.2       1 1143        0.0000 
     17 C11        50.8030   16.8240   21.3490 C.2       1 1143        0.0000 
     18 C12        51.1690   16.1850   22.4930 C.2       1 1143        0.0000 
     19 C17        52.4770   16.2060   22.8640 C.2       1 1143        0.0000 
     20 C16        53.0290   15.5170   24.1230 C.3       1 1143        0.0000 
     21 C15        51.9470   14.9360   25.0850 C.3       1 1143        0.0000 
     22 C14        50.7330   14.3430   24.3130 C.3       1 1143        0.0000 
     23 C13        50.1110   15.4260   23.3780 C.3       1 1143        0.0000 
     24 C9A        47.6160   17.2530   22.4160 C.3       1 1143        0.0000 
     25 C18        50.9580   11.9230   23.9920 C.2       1 1143        0.0000 
     26 C19        51.4990   10.8740   23.0040 C.3       1 1143        0.0000 
     27 C20        50.6600   10.7790   21.7020 C.3       1 1143        0.0000 
     28 C21        49.2430   10.1850   21.8240 C.3       1 1143        0.0000 
     29 C22        51.7660    9.4880   23.6530 C.3       1 1143        0.0000 
     30 H          43.6749    9.9669   20.7742 H         1 1143        0.0000 
     31 H          44.4773   11.2041   19.7916 H         1 1143        0.0000 
     32 H          46.3880   11.1762   21.3800 H         1 1143        0.0000 
     33 H          43.8476   11.6008   22.9568 H         1 1143        0.0000 
     34 H          44.2596   12.6513   21.5905 H         1 1143        0.0000 
     35 H          46.1224   12.1713   23.9241 H         1 1143        0.0000 
     36 H          46.0599   14.5531   22.0633 H         1 1143        0.0000 
     37 H          46.9633   13.0884   21.6409 H         1 1143        0.0000 
     38 H          48.2592   13.3172   23.8110 H         1 1143        0.0000 
     39 H          47.4097   14.8412   24.1206 H         1 1143        0.0000 
     40 H          49.3146   14.2145   21.7735 H         1 1143        0.0000 
     41 H          47.6820   15.7568   20.8784 H         1 1143        0.0000 
     42 H          49.2374   17.3334   20.0261 H         1 1143        0.0000 
     43 H          51.5445   17.3245   20.7874 H         1 1143        0.0000 
     44 H          53.2066   16.7010   22.3076 H         1 1143        0.0000 
     45 H          53.6419   16.2378   24.6890 H         1 1143        0.0000 
     46 H          53.6979   14.6946   23.8200 H         1 1143        0.0000 
     47 H          51.5959   15.7310   25.7393 H         1 1143        0.0000 
     48 H          52.3990   14.1523   25.6891 H         1 1143        0.0000 
     49 H          49.9886   14.0571   25.0297 H         1 1143        0.0000 
     50 H          49.6924   16.2321   24.0708 H         1 1143        0.0000 
     51 H          52.5183   11.2547   22.6760 H         1 1143        0.0000 
     52 H          51.2338   10.1791   20.9619 H         1 1143        0.0000 
     53 H          50.5811   11.7984   21.2644 H         1 1143        0.0000 
     54 H          48.2102   17.6737   23.1015 H         1 1143        0.0000 
     55 H          47.2913   17.9869   21.8195 H         1 1143        0.0000 
     56 H          46.8181   16.8943   22.9003 H         1 1143        0.0000 
     57 H          49.2616    9.2491   22.1758 H         1 1143        0.0000 
     58 H          48.6682   10.7196   22.4435 H         1 1143        0.0000 
     59 H          48.7748   10.1568   20.9408 H         1 1143        0.0000 
     60 H          52.1176    8.8284   22.9887 H         1 1143        0.0000 
     61 H          52.4379    9.5469   24.3913 H         1 1143        0.0000 
     62 H          50.9341    9.0947   24.0444 H         1 1143        0.0000 
     63 H          44.6705    9.7406   23.1268 H         1 1143        0.0000 
     64 H          45.3350   14.2399   24.5779 H         1 1143        0.0000 
@<TRIPOS>BOND
     1    7    1 ar   
     2    7    2 ar   
     3    9    3 1    
     4   63    3 1    
     5   11    4 1    
     6   64    4 1    
     7   22    5 1    
     8   25    5 1    
     9   25    6 2    
    10    8    7 1    
    11    9    8 1    
    12   30    8 1    
    13   31    8 1    
    14   10    9 1    
    15   32    9 1    
    16   11   10 1    
    17   33   10 1    
    18   34   10 1    
    19   12   11 1    
    20   35   11 1    
    21   13   12 1    
    22   36   12 1    
    23   37   12 1    
    24   14   13 1    
    25   38   13 1    
    26   39   13 1    
    27   15   14 1    
    28   23   14 1    
    29   40   14 1    
    30   16   15 1    
    31   24   15 1    
    32   41   15 1    
    33   17   16 2    
    34   42   16 1    
    35   18   17 1    
    36   43   17 1    
    37   19   18 2    
    38   23   18 1    
    39   20   19 1    
    40   44   19 1    
    41   21   20 1    
    42   45   20 1    
    43   46   20 1    
    44   22   21 1    
    45   47   21 1    
    46   48   21 1    
    47   23   22 1    
    48   49   22 1    
    49   50   23 1    
    50   54   24 1    
    51   55   24 1    
    52   56   24 1    
    53   26   25 1    
    54   27   26 1    
    55   29   26 1    
    56   51   26 1    
    57   28   27 1    
    58   52   27 1    
    59   53   27 1    
    60   57   28 1    
    61   58   28 1    
    62   59   28 1    
    63   60   29 1    
    64   61   29 1    
    65   62   29 1    
@<TRIPOS>SUBSTRUCTURE
     1 1143        1 GROUP   
@<TRIPOS>SET

