#    Name: 2gcn_GDP_1_INTS_M
#    Modification time : Tue Mar 25 14:01:28 2014

@<TRIPOS>MOLECULE
2gcn_GDP_1_INTS_M
   60     0    15     0     0
SMALL
NO_CHARGES


@<TRIPOS>ATOM
      1 Zn         -8.3980   -5.9895   -3.1475 Zn        4 ZIC7        0.0000 
      2 Zn         -7.9920   -5.1800   -3.6660 Zn       14 ZIL7        0.0000 
      3 Zn         -8.8040   -6.7990   -2.6290 Zn        9 ZIP7        0.0000 
      4 N          -7.4545   -4.3670   -2.5135 N.am      2 SEC2        0.0000 
      5 N          -7.9920   -5.1800   -3.6660 N.am     12 SEL2        0.0000 
      6 N          -6.9170   -3.5540   -1.3610 N.am      7 SEP2        0.0000 
      7 NZ         -9.8505   -4.5860   -5.6205 N.4       3 LYC4        0.0000 
      8 NZ         -8.5390   -5.8890   -5.9790 N.4      13 LYL4        0.0000 
      9 NZ        -11.1620   -3.2830   -5.2620 N.4       8 LYP4        0.0000 
     10 N          -8.7285   -5.4375   -7.2600 N.am      2 SEC2        0.0000 
     11 N          -8.5390   -5.8890   -5.9790 N.am     12 SEL2        0.0000 
     12 N          -8.9180   -4.9860   -8.5410 N.am      7 SEP2        0.0000 
     13 NZ         -9.8900   -3.3800   -5.3030 N.4       3 LYC4        0.0000 
     14 NZ         -8.6180   -3.4770   -5.3440 N.4      13 LYL4        0.0000 
     15 N          -7.4615   -2.5805   -5.8170 N.am      2 SEC2        0.0000 
     16 N          -8.6180   -3.4770   -5.3440 N.am     12 SEL2        0.0000 
     17 N          -6.3050   -1.6840   -6.2900 N.am      7 SEP2        0.0000 
     18 N          -7.8990   -2.5880   -4.4770 N.am      2 SEC2        0.0000 
     19 N          -7.1800   -1.6990   -3.6100 N.am      7 SEP2        0.0000 
     20 N          -9.8900   -3.3800   -5.3030 N.am      2 SEC2        0.0000 
     21 N         -11.1620   -3.2830   -5.2620 N.am      7 SEP2        0.0000 
     22 N          -6.3355   -3.1540   -5.9070 N.am      2 SEC2        0.0000 
     23 N          -6.3660   -4.6240   -5.5240 N.am     12 SEL2        0.0000 
     24 N          -4.4435   -4.1260   -2.2940 N.am      2 SEC2        0.0000 
     25 N          -4.7230   -4.5840   -3.5630 N.am     12 SEL2        0.0000 
     26 N          -4.1640   -3.6680   -1.0250 N.am      7 SEP2        0.0000 
     27 CA         -5.8230   -5.0660   -8.0590 C.3       5 GLC5        0.0000 
     28 CA         -4.1440   -5.3510   -7.2890 C.3      15 GLL5        0.0000 
     29 CA         -7.5020   -4.7810   -8.8290 C.3      10 GLP5        0.0000 
     30 CA         -4.7345   -3.4745   -6.2465 C.3       5 GLC5        0.0000 
     31 CA         -5.3250   -1.5980   -5.2040 C.3      10 GLP5        0.0000 
     32 N          -2.8500   -3.0785   -9.0710 N.am      2 SEC2        0.0000 
     33 N          -2.3270   -4.0370   -8.1400 N.am     12 SEL2        0.0000 
     34 N          -3.3730   -2.1200  -10.0020 N.am      7 SEP2        0.0000 
     35 CA         -1.1750   -4.9520   -4.7805 C.3       5 GLC5        0.0000 
     36 CA         -0.8650   -5.1780   -6.6900 C.3      15 GLL5        0.0000 
     37 CA         -1.4850   -4.7260   -2.8710 C.3      10 GLP5        0.0000 
     38 CA          0.6545   -4.2395   -5.5415 C.3       5 GLC5        0.0000 
     39 CA          2.1740   -3.3010   -4.3930 C.3      10 GLP5        0.0000 
     40 CA         -2.2080   -2.4550   -8.3045 C.3       5 GLC5        0.0000 
     41 CA         -1.0160   -3.9590   -7.5960 C.3      15 GLL5        0.0000 
     42 CA         -3.4000   -0.9510   -9.0130 C.3      10 GLP5        0.0000 
     43 CA         -1.3980    0.3090   -7.2880 C.3       5 GLC5        0.0000 
     44 CA         -0.3900   -0.6880   -6.1250 C.3      15 GLL5        0.0000 
     45 CA         -2.4060    1.3060   -8.4510 C.3      10 GLP5        0.0000 
     46 CA         -0.3675   -0.0350   -3.9785 C.3       5 GLC5        0.0000 
     47 CA         -0.3450    0.6180   -1.8320 C.3      10 GLP5        0.0000 
     48 N           1.3575    1.3340   -4.3495 N.am      2 SEC2        0.0000 
     49 N           0.2600    1.4860   -5.4450 N.am     12 SEL2        0.0000 
     50 N           2.4550    1.1820   -3.2540 N.am      7 SEP2        0.0000 
     51 O           1.6735    1.9120   -7.5290 O.2       1 ALC1        0.0000 
     52 O           1.1860    0.6590   -7.3500 O.2      11 ALL1        0.0000 
     53 O           2.1610    3.1650   -7.7080 O.2       6 ALP1        0.0000 
     54 O           2.4305    1.4760   -8.2135 O.2       1 ALC1        0.0000 
     55 O           3.6750    2.2930   -9.0770 O.2       6 ALP1        0.0000 
     56 O           2.9190    1.0840   -9.1910 O.2       1 ALC1        0.0000 
     57 O           2.1630   -0.1250   -9.3050 O.2      11 ALL1        0.0000 
     58 CA         -1.3060   -0.7810   -8.3005 C.3       5 GLC5        0.0000 
     59 CA         -0.1760   -1.7130   -7.1560 C.3      15 GLL5        0.0000 
     60 CA         -2.4360    0.1510   -9.4450 C.3      10 GLP5        0.0000 
@<TRIPOS>BOND
@<TRIPOS>SUBSTRUCTURE
     1 ALC1       51 GROUP        1 X    ALC  0     ROOT ALC X 1
     2 SEC2        4 GROUP        1 X    SEC  0     **** SEC X 2
     3 LYC4        7 GROUP        1 X    LYC  0     **** LYC X 4
     4 ZIC7        1 GROUP        1 X    ZIC  0     **** ZIC X 5
     5 GLC5       27 GROUP        1 X    GLC  0     **** GLC X 6
     6 ALP1       53 GROUP        1 Y    ALP  0     ROOT ALP Y 8
     7 SEP2        6 GROUP        1 Y    SEP  0     **** SEP Y 9
     8 LYP4        9 GROUP        1 Y    LYP  0     **** LYP Y 11
     9 ZIP7        3 GROUP        1 Y    ZIP  0     **** ZIP Y 12
    10 GLP5       29 GROUP        1 Y    GLP  0     **** GLP Y 13
    11 ALL1       52 GROUP        1 Z    ALL  0     ROOT ALL Z 15
    12 SEL2        5 GROUP        1 Z    SEL  0     **** SEL Z 16
    13 LYL4        8 GROUP        1 Z    LYL  0     **** LYL Z 18
    14 ZIL7        2 GROUP        1 Z    ZIL  0     **** ZIL Z 19
    15 GLL5       28 GROUP        1 Z    GLL  0     **** GLL Z 20
@<TRIPOS>SET

