#    Name: 2gcn_GDP_1_ligand
#    Modification time : Tue Mar 25 14:01:29 2014

@<TRIPOS>MOLECULE
2gcn_GDP_1_ligand
   40    42     1     0     0
SMALL
NO_CHARGES


@<TRIPOS>ATOM
      1 PB         -7.9250   -4.8080   -5.1130 P.3       1 GDP1001     0.0000 
      2 O1B        -7.9920   -5.1800   -3.6660 O.co2     1 GDP1001     0.0000 
      3 O2B        -8.5390   -5.8890   -5.9790 O.co2     1 GDP1001     0.0000 
      4 O3B        -8.6180   -3.4770   -5.3440 O.co2     1 GDP1001     0.0000 
      5 O3A        -6.3660   -4.6240   -5.5240 O.3       1 GDP1001     0.0000 
      6 PA         -5.0530   -5.3040   -4.8450 P.3       1 GDP1001     0.0000 
      7 O1A        -4.7230   -4.5840   -3.5630 O.co2     1 GDP1001     0.0000 
      8 O2A        -5.2790   -6.7960   -4.7130 O.co2     1 GDP1001     0.0000 
      9 O5'        -3.9130   -5.0030   -5.9080 O.3       1 GDP1001     0.0000 
     10 C5'        -4.1440   -5.3510   -7.2890 C.3       1 GDP1001     0.0000 
     11 C4'        -2.8150   -5.3780   -8.0450 C.3       1 GDP1001     0.0000 
     12 O4'        -2.3270   -4.0370   -8.1400 O.3       1 GDP1001     0.0000 
     13 C3'        -1.7160   -6.2200   -7.3990 C.3       1 GDP1001     0.0000 
     14 O3'        -1.0060   -6.8230   -8.4890 O.3       1 GDP1001     0.0000 
     15 C2'        -0.8650   -5.1780   -6.6900 C.3       1 GDP1001     0.0000 
     16 O2'         0.5030   -5.5080   -6.5060 O.3       1 GDP1001     0.0000 
     17 C1'        -1.0160   -3.9590   -7.5960 C.3       1 GDP1001     0.0000 
     18 N9         -0.9430   -2.7230   -6.8070 N.pl3     1 GDP1001     0.0000 
     19 C8         -1.5960   -2.4220   -5.6630 C.2       1 GDP1001     0.0000 
     20 N7         -1.2640   -1.1870   -5.2290 N.2       1 GDP1001     0.0000 
     21 C5         -0.3900   -0.6880   -6.1250 C.2       1 GDP1001     0.0000 
     22 C6          0.3770    0.5620   -6.2800 C.2       1 GDP1001     0.0000 
     23 O6          0.2600    1.4860   -5.4450 O.2       1 GDP1001     0.0000 
     24 N1          1.1860    0.6590   -7.3500 N.am      1 GDP1001     0.0000 
     25 C2          1.3360   -0.3250   -8.2620 C.2       1 GDP1001     0.0000 
     26 N2          2.1630   -0.1250   -9.3050 N.pl3     1 GDP1001     0.0000 
     27 N3          0.6710   -1.5080   -8.1830 N.2       1 GDP1001     0.0000 
     28 C4         -0.1760   -1.7130   -7.1560 C.2       1 GDP1001     0.0000 
     29 H          -4.7972   -4.6239   -7.7809 H         1 GDP1001     0.0000 
     30 H          -4.6045   -6.3393   -7.3808 H         1 GDP1001     0.0000 
     31 H          -2.9973   -5.7666   -9.0452 H         1 GDP1001     0.0000 
     32 H          -2.1363   -6.8748   -6.7315 H         1 GDP1001     0.0000 
     33 H          -1.3712   -4.9241   -5.7635 H         1 GDP1001     0.0000 
     34 H          -0.2771   -3.9873   -8.3429 H         1 GDP1001     0.0000 
     35 H          -2.2268   -3.0207   -5.2088 H         1 GDP1001     0.0000 
     36 H           1.7394    1.5603   -7.4872 H         1 GDP1001     0.0000 
     37 H           2.6086    0.7692   -9.3480 H         1 GDP1001     0.0000 
     38 H           2.2581   -0.8884   -9.9439 H         1 GDP1001     0.0000 
     39 H          -0.0416   -6.6308   -8.3074 H         1 GDP1001     0.0000 
     40 H           0.5167   -6.1247   -5.7189 H         1 GDP1001     0.0000 
@<TRIPOS>BOND
     1    2    1 ar   
     2    3    1 ar   
     3    4    1 ar   
     4    5    1 1    
     5    6    5 1    
     6    7    6 ar   
     7    8    6 ar   
     8    9    6 1    
     9   10    9 1    
    10   11   10 1    
    11   29   10 1    
    12   30   10 1    
    13   12   11 1    
    14   13   11 1    
    15   31   11 1    
    16   17   12 1    
    17   14   13 1    
    18   15   13 1    
    19   32   13 1    
    20   39   14 1    
    21   16   15 1    
    22   17   15 1    
    23   33   15 1    
    24   40   16 1    
    25   18   17 1    
    26   34   17 1    
    27   19   18 1    
    28   28   18 1    
    29   20   19 2    
    30   35   19 1    
    31   21   20 1    
    32   22   21 1    
    33   28   21 2    
    34   23   22 2    
    35   24   22 am   
    36   25   24 1    
    37   36   24 1    
    38   26   25 1    
    39   27   25 2    
    40   37   26 1    
    41   38   26 1    
    42   28   27 1    
@<TRIPOS>SUBSTRUCTURE
     1 GDP1001     1 GROUP   
@<TRIPOS>SET

