#    Name: 2wvm_GDD_2_INTS_M
#    Modification time : Tue Mar 25 04:45:00 2014

@<TRIPOS>MOLECULE
2wvm_GDD_2_INTS_M
   76     0    12     0     0
SMALL
NO_CHARGES


@<TRIPOS>ATOM
      1 O          15.0885   -8.2015  -13.2450 O.2       1 ALC1        0.0000 
      2 O          16.5350   -7.4860  -13.7830 O.2       9 ALL1        0.0000 
      3 O          13.6420   -8.9170  -12.7070 O.2       5 ALP1        0.0000 
      4 O          17.9820   -7.5950  -13.3675 O.2       1 ALC1        0.0000 
      5 O          19.4290   -7.7040  -12.9520 O.2       5 ALP1        0.0000 
      6 O          18.6680   -6.5730  -13.5090 O.2       1 ALC1        0.0000 
      7 O          17.9070   -5.4420  -14.0660 O.2       9 ALL1        0.0000 
      8 N          20.5405   -3.9555  -14.5420 N.am      2 SEC2        0.0000 
      9 N          19.2330   -3.5320  -14.3560 N.am     10 SEL2        0.0000 
     10 N          21.8480   -4.3790  -14.7280 N.am      6 SEP2        0.0000 
     11 CA         13.5425   -5.9930  -16.4330 C.3       4 GLC5        0.0000 
     12 CA         13.5860   -3.9560  -16.3700 C.3      12 GLL5        0.0000 
     13 CA         13.4990   -8.0300  -16.4960 C.3       8 GLP5        0.0000 
     14 N          12.4500   -2.9305  -13.7520 N.am      2 SEC2        0.0000 
     15 N          11.9520   -2.5100  -15.1670 N.am     10 SEL2        0.0000 
     16 N          12.9480   -3.3510  -12.3370 N.am      6 SEP2        0.0000 
     17 O          11.0025   -1.4690  -15.1525 O.2       1 ALC1        0.0000 
     18 O          11.9520   -2.5100  -15.1670 O.2       9 ALL1        0.0000 
     19 O          10.0530   -0.4280  -15.1380 O.2       5 ALP1        0.0000 
     20 N           9.3885   -4.6135  -17.3460 N.am      2 SEC2        0.0000 
     21 N          10.6850   -4.0060  -16.9580 N.am     10 SEL2        0.0000 
     22 N           8.0920   -5.2210  -17.7340 N.am      6 SEP2        0.0000 
     23 O          10.8830   -5.1230  -16.2745 O.2       1 ALC1        0.0000 
     24 O          10.6850   -4.0060  -16.9580 O.2       9 ALL1        0.0000 
     25 O          11.0810   -6.2400  -15.5910 O.2       5 ALP1        0.0000 
     26 CA         12.6920   -5.8980  -18.0900 C.3       4 GLC5        0.0000 
     27 CA         12.6490   -3.8290  -18.4450 C.3      12 GLL5        0.0000 
     28 CA         12.7350   -7.9670  -17.7350 C.3       8 GLP5        0.0000 
     29 CA         13.6855   -5.2385  -19.6580 C.3       4 GLC5        0.0000 
     30 CA         14.7220   -6.6480  -20.8710 C.3       8 GLP5        0.0000 
     31 CA         14.7360   -4.3285  -19.8545 C.3       4 GLC5        0.0000 
     32 CA         13.5100   -2.8000  -19.1470 C.3      12 GLL5        0.0000 
     33 CA         15.9620   -5.8570  -20.5620 C.3       8 GLP5        0.0000 
     34 Zn         10.9980    0.3475  -20.5525 Zn        3 ZIC7        0.0000 
     35 Zn         11.7510    0.4920  -19.9190 Zn       11 ZIL7        0.0000 
     36 Zn         10.2450    0.2030  -21.1860 Zn        7 ZIP7        0.0000 
     37 Zn         11.0410    0.4690  -21.6215 Zn        3 ZIC7        0.0000 
     38 Zn         11.8370    0.7350  -22.0570 Zn       11 ZIL7        0.0000 
     39 N          15.4985    2.1275  -22.5720 N.am      2 SEC2        0.0000 
     40 N          14.2390    1.7450  -22.4530 N.am     10 SEL2        0.0000 
     41 N          16.7580    2.5100  -22.6910 N.am      6 SEP2        0.0000 
     42 CA         13.7135   -2.5095  -28.9285 C.3       4 GLC5        0.0000 
     43 CA         12.3870   -2.3160  -27.1970 C.3      12 GLL5        0.0000 
     44 CA         15.0400   -2.7030  -30.6600 C.3       8 GLP5        0.0000 
     45 N          11.6480   -4.3940  -26.9675 N.am      2 SEC2        0.0000 
     46 N          11.2150   -2.9690  -26.7090 N.am     10 SEL2        0.0000 
     47 N          12.0810   -5.8190  -27.2260 N.am      6 SEP2        0.0000 
     48 N          13.8325   -5.1380  -22.6805 N.am      2 SEC2        0.0000 
     49 N          13.4690   -3.9410  -23.1300 N.am     10 SEL2        0.0000 
     50 N          14.1960   -6.3350  -22.2310 N.am      6 SEP2        0.0000 
     51 O          12.1700   -3.8430  -22.5935 O.2       1 ALC1        0.0000 
     52 O          13.4690   -3.9410  -23.1300 O.2       9 ALL1        0.0000 
     53 O          10.8710   -3.7450  -22.0570 O.2       5 ALP1        0.0000 
     54 CA         16.4490   -1.2910  -24.9215 C.3       4 GLC5        0.0000 
     55 CA         15.0790   -2.7940  -24.4730 C.3      12 GLL5        0.0000 
     56 CA         17.8190    0.2120  -25.3700 C.3       8 GLP5        0.0000 
     57 O          15.6230   -5.2345  -25.1200 O.2       1 ALC1        0.0000 
     58 O          15.7290   -4.0700  -24.3360 O.2       9 ALL1        0.0000 
     59 O          15.5170   -6.3990  -25.9040 O.2       5 ALP1        0.0000 
     60 O          15.6945   -3.7780  -27.2215 O.2       1 ALC1        0.0000 
     61 O          15.4530   -2.4020  -26.7810 O.2       9 ALL1        0.0000 
     62 O          15.9360   -5.1540  -27.6620 O.2       5 ALP1        0.0000 
     63 CA         15.7042   -2.9910  -13.8703 C.3       4 GLC5        0.0000 
     64 CA         15.8120   -4.2970  -15.3970 C.3      12 GLL5        0.0000 
     65 CA         15.0070   -2.0390  -12.4290 C.3       8 GLP5        0.0000 
     66 CA         17.5583   -5.0520  -16.5898 C.3       4 GLC5        0.0000 
     67 CA         16.9910   -3.5890  -15.2260 C.3      12 GLL5        0.0000 
     68 CA         18.7150   -6.1610  -17.8680 C.3       8 GLP5        0.0000 
     69 CA         12.4835   -4.3505  -14.7590 C.3       4 GLC5        0.0000 
     70 CA         11.8490   -5.3490  -13.1370 C.3       8 GLP5        0.0000 
     71 CA         10.6642   -4.0895  -19.3792 C.3       4 GLC5        0.0000 
     72 CA         11.6980   -3.1250  -17.4880 C.3      12 GLL5        0.0000 
     73 CA          9.1550   -4.7020  -20.7920 C.3       8 GLP5        0.0000 
     74 CA         12.8275   -4.2604  -26.0086 C.3       4 GLC5        0.0000 
     75 CA         13.2090   -1.8630  -26.0000 C.3      12 GLL5        0.0000 
     76 CA         12.0420   -6.0860  -25.7920 C.3       8 GLP5        0.0000 
@<TRIPOS>BOND
@<TRIPOS>SUBSTRUCTURE
     1 ALC1        1 GROUP        1 X    ALC  0     ROOT ALC X 1
     2 SEC2        8 GROUP        1 X    SEC  0     **** SEC X 2
     3 ZIC7       34 GROUP        1 X    ZIC  0     **** ZIC X 5
     4 GLC5       11 GROUP        1 X    GLC  0     **** GLC X 6
     5 ALP1        3 GROUP        1 Y    ALP  0     ROOT ALP Y 8
     6 SEP2       10 GROUP        1 Y    SEP  0     **** SEP Y 9
     7 ZIP7       36 GROUP        1 Y    ZIP  0     **** ZIP Y 12
     8 GLP5       13 GROUP        1 Y    GLP  0     **** GLP Y 13
     9 ALL1        2 GROUP        1 Z    ALL  0     ROOT ALL Z 15
    10 SEL2        9 GROUP        1 Z    SEL  0     **** SEL Z 16
    11 ZIL7       35 GROUP        1 Z    ZIL  0     **** ZIL Z 19
    12 GLL5       12 GROUP        1 Z    GLL  0     **** GLL Z 20
@<TRIPOS>SET

