#    Name: 2wvm_GDD_2_ligand
#    Modification time : Tue Mar 25 04:45:00 2014

@<TRIPOS>MOLECULE
2wvm_GDD_2_ligand
   62    65     1     0     0
SMALL
NO_CHARGES


@<TRIPOS>ATOM
      1 N2         16.5350   -7.4860  -13.7830 N.pl3     1 GDD400      0.0000 
      2 C2         16.7320   -6.1080  -14.2690 C.2       1 GDD400      0.0000 
      3 N1         17.9070   -5.4420  -14.0660 N.am      1 GDD400      0.0000 
      4 N3         15.6890   -5.5540  -14.9140 N.2       1 GDD400      0.0000 
      5 C4         15.8120   -4.2970  -15.3970 C.2       1 GDD400      0.0000 
      6 C5         16.9910   -3.5890  -15.2260 C.2       1 GDD400      0.0000 
      7 C6         18.0550   -4.1880  -14.5440 C.2       1 GDD400      0.0000 
      8 O6         19.2330   -3.5320  -14.3560 O.2       1 GDD400      0.0000 
      9 N7         16.7930   -2.3790  -15.7920 N.2       1 GDD400      0.0000 
     10 C8         15.5420   -2.3470  -16.3020 C.2       1 GDD400      0.0000 
     11 N9         14.9620   -3.5300  -16.0650 N.pl3     1 GDD400      0.0000 
     12 C1'        13.5860   -3.9560  -16.3700 C.3       1 GDD400      0.0000 
     13 C2'        12.6500   -2.7480  -16.3920 C.3       1 GDD400      0.0000 
     14 O2'        11.9520   -2.5100  -15.1670 O.3       1 GDD400      0.0000 
     15 C3'        11.6980   -3.1250  -17.4880 C.3       1 GDD400      0.0000 
     16 O3'        10.6850   -4.0060  -16.9580 O.3       1 GDD400      0.0000 
     17 C4'        12.6490   -3.8290  -18.4450 C.3       1 GDD400      0.0000 
     18 O4'        13.5350   -4.5800  -17.6440 O.3       1 GDD400      0.0000 
     19 C5'        13.5100   -2.8000  -19.1470 C.3       1 GDD400      0.0000 
     20 O5'        12.5960   -1.8170  -19.5860 O.3       1 GDD400      0.0000 
     21 PA         13.0500   -0.2990  -19.7060 P.3       1 GDD400      0.0000 
     22 O1A        11.7510    0.4920  -19.9190 O.co2     1 GDD400      0.0000 
     23 O2A        14.0780   -0.0350  -18.6560 O.co2     1 GDD400      0.0000 
     24 O3A        13.8880   -0.3140  -21.0520 O.3       1 GDD400      0.0000 
     25 PB         13.3320    0.5710  -22.2590 P.3       1 GDD400      0.0000 
     26 O2B        11.8370    0.7350  -22.0570 O.co2     1 GDD400      0.0000 
     27 O3B        14.2390    1.7450  -22.4530 O.co2     1 GDD400      0.0000 
     28 O1B        13.6200   -0.3840  -23.5150 O.3       1 GDD400      0.0000 
     29 C11        12.9920   -1.6460  -23.5750 C.3       1 GDD400      0.0000 
     30 O51        12.3570   -1.8510  -24.8430 O.3       1 GDD400      0.0000 
     31 C51        13.2090   -1.8630  -26.0000 C.3       1 GDD400      0.0000 
     32 C61        12.3870   -2.3160  -27.1970 C.3       1 GDD400      0.0000 
     33 O6A        11.2150   -2.9690  -26.7090 O.3       1 GDD400      0.0000 
     34 C21        14.0830   -2.6730  -23.3280 C.3       1 GDD400      0.0000 
     35 O21        13.4690   -3.9410  -23.1300 O.3       1 GDD400      0.0000 
     36 C31        15.0790   -2.7940  -24.4730 C.3       1 GDD400      0.0000 
     37 O31        15.7290   -4.0700  -24.3360 O.3       1 GDD400      0.0000 
     38 C41        14.4280   -2.7800  -25.8520 C.3       1 GDD400      0.0000 
     39 O41        15.4530   -2.4020  -26.7810 O.3       1 GDD400      0.0000 
     40 H          15.6670   -7.9186  -14.0267 H         1 GDD400      0.0000 
     41 H          17.2854   -7.8758  -13.2493 H         1 GDD400      0.0000 
     42 H          18.6769   -5.9030  -13.5468 H         1 GDD400      0.0000 
     43 H          15.1415   -1.5952  -16.7584 H         1 GDD400      0.0000 
     44 H          13.2320   -4.6254  -15.5987 H         1 GDD400      0.0000 
     45 H          13.2176   -1.9052  -16.7339 H         1 GDD400      0.0000 
     46 H          11.3340   -2.2578  -17.9381 H         1 GDD400      0.0000 
     47 H          12.1245   -4.3999  -19.1308 H         1 GDD400      0.0000 
     48 H          14.0186   -3.2852  -19.9649 H         1 GDD400      0.0000 
     49 H          14.2225   -2.4128  -18.4360 H         1 GDD400      0.0000 
     50 H          12.2765   -1.7463  -22.7630 H         1 GDD400      0.0000 
     51 H          13.5700   -0.8595  -26.2242 H         1 GDD400      0.0000 
     52 H          13.0041   -2.9847  -27.7974 H         1 GDD400      0.0000 
     53 H          12.1432   -1.4359  -27.7924 H         1 GDD400      0.0000 
     54 H          14.6286   -2.3827  -22.4329 H         1 GDD400      0.0000 
     55 H          15.7935   -2.0042  -24.4106 H         1 GDD400      0.0000 
     56 H          14.1121   -3.8079  -26.0756 H         1 GDD400      0.0000 
     57 H          11.3099   -1.7719  -15.3743 H         1 GDD400      0.0000 
     58 H          11.1912   -4.7300  -16.4895 H         1 GDD400      0.0000 
     59 H          11.1501   -2.7000  -25.7480 H         1 GDD400      0.0000 
     60 H          12.5590   -3.7345  -22.7704 H         1 GDD400      0.0000 
     61 H          15.3713   -4.6245  -25.0874 H         1 GDD400      0.0000 
     62 H          15.7332   -3.2563  -27.2187 H         1 GDD400      0.0000 
@<TRIPOS>BOND
     1    2    1 1    
     2   40    1 1    
     3   41    1 1    
     4    3    2 1    
     5    4    2 2    
     6    7    3 am   
     7   42    3 1    
     8    5    4 1    
     9    6    5 2    
    10   11    5 1    
    11    7    6 1    
    12    9    6 1    
    13    8    7 2    
    14   10    9 2    
    15   11   10 1    
    16   43   10 1    
    17   12   11 1    
    18   13   12 1    
    19   18   12 1    
    20   44   12 1    
    21   14   13 1    
    22   15   13 1    
    23   45   13 1    
    24   57   14 1    
    25   16   15 1    
    26   17   15 1    
    27   46   15 1    
    28   58   16 1    
    29   18   17 1    
    30   19   17 1    
    31   47   17 1    
    32   20   19 1    
    33   48   19 1    
    34   49   19 1    
    35   21   20 1    
    36   22   21 ar   
    37   23   21 ar   
    38   24   21 1    
    39   25   24 1    
    40   26   25 ar   
    41   27   25 ar   
    42   28   25 1    
    43   29   28 1    
    44   30   29 1    
    45   34   29 1    
    46   50   29 1    
    47   31   30 1    
    48   32   31 1    
    49   38   31 1    
    50   51   31 1    
    51   33   32 1    
    52   52   32 1    
    53   53   32 1    
    54   59   33 1    
    55   35   34 1    
    56   36   34 1    
    57   54   34 1    
    58   60   35 1    
    59   37   36 1    
    60   38   36 1    
    61   55   36 1    
    62   61   37 1    
    63   39   38 1    
    64   56   38 1    
    65   62   39 1    
@<TRIPOS>SUBSTRUCTURE
     1 GDD400      1 GROUP   
@<TRIPOS>SET

