#    Name: 1bid_UMP_1_INTS_M
#    Modification time : Mon Mar 24 19:35:29 2014

@<TRIPOS>MOLECULE
1bid_UMP_1_INTS_M
   45     0    12     0     0
SMALL
NO_CHARGES


@<TRIPOS>ATOM
      1 O         -27.0700   -5.6570   19.8595 O.2       1 ALC1        0.0000 
      2 O         -28.0480   -6.7810   20.0290 O.2       9 ALL1        0.0000 
      3 O         -26.0920   -4.5330   19.6900 O.2       5 ALP1        0.0000 
      4 N         -25.3235   -9.0630   20.8950 N.am      2 SEC2        0.0000 
      5 N         -26.3400   -8.2780   20.3190 N.am     10 SEL2        0.0000 
      6 N         -24.3070   -9.8480   21.4710 N.am      6 SEP2        0.0000 
      7 N         -28.7945   -4.2515   19.4275 N.am      2 SEC2        0.0000 
      8 N         -29.7510   -5.2410   19.7780 N.am     10 SEL2        0.0000 
      9 N         -27.8380   -3.2620   19.0770 N.am      6 SEP2        0.0000 
     10 CA        -26.3995   -9.7240   22.7505 C.3       4 GLC5        0.0000 
     11 CA        -28.0000  -10.7890   21.9800 C.3      12 GLL5        0.0000 
     12 CA        -24.7990   -8.6590   23.5210 C.3       8 GLP5        0.0000 
     13 N         -26.9080  -14.3505   21.2255 N.am      2 SEC2        0.0000 
     14 N         -26.9690  -12.8550   21.3600 N.am     10 SEL2        0.0000 
     15 N         -26.8470  -15.8460   21.0910 N.am      6 SEP2        0.0000 
     16 O         -25.9270  -13.0765   22.3040 O.2       1 ALC1        0.0000 
     17 O         -26.9690  -12.8550   21.3600 O.2       9 ALL1        0.0000 
     18 O         -24.8850  -13.2980   23.2480 O.2       5 ALP1        0.0000 
     19 CA        -30.8805  -10.3270   22.4575 C.3       4 GLC5        0.0000 
     20 CA        -30.6580  -12.3990   22.0160 C.3      12 GLL5        0.0000 
     21 CA        -31.1030   -8.2550   22.8990 C.3       8 GLP5        0.0000 
     22 NZ        -31.2700  -11.3930   26.0500 N.4       3 LYC4        0.0000 
     23 NZ        -30.7200  -12.2190   25.1010 N.4      11 LYL4        0.0000 
     24 NZ        -32.6820   -9.6820   26.5270 N.4       7 LYP4        0.0000 
     25 N         -31.2700  -11.3930   26.0500 N.am      2 SEC2        0.0000 
     26 N         -30.7200  -12.2190   25.1010 N.am     10 SEL2        0.0000 
     27 N         -31.8200  -10.5670   26.9990 N.am      6 SEP2        0.0000 
     28 N         -29.3390  -11.7100   25.1145 N.am      2 SEC2        0.0000 
     29 N         -27.9580  -11.2010   25.1280 N.am      6 SEP2        0.0000 
     30 NZ        -33.1850  -11.4885   25.0220 N.4       3 LYC4        0.0000 
     31 NZ        -32.9700  -12.9990   24.5930 N.4      11 LYL4        0.0000 
     32 N         -33.1850  -11.4885   25.0220 N.am      2 SEC2        0.0000 
     33 N         -32.9700  -12.9990   24.5930 N.am     10 SEL2        0.0000 
     34 N         -33.4000   -9.9780   25.4510 N.am      6 SEP2        0.0000 
     35 NZ        -31.8715  -15.2180   23.4945 N.4       3 LYC4        0.0000 
     36 NZ        -31.2890  -14.5290   25.2030 N.4      11 LYL4        0.0000 
     37 NZ        -32.4540  -15.9070   21.7860 N.4       7 LYP4        0.0000 
     38 CA        -30.5930   -8.2212   21.4352 C.3       4 GLC5        0.0000 
     39 CA        -29.8420   -8.8370   20.0620 C.3      12 GLL5        0.0000 
     40 CA        -29.6088   -9.4488   22.0685 C.3       4 GLC5        0.0000 
     41 CA        -28.2290  -10.4960   20.4960 C.3      12 GLL5        0.0000 
     42 CA        -26.2948  -10.8982   20.3320 C.3       4 GLC5        0.0000 
     43 CA        -24.4750  -11.1540   19.4260 C.3       8 GLP5        0.0000 
     44 CA        -28.2725  -10.8275   23.9285 C.3       4 GLC5        0.0000 
     45 CA        -28.4810  -10.1090   25.8530 C.3       8 GLP5        0.0000 
@<TRIPOS>BOND
@<TRIPOS>SUBSTRUCTURE
     1 ALC1        1 GROUP        1 X    ALC  0     ROOT ALC X 1
     2 SEC2        4 GROUP        1 X    SEC  0     **** SEC X 2
     3 LYC4       22 GROUP        1 X    LYC  0     **** LYC X 4
     4 GLC5       10 GROUP        1 X    GLC  0     **** GLC X 6
     5 ALP1        3 GROUP        1 Y    ALP  0     ROOT ALP Y 8
     6 SEP2        6 GROUP        1 Y    SEP  0     **** SEP Y 9
     7 LYP4       24 GROUP        1 Y    LYP  0     **** LYP Y 11
     8 GLP5       12 GROUP        1 Y    GLP  0     **** GLP Y 13
     9 ALL1        2 GROUP        1 Z    ALL  0     ROOT ALL Z 15
    10 SEL2        5 GROUP        1 Z    SEL  0     **** SEL Z 16
    11 LYL4       23 GROUP        1 Z    LYL  0     **** LYL Z 18
    12 GLL5       11 GROUP        1 Z    GLL  0     **** GLL Z 20
@<TRIPOS>SET

