#    Name: 1bid_UMP_1_ligand
#    Modification time : Mon Mar 24 19:35:29 2014

@<TRIPOS>MOLECULE
1bid_UMP_1_ligand
   31    32     1     0     0
SMALL
NO_CHARGES


@<TRIPOS>ATOM
      1 N1        -28.5430   -9.0780   20.2240 N.am      1 UMP603      0.0000 
      2 C2        -27.5510   -8.0770   20.2090 C.2       1 UMP603      0.0000 
      3 N3        -28.0480   -6.7810   20.0290 N.am      1 UMP603      0.0000 
      4 C4        -29.3980   -6.4200   19.8690 C.2       1 UMP603      0.0000 
      5 C5        -30.3240   -7.5380   19.8810 C.2       1 UMP603      0.0000 
      6 C6        -29.8420   -8.8370   20.0620 C.2       1 UMP603      0.0000 
      7 O2        -26.3400   -8.2780   20.3190 O.2       1 UMP603      0.0000 
      8 O4        -29.7510   -5.2410   19.7780 O.2       1 UMP603      0.0000 
      9 C1'       -28.2290  -10.4960   20.4960 C.3       1 UMP603      0.0000 
     10 C2'       -28.0000  -10.7890   21.9800 C.3       1 UMP603      0.0000 
     11 C3'       -28.1280  -12.3030   22.0280 C.3       1 UMP603      0.0000 
     12 C4'       -29.3790  -12.6450   21.2020 C.3       1 UMP603      0.0000 
     13 O3'       -26.9690  -12.8550   21.3600 O.3       1 UMP603      0.0000 
     14 O4'       -29.2530  -11.5700   20.1410 O.3       1 UMP603      0.0000 
     15 C5'       -30.6580  -12.3990   22.0160 C.3       1 UMP603      0.0000 
     16 O5'       -30.8250  -13.4300   23.0600 O.3       1 UMP603      0.0000 
     17 P         -31.5200  -13.2730   24.4800 P.3       1 UMP603      0.0000 
     18 OP1       -30.7200  -12.2190   25.1010 O.co2     1 UMP603      0.0000 
     19 OP2       -32.9700  -12.9990   24.5930 O.co2     1 UMP603      0.0000 
     20 OP3       -31.2890  -14.5290   25.2030 O.co2     1 UMP603      0.0000 
     21 H         -27.3332   -5.9852   20.0110 H         1 UMP603      0.0000 
     22 H         -31.3147   -7.3513   19.7562 H         1 UMP603      0.0000 
     23 H         -30.5402   -9.6172   20.0659 H         1 UMP603      0.0000 
     24 H         -27.2838  -10.7969   20.0036 H         1 UMP603      0.0000 
     25 H         -28.7637  -10.3419   22.5531 H         1 UMP603      0.0000 
     26 H         -27.0242  -10.4985   22.2538 H         1 UMP603      0.0000 
     27 H         -28.2436  -12.6254   23.0021 H         1 UMP603      0.0000 
     28 H         -29.3090  -13.5677   20.8003 H         1 UMP603      0.0000 
     29 H         -31.5086  -12.4066   21.3278 H         1 UMP603      0.0000 
     30 H         -30.5919  -11.4035   22.4651 H         1 UMP603      0.0000 
     31 H         -26.3043  -13.0195   22.0888 H         1 UMP603      0.0000 
@<TRIPOS>BOND
     1    2    1 1    
     2    6    1 1    
     3    9    1 1    
     4    3    2 1    
     5    7    2 2    
     6    4    3 1    
     7   21    3 1    
     8    5    4 1    
     9    8    4 2    
    10    6    5 2    
    11   22    5 1    
    12   23    6 1    
    13   10    9 1    
    14   14    9 1    
    15   24    9 1    
    16   11   10 1    
    17   25   10 1    
    18   26   10 1    
    19   12   11 1    
    20   13   11 1    
    21   27   11 1    
    22   14   12 1    
    23   15   12 1    
    24   28   12 1    
    25   31   13 1    
    26   16   15 1    
    27   29   15 1    
    28   30   15 1    
    29   17   16 1    
    30   18   17 ar   
    31   19   17 ar   
    32   20   17 ar   
@<TRIPOS>SUBSTRUCTURE
     1 UMP603      1 GROUP   
@<TRIPOS>SET

