#    Name: 3o9i_A61_1_INTS_M
#    Modification time : Tue Mar 25 03:26:07 2014

@<TRIPOS>MOLECULE
3o9i_A61_1_INTS_M
   98     0     9     0     0
SMALL
NO_CHARGES


@<TRIPOS>ATOM
      1 N          14.4345   34.6300   19.9590 N.am      2 SEC2        0.0000 
      2 N          14.9080   35.2650   18.5990 N.am      8 SEL2        0.0000 
      3 N          13.9610   33.9950   21.3190 N.am      5 SEP2        0.0000 
      4 CA         16.3415   32.8850   18.9360 C.3       3 GLC5        0.0000 
      5 CA         15.5210   34.4370   17.7000 C.3       9 GLL5        0.0000 
      6 CA         17.1620   31.3330   20.1720 C.3       6 GLP5        0.0000 
      7 CA         13.8035   34.8295   19.0120 C.3       3 GLC5        0.0000 
      8 CA         12.0860   35.2220   20.3240 C.3       6 GLP5        0.0000 
      9 CA         14.2605   35.0305   16.0010 C.3       3 GLC5        0.0000 
     10 CA         13.0000   35.6240   14.3020 C.3       6 GLP5        0.0000 
     11 CA         15.2130   30.7320   15.4540 C.3       3 GLC5        0.0000 
     12 CA         16.0430   32.3860   16.4880 C.3       9 GLL5        0.0000 
     13 CA         14.3830   29.0780   14.4200 C.3       6 GLP5        0.0000 
     14 CA         22.9030   34.3460   14.2170 C.3       3 GLC5        0.0000 
     15 CA         22.0330   32.4620   14.8690 C.3       9 GLL5        0.0000 
     16 CA         23.7730   36.2300   13.5650 C.3       6 GLP5        0.0000 
     17 CA         21.1575   33.8470   13.5590 C.3       3 GLC5        0.0000 
     18 CA         20.2820   35.2320   12.2490 C.3       6 GLP5        0.0000 
     19 CA         22.8565   32.7600   18.9925 C.3       3 GLC5        0.0000 
     20 CA         22.0940   33.3740   17.2590 C.3       9 GLL5        0.0000 
     21 CA         23.6190   32.1460   20.7260 C.3       6 GLP5        0.0000 
     22 CA         17.4830   30.3825   17.9145 C.3       3 GLC5        0.0000 
     23 CA         18.9220   30.2750   16.2580 C.3       9 GLL5        0.0000 
     24 CA         16.0440   30.4900   19.5710 C.3       6 GLP5        0.0000 
     25 CA         22.8760   35.5315   15.2125 C.3       3 GLC5        0.0000 
     26 CA         21.9790   34.8330   16.8600 C.3       9 GLL5        0.0000 
     27 N          19.3165   27.6285   17.8845 N.am      2 SEC2        0.0000 
     28 N          19.8310   28.0670   16.5910 N.am      8 SEL2        0.0000 
     29 N          18.8020   27.1900   19.1780 N.am      5 SEP2        0.0000 
     30 O          20.7195   27.7560   17.5195 O.2       1 ALC1        0.0000 
     31 O          19.8310   28.0670   16.5910 O.2       7 ALL1        0.0000 
     32 O          21.6080   27.4450   18.4480 O.2       4 ALP1        0.0000 
     33 O          21.3920   28.4445   16.9700 O.2       1 ALC1        0.0000 
     34 O          22.9530   28.8220   17.3490 O.2       4 ALP1        0.0000 
     35 CA         24.1700   33.7915   13.7910 C.3       3 GLC5        0.0000 
     36 CA         23.4810   32.0150   14.8060 C.3       9 GLL5        0.0000 
     37 CA         24.8590   35.5680   12.7760 C.3       6 GLP5        0.0000 
     38 CA         24.6820   30.5625   14.8555 C.3       3 GLC5        0.0000 
     39 CA         25.8830   29.1100   14.9050 C.3       6 GLP5        0.0000 
     40 CA         24.2725   31.4715   12.9920 C.3       3 GLC5        0.0000 
     41 CA         25.0640   30.9280   11.1780 C.3       6 GLP5        0.0000 
     42 O          20.3620   26.4510   14.2815 O.2       1 ALC1        0.0000 
     43 O          20.5950   27.9280   13.7770 O.2       7 ALL1        0.0000 
     44 O          20.1290   24.9740   14.7860 O.2       4 ALP1        0.0000 
     45 CA         26.1835   25.3945   11.7285 C.3       3 GLC5        0.0000 
     46 CA         24.5720   26.8190   11.9320 C.3       9 GLL5        0.0000 
     47 CA         27.7950   23.9700   11.5250 C.3       6 GLP5        0.0000 
     48 CA         26.4475   27.5930   11.9380 C.3       3 GLC5        0.0000 
     49 CA         28.3230   28.3670   11.9440 C.3       6 GLP5        0.0000 
     50 CA         25.7695   27.5890   10.2425 C.3       3 GLC5        0.0000 
     51 CA         26.9670   28.3590    8.5530 C.3       6 GLP5        0.0000 
     52 CA         25.2275   27.9645   13.4185 C.3       3 GLC5        0.0000 
     53 N          25.2450   24.2990   12.4710 N.am      2 SEC2        0.0000 
     54 N          24.3840   25.4160   11.8230 N.am      8 SEL2        0.0000 
     55 N          26.1060   23.1820   13.1190 N.am      5 SEP2        0.0000 
     56 CA         23.1980   25.0140   12.9540 C.3       3 GLC5        0.0000 
     57 CA         23.4930   25.1260   10.7590 C.3       9 GLL5        0.0000 
     58 CA         22.9030   24.9020   15.1490 C.3       6 GLP5        0.0000 
     59 CA         23.6970   23.2480   11.3325 C.3       3 GLC5        0.0000 
     60 CA         23.9010   21.3700   11.9060 C.3       6 GLP5        0.0000 
     61 N          22.9890   23.6185   12.4430 N.am      2 SEC2        0.0000 
     62 N          22.5000   24.2140   11.1870 N.am      8 SEL2        0.0000 
     63 N          23.4780   23.0230   13.6990 N.am      5 SEP2        0.0000 
     64 CA         22.0565   24.8625   13.1885 C.3       3 GLC5        0.0000 
     65 CA         21.2100   24.8230   11.2280 C.3       9 GLL5        0.0000 
     66 CA         22.5555   23.0965   11.5670 C.3       3 GLC5        0.0000 
     67 CA         17.0820   25.0855   13.6380 C.3       3 GLC5        0.0000 
     68 CA         18.0390   26.1960   12.3640 C.3       9 GLL5        0.0000 
     69 CA         16.1250   23.9750   14.9120 C.3       6 GLP5        0.0000 
     70 CA         15.3242   36.9393   15.8828 C.3       3 GLC5        0.0000 
     71 CA         16.4610   35.1460   16.9520 C.3       9 GLL5        0.0000 
     72 CA         14.1280   37.9010   14.6310 C.3       6 GLP5        0.0000 
     73 CA         15.5675   32.6812   14.2342 C.3       3 GLC5        0.0000 
     74 CA         14.6060   32.6430   12.3560 C.3       6 GLP5        0.0000 
     75 CA         15.8623   31.6130   18.2692 C.3       3 GLC5        0.0000 
     76 CA         13.8386   32.8799   16.5229 C.3       3 GLC5        0.0000 
     77 CA         11.9460   32.6860   16.0150 C.3       6 GLP5        0.0000 
     78 CA         23.8432   34.3317   17.6363 C.3       3 GLC5        0.0000 
     79 CA         25.6500   34.5600   18.2130 C.3       6 GLP5        0.0000 
     80 CA         23.9453   26.5038   13.6237 C.3       3 GLC5        0.0000 
     81 CA         23.2490   27.4100   11.4690 C.3       9 GLL5        0.0000 
     82 CA         23.9800   25.8930   15.5470 C.3       6 GLP5        0.0000 
     83 CA         24.4872   29.0213   11.4392 C.3       3 GLC5        0.0000 
     84 CA         16.1062   26.0155   11.8900 C.3       3 GLC5        0.0000 
     85 CA         14.2750   26.0250   12.0790 C.3       6 GLP5        0.0000 
     86 CA         16.0950   27.7342    9.0137 C.3       3 GLC5        0.0000 
     87 CA         17.4940   26.7750   10.0950 C.3       9 GLL5        0.0000 
     88 CA         14.7540   28.0260    7.7500 C.3       6 GLP5        0.0000 
     89 CA         15.8555   26.7338   11.1783 C.3       3 GLC5        0.0000 
     90 CA         17.3780   28.1100   10.4600 C.3       9 GLL5        0.0000 
     91 CA         18.8963   29.2320    9.8777 C.3       3 GLC5        0.0000 
     92 CA         20.3050   30.1600    8.6390 C.3       6 GLP5        0.0000 
     93 CA         17.2718   30.0965   10.2718 C.3       3 GLC5        0.0000 
     94 CA         17.0560   31.8890    9.4270 C.3       6 GLP5        0.0000 
     95 CA         16.0245   27.0222   12.1648 C.3       3 GLC5        0.0000 
     96 CA         17.5970   28.4980   11.7730 C.3       9 GLL5        0.0000 
     97 CA         16.1106   28.5988   13.5155 C.3       3 GLC5        0.0000 
     98 CA         17.9510   27.5410   12.7280 C.3       9 GLL5        0.0000 
@<TRIPOS>BOND
@<TRIPOS>SUBSTRUCTURE
     1 ALC1       30 GROUP        1 X    ALC  0     ROOT ALC X 1
     2 SEC2        1 GROUP        1 X    SEC  0     **** SEC X 2
     3 GLC5        4 GROUP        1 X    GLC  0     **** GLC X 6
     4 ALP1       32 GROUP        1 Y    ALP  0     ROOT ALP Y 8
     5 SEP2        3 GROUP        1 Y    SEP  0     **** SEP Y 9
     6 GLP5        6 GROUP        1 Y    GLP  0     **** GLP Y 13
     7 ALL1       31 GROUP        1 Z    ALL  0     ROOT ALL Z 15
     8 SEL2        2 GROUP        1 Z    SEL  0     **** SEL Z 16
     9 GLL5        5 GROUP        1 Z    GLL  0     **** GLL Z 20
@<TRIPOS>SET

