#    Name: 3o9i_A61_1_ligand
#    Modification time : Tue Mar 25 03:26:07 2014

@<TRIPOS>MOLECULE
3o9i_A61_1_ligand
   81    85     1     0     0
SMALL
NO_CHARGES


@<TRIPOS>ATOM
      1 C1         15.3520   36.5310   18.5170 C.2       1 A61200      0.0000 
      2 N1         14.9080   35.2650   18.5990 N.2       1 A61200      0.0000 
      3 S1         16.5800   36.8090   17.3170 S.3       1 A61200      0.0000 
      4 C2         15.5210   34.4370   17.7000 C.ar      1 A61200      0.0000 
      5 C3         16.4610   35.1460   16.9520 C.ar      1 A61200      0.0000 
      6 C4         17.1930   34.4420   15.9750 C.ar      1 A61200      0.0000 
      7 C5         17.0150   33.0530   15.7370 C.ar      1 A61200      0.0000 
      8 C6         16.0430   32.3860   16.4880 C.ar      1 A61200      0.0000 
      9 C7         15.3180   33.0860   17.4470 C.ar      1 A61200      0.0000 
     10 S8         17.9260   32.1540   14.7010 S.o2      1 A61200      0.0000 
     11 O9         18.4850   33.0220   13.7250 O.2       1 A61200      0.0000 
     12 O10        17.1830   31.0640   14.1980 O.2       1 A61200      0.0000 
     13 N11        19.1700   31.5540   15.5690 N.pl3     1 A61200      0.0000 
     14 C12        19.9270   32.5650   16.3450 C.3       1 A61200      0.0000 
     15 C13        21.4440   32.3750   16.2810 C.3       1 A61200      0.0000 
     16 C14        22.0330   32.4620   14.8690 C.3       1 A61200      0.0000 
     17 C15        22.0940   33.3740   17.2590 C.3       1 A61200      0.0000 
     18 C16        18.9220   30.2750   16.2580 C.3       1 A61200      0.0000 
     19 C17        19.8650   29.2000   15.7010 C.3       1 A61200      0.0000 
     20 C18        21.9790   34.8330   16.8600 C.3       1 A61200      0.0000 
     21 O18        19.8310   28.0670   16.5910 O.3       1 A61200      0.0000 
     22 C19        19.5080   28.7470   14.2770 C.3       1 A61200      0.0000 
     23 C20        23.4810   32.0150   14.8060 C.3       1 A61200      0.0000 
     24 N20        20.5950   27.9280   13.7770 N.am      1 A61200      0.0000 
     25 C21        21.4730   28.2990   12.8690 C.2       1 A61200      0.0000 
     26 O22        21.6050   29.3650   12.3130 O.2       1 A61200      0.0000 
     27 O23        22.3820   27.2420   12.5840 O.3       1 A61200      0.0000 
     28 C24        23.2490   27.4100   11.4690 C.3       1 A61200      0.0000 
     29 C25        24.5720   26.8190   11.9320 C.3       1 A61200      0.0000 
     30 O26        24.3840   25.4160   11.8230 O.3       1 A61200      0.0000 
     31 C27        23.4930   25.1260   10.7590 C.3       1 A61200      0.0000 
     32 O28        22.5000   24.2140   11.1870 O.3       1 A61200      0.0000 
     33 C29        21.2100   24.8230   11.2280 C.3       1 A61200      0.0000 
     34 C30        21.3300   26.0860   10.3880 C.3       1 A61200      0.0000 
     35 C31        22.8110   26.4320   10.4000 C.3       1 A61200      0.0000 
     36 C32        18.2080   27.9410   14.1700 C.3       1 A61200      0.0000 
     37 C33        18.0390   26.1960   12.3640 C.ar      1 A61200      0.0000 
     38 C34        17.8360   25.8160   11.0380 C.ar      1 A61200      0.0000 
     39 C35        17.4940   26.7750   10.0950 C.ar      1 A61200      0.0000 
     40 C36        17.3780   28.1100   10.4600 C.ar      1 A61200      0.0000 
     41 C37        17.5970   28.4980   11.7730 C.ar      1 A61200      0.0000 
     42 C38        17.9510   27.5410   12.7280 C.ar      1 A61200      0.0000 
     43 H          15.1372   37.3381   18.9853 H         1 A61200      0.0000 
     44 H          17.8924   34.9556   15.4031 H         1 A61200      0.0000 
     45 H          15.8681   31.3897   16.3313 H         1 A61200      0.0000 
     46 H          14.5911   32.5741   17.9993 H         1 A61200      0.0000 
     47 H          19.6204   32.5358   17.4067 H         1 A61200      0.0000 
     48 H          19.6909   33.5803   15.9770 H         1 A61200      0.0000 
     49 H          21.6599   31.3650   16.6829 H         1 A61200      0.0000 
     50 H          21.9563   33.4997   14.5176 H         1 A61200      0.0000 
     51 H          21.4296   31.8387   14.1956 H         1 A61200      0.0000 
     52 H          23.1634   33.1083   17.3671 H         1 A61200      0.0000 
     53 H          21.6359   33.2312   18.2568 H         1 A61200      0.0000 
     54 H          17.8960   29.9448   16.1029 H         1 A61200      0.0000 
     55 H          19.1042   30.3701   17.3274 H         1 A61200      0.0000 
     56 H          20.8708   29.6179   15.6809 H         1 A61200      0.0000 
     57 H          19.4132   29.6326   13.6531 H         1 A61200      0.0000 
     58 H          20.6429   26.9522   14.2138 H         1 A61200      0.0000 
     59 H          23.3640   28.3371   11.1204 H         1 A61200      0.0000 
     60 H          24.7446   27.1325   12.9466 H         1 A61200      0.0000 
     61 H          25.3489   27.1809   11.2816 H         1 A61200      0.0000 
     62 H          24.0116   24.7809    9.8955 H         1 A61200      0.0000 
     63 H          20.9264   25.1085   12.2300 H         1 A61200      0.0000 
     64 H          20.4494   24.1951   10.7885 H         1 A61200      0.0000 
     65 H          20.7708   26.8746   10.8396 H         1 A61200      0.0000 
     66 H          21.0134   25.8866    9.3888 H         1 A61200      0.0000 
     67 H          23.1395   26.7244    9.4485 H         1 A61200      0.0000 
     68 H          17.3830   28.5493   14.5328 H         1 A61200      0.0000 
     69 H          18.2919   27.0495   14.7868 H         1 A61200      0.0000 
     70 H          18.2537   25.4860   13.0748 H         1 A61200      0.0000 
     71 H          17.9394   24.8334   10.7642 H         1 A61200      0.0000 
     72 H          17.3247   26.4949    9.1163 H         1 A61200      0.0000 
     73 H          17.1277   28.8153    9.7503 H         1 A61200      0.0000 
     74 H          17.5009   29.4817   12.0472 H         1 A61200      0.0000 
     75 H          22.4189   35.4358   17.5256 H         1 A61200      0.0000 
     76 H          22.4086   35.0109   15.9747 H         1 A61200      0.0000 
     77 H          21.0251   35.1239   16.7866 H         1 A61200      0.0000 
     78 H          23.8494   32.0788   13.8785 H         1 A61200      0.0000 
     79 H          24.0677   32.5725   15.3934 H         1 A61200      0.0000 
     80 H          23.5896   31.0653   15.0998 H         1 A61200      0.0000 
     81 H          20.7442   28.0293   16.9968 H         1 A61200      0.0000 
@<TRIPOS>BOND
     1    2    1 2    
     2    3    1 1    
     3   43    1 1    
     4    4    2 1    
     5    5    3 1    
     6    5    4 ar   
     7    9    4 ar   
     8    6    5 ar   
     9    7    6 ar   
    10   44    6 1    
    11    8    7 ar   
    12   10    7 1    
    13    9    8 ar   
    14   45    8 1    
    15   46    9 1    
    16   11   10 2    
    17   12   10 2    
    18   13   10 1    
    19   14   13 1    
    20   18   13 1    
    21   15   14 1    
    22   47   14 1    
    23   48   14 1    
    24   16   15 1    
    25   17   15 1    
    26   49   15 1    
    27   23   16 1    
    28   50   16 1    
    29   51   16 1    
    30   20   17 1    
    31   52   17 1    
    32   53   17 1    
    33   19   18 1    
    34   54   18 1    
    35   55   18 1    
    36   21   19 1    
    37   22   19 1    
    38   56   19 1    
    39   75   20 1    
    40   76   20 1    
    41   77   20 1    
    42   81   21 1    
    43   24   22 1    
    44   36   22 1    
    45   57   22 1    
    46   78   23 1    
    47   79   23 1    
    48   80   23 1    
    49   25   24 am   
    50   58   24 1    
    51   26   25 2    
    52   27   25 1    
    53   28   27 1    
    54   29   28 1    
    55   35   28 1    
    56   59   28 1    
    57   30   29 1    
    58   60   29 1    
    59   61   29 1    
    60   31   30 1    
    61   32   31 1    
    62   35   31 1    
    63   62   31 1    
    64   33   32 1    
    65   34   33 1    
    66   63   33 1    
    67   64   33 1    
    68   35   34 1    
    69   65   34 1    
    70   66   34 1    
    71   67   35 1    
    72   42   36 1    
    73   68   36 1    
    74   69   36 1    
    75   38   37 ar   
    76   42   37 ar   
    77   70   37 1    
    78   39   38 ar   
    79   71   38 1    
    80   40   39 ar   
    81   72   39 1    
    82   41   40 ar   
    83   73   40 1    
    84   42   41 ar   
    85   74   41 1    
@<TRIPOS>SUBSTRUCTURE
     1 A61200      1 GROUP   
@<TRIPOS>SET

