#    Name: 2yjx_YJX_1_INTS_M
#    Modification time : Mon Apr  7 18:22:12 2014

@<TRIPOS>MOLECULE
2yjx_YJX_1_INTS_M
   62     0     9     0     0
SMALL
NO_CHARGES


@<TRIPOS>ATOM
      1 CA         10.5320   10.0565  -26.2040 C.3       3 GLC5        0.0000 
      2 CA          8.5930   10.3540  -26.1000 C.3       9 GLL5        0.0000 
      3 CA         12.4710    9.7590  -26.3080 C.3       6 GLP5        0.0000 
      4 CA          9.4470    9.5060  -27.7650 C.3       3 GLC5        0.0000 
      5 CA         10.3010    8.6580  -29.4300 C.3       6 GLP5        0.0000 
      6 CA          7.7500    9.2490  -28.6360 C.3       3 GLC5        0.0000 
      7 CA          7.4600    9.7000  -26.6960 C.3       9 GLL5        0.0000 
      8 CA          8.0400    8.7980  -30.5760 C.3       6 GLP5        0.0000 
      9 CA         10.5440   11.3940  -25.5975 C.3       3 GLC5        0.0000 
     10 CA          8.5970   11.5500  -25.3120 C.3       9 GLL5        0.0000 
     11 CA         12.4910   11.2380  -25.8830 C.3       6 GLP5        0.0000 
     12 CA         10.9950   14.8425  -19.1200 C.3       3 GLC5        0.0000 
     13 CA         11.6170   14.7500  -21.1430 C.3       9 GLL5        0.0000 
     14 CA         10.3730   14.9350  -17.0970 C.3       6 GLP5        0.0000 
     15 CA          9.3745   12.7420  -21.8935 C.3       3 GLC5        0.0000 
     16 CA         10.6260   14.5770  -22.0740 C.3       9 GLL5        0.0000 
     17 CA          8.1230   10.9070  -21.7130 C.3       6 GLP5        0.0000 
     18 CA          6.2775   12.3730  -22.8895 C.3       3 GLC5        0.0000 
     19 CA          6.8490   13.3440  -24.3510 C.3       9 GLL5        0.0000 
     20 CA          5.7060   11.4020  -21.4280 C.3       6 GLP5        0.0000 
     21 CA          6.2960   13.9720  -26.2040 C.3       3 GLC5        0.0000 
     22 CA          5.7430   14.6000  -28.0570 C.3       6 GLP5        0.0000 
     23 CA          7.7800   12.5745  -22.6165 C.3       3 GLC5        0.0000 
     24 CA          7.4370   14.2420  -23.5200 C.3       9 GLL5        0.0000 
     25 CA          6.1095   13.3315  -22.0900 C.3       3 GLC5        0.0000 
     26 CA          6.5130   15.2610  -22.7520 C.3       9 GLL5        0.0000 
     27 CA          5.8885   17.3050  -23.3110 C.3       3 GLC5        0.0000 
     28 CA          5.2180   15.6320  -23.4950 C.3       9 GLL5        0.0000 
     29 CA          6.5590   18.9780  -23.1270 C.3       6 GLP5        0.0000 
     30 CA          3.3970   13.5000  -22.6330 C.3       3 GLC5        0.0000 
     31 CA          4.4790   14.4090  -24.0040 C.3       9 GLL5        0.0000 
     32 CA          2.3150   12.5910  -21.2620 C.3       6 GLP5        0.0000 
     33 CA          5.0925   12.9055  -22.7160 C.3       3 GLC5        0.0000 
     34 N           9.8630   14.8455  -25.3505 N.am      2 SEC2        0.0000 
     35 N           9.7730   14.2050  -24.2000 N.am      8 SEL2        0.0000 
     36 N           9.9530   15.4860  -26.5010 N.am      5 SEP2        0.0000 
     37 O           9.0500   14.7370  -20.6860 O.2       1 ALC1        0.0000 
     38 O           9.2760   14.5380  -21.9430 O.2       7 ALL1        0.0000 
     39 O           8.8240   14.9360  -19.4290 O.2       4 ALP1        0.0000 
     40 CA          7.1988    9.6425  -24.4570 C.3       3 GLC5        0.0000 
     41 CA          6.3710    9.2580  -22.5160 C.3       6 GLP5        0.0000 
     42 CA          8.6433    8.1900  -25.8105 C.3       3 GLC5        0.0000 
     43 CA          9.2600    6.3530  -25.2230 C.3       6 GLP5        0.0000 
     44 CA          8.0415   11.3950  -23.4635 C.3       3 GLC5        0.0000 
     45 CA          6.2700   10.1150  -24.3110 C.3       3 GLC5        0.0000 
     46 CA          6.1160   11.5930  -25.7120 C.3       9 GLL5        0.0000 
     47 CA          5.3595   11.7685  -27.5495 C.3       3 GLC5        0.0000 
     48 CA          4.5500   12.5650  -28.9930 C.3       6 GLP5        0.0000 
     49 CA         14.1750   14.4657  -25.0008 C.3       3 GLC5        0.0000 
     50 CA         12.3170   14.3420  -23.9350 C.3       9 GLL5        0.0000 
     51 CA         15.5410   14.4850  -26.5670 C.3       6 GLP5        0.0000 
     52 CA         12.0512   12.7942  -24.7905 C.3       3 GLC5        0.0000 
     53 CA          7.4145   16.5998  -23.2385 C.3       3 GLC5        0.0000 
     54 CA          7.8540   18.4480  -23.3410 C.3       6 GLP5        0.0000 
     55 CA          4.6943   15.7812  -25.5312 C.3       3 GLC5        0.0000 
     56 CA          4.5400   16.5420  -27.3130 C.3       6 GLP5        0.0000 
     57 CA          3.5897   16.4818  -24.2967 C.3       3 GLC5        0.0000 
     58 CA          2.3310   17.9430  -24.8440 C.3       6 GLP5        0.0000 
     59 CA          4.7291   15.2764  -21.6324 C.3       3 GLC5        0.0000 
     60 CA          4.2860   15.6250  -19.7010 C.3       6 GLP5        0.0000 
     61 CA         12.1703   12.9346  -22.0456 C.3       3 GLC5        0.0000 
     62 CA         12.8510   11.3360  -21.5630 C.3       6 GLP5        0.0000 
@<TRIPOS>BOND
@<TRIPOS>SUBSTRUCTURE
     1 ALC1       37 GROUP        1 X    ALC  0     ROOT ALC X 1
     2 SEC2       34 GROUP        1 X    SEC  0     **** SEC X 2
     3 GLC5        1 GROUP        1 X    GLC  0     **** GLC X 6
     4 ALP1       39 GROUP        1 Y    ALP  0     ROOT ALP Y 8
     5 SEP2       36 GROUP        1 Y    SEP  0     **** SEP Y 9
     6 GLP5        3 GROUP        1 Y    GLP  0     **** GLP Y 13
     7 ALL1       38 GROUP        1 Z    ALL  0     ROOT ALL Z 15
     8 SEL2       35 GROUP        1 Z    SEL  0     **** SEL Z 16
     9 GLL5        2 GROUP        1 Z    GLL  0     **** GLL Z 20
@<TRIPOS>SET

