#    Name: 2yjx_YJX_1_ligand
#    Modification time : Mon Apr  7 18:22:12 2014

@<TRIPOS>MOLECULE
2yjx_YJX_1_ligand
   37    41     1     0     0
SMALL
NO_CHARGES


@<TRIPOS>ATOM
      1 C15         8.5930   10.3540  -26.1000 C.ar      1 YJX1224     0.0000 
      2 C19         7.4600    9.7000  -26.6960 C.ar      1 YJX1224     0.0000 
      3 C8          8.5970   11.5500  -25.3120 C.ar      1 YJX1224     0.0000 
      4 C14         6.2220   10.3510  -26.5000 C.ar      1 YJX1224     0.0000 
      5 C20        12.3170   14.3420  -23.9350 C.ar      1 YJX1224     0.0000 
      6 C22        13.3010   14.5510  -22.9340 C.ar      1 YJX1224     0.0000 
      7 C21        11.6170   14.7500  -21.1430 C.ar      1 YJX1224     0.0000 
      8 C3          7.3230   12.2160  -25.1160 C.ar      1 YJX1224     0.0000 
      9 C7          6.1160   11.5930  -25.7120 C.ar      1 YJX1224     0.0000 
     10 C17        10.9060   14.3590  -23.4610 C.ar      1 YJX1224     0.0000 
     11 C18        10.6260   14.5770  -22.0740 C.ar      1 YJX1224     0.0000 
     12 C5          8.8370   14.3080  -23.2510 C.2       1 YJX1224     0.0000 
     13 C1          6.8490   13.3440  -24.3510 C.2       1 YJX1224     0.0000 
     14 C9          4.9360   12.3660  -25.3640 C.2       1 YJX1224     0.0000 
     15 C2          7.4370   14.2420  -23.5200 C.2       1 YJX1224     0.0000 
     16 C6          6.5130   15.2610  -22.7520 C.3       1 YJX1224     0.0000 
     17 C13         5.2180   15.6320  -23.4950 C.3       1 YJX1224     0.0000 
     18 C10         4.4790   14.4090  -24.0040 C.3       1 YJX1224     0.0000 
     19 N23        12.9900   14.7400  -21.5420 N.ar      1 YJX1224     0.0000 
     20 N11         9.7730   14.2050  -24.2000 N.2       1 YJX1224     0.0000 
     21 N12         9.2760   14.5380  -21.9430 N.pl3     1 YJX1224     0.0000 
     22 N4          5.4220   13.3660  -24.5740 N.am      1 YJX1224     0.0000 
     23 O16         3.7100   12.2050  -25.6800 O.2       1 YJX1224     0.0000 
     24 H           9.5432    9.8919  -26.2655 H         1 YJX1224     0.0000 
     25 H           7.5529    8.8625  -27.2000 H         1 YJX1224     0.0000 
     26 H           9.4280   11.9135  -24.9147 H         1 YJX1224     0.0000 
     27 H           5.3616    9.9722  -26.9042 H         1 YJX1224     0.0000 
     28 H          12.5170   14.1943  -24.8781 H         1 YJX1224     0.0000 
     29 H          14.3035   14.5699  -23.2137 H         1 YJX1224     0.0000 
     30 H          11.3996   14.8892  -20.1488 H         1 YJX1224     0.0000 
     31 H           7.0980   16.1712  -22.5623 H         1 YJX1224     0.0000 
     32 H           6.2609   14.8208  -21.7776 H         1 YJX1224     0.0000 
     33 H           5.4712   16.2838  -24.3372 H         1 YJX1224     0.0000 
     34 H           4.5711   16.1936  -22.8135 H         1 YJX1224     0.0000 
     35 H           3.7673   14.7146  -24.7807 H         1 YJX1224     0.0000 
     36 H           3.9055   13.9653  -23.1809 H         1 YJX1224     0.0000 
     37 H           8.7528   14.6357  -21.1915 H         1 YJX1224     0.0000 
@<TRIPOS>BOND
     1    2    1 ar   
     2    3    1 ar   
     3   24    1 1    
     4    4    2 ar   
     5   25    2 1    
     6    8    3 ar   
     7   26    3 1    
     8    9    4 ar   
     9   27    4 1    
    10    6    5 ar   
    11   10    5 ar   
    12   28    5 1    
    13   19    6 ar   
    14   29    6 1    
    15   11    7 ar   
    16   19    7 ar   
    17   30    7 1    
    18    9    8 ar   
    19   13    8 1    
    20   14    9 1    
    21   11   10 ar   
    22   20   10 1    
    23   21   11 1    
    24   15   12 1    
    25   20   12 2    
    26   21   12 1    
    27   15   13 2    
    28   22   13 1    
    29   22   14 am   
    30   23   14 2    
    31   16   15 1    
    32   17   16 1    
    33   31   16 1    
    34   32   16 1    
    35   18   17 1    
    36   33   17 1    
    37   34   17 1    
    38   22   18 1    
    39   35   18 1    
    40   36   18 1    
    41   37   21 1    
@<TRIPOS>SUBSTRUCTURE
     1 YJX1224     1 GROUP   
@<TRIPOS>SET

