#    Name: 3uhm_RFN_1_INTS_M
#    Modification time : Mon Mar 24 22:22:09 2014

@<TRIPOS>MOLECULE
3uhm_RFN_1_INTS_M
   64     0    12     0     0
SMALL
NO_CHARGES


@<TRIPOS>ATOM
      1 CA         -2.4315  -12.4185   -3.3880 C.3       4 GLC5        0.0000 
      2 CA         -0.8810  -13.6280   -3.9510 C.3      12 GLL5        0.0000 
      3 CA         -3.9820  -11.2090   -2.8250 C.3       8 GLP5        0.0000 
      4 CA         -0.8075   -9.4610   -3.7730 C.3       4 GLC5        0.0000 
      5 CA          0.1360  -11.1090   -2.6590 C.3      12 GLL5        0.0000 
      6 CA         -1.7510   -7.8130   -4.8870 C.3       8 GLP5        0.0000 
      7 CA         -1.9230  -11.1590   -2.7420 C.3       4 GLC5        0.0000 
      8 CA          6.2715   -7.9100   -0.2825 C.3       4 GLC5        0.0000 
      9 CA          4.8490   -6.7760   -0.8760 C.3      12 GLL5        0.0000 
     10 CA          7.6940   -9.0440    0.3110 C.3       8 GLP5        0.0000 
     11 CA          5.8795   -5.8520    0.5515 C.3       4 GLC5        0.0000 
     12 CA          6.9100   -4.9280    1.9790 C.3       8 GLP5        0.0000 
     13 CA         -3.2710  -15.4045   -4.0580 C.3       4 GLC5        0.0000 
     14 CA         -1.4660  -14.5430   -4.8240 C.3      12 GLL5        0.0000 
     15 CA         -5.0760  -16.2660   -3.2920 C.3       8 GLP5        0.0000 
     16 CA          1.5445  -15.7410   -7.6870 C.3       4 GLC5        0.0000 
     17 CA          0.4710  -14.4030   -6.2620 C.3      12 GLL5        0.0000 
     18 CA          2.6180  -17.0790   -9.1120 C.3       8 GLP5        0.0000 
     19 CA          0.8755  -10.6980   -0.1130 C.3       4 GLC5        0.0000 
     20 CA          0.6730  -10.1710   -1.8810 C.3      12 GLL5        0.0000 
     21 CA          1.0780  -11.2250    1.6550 C.3       8 GLP5        0.0000 
     22 CA          3.4330  -13.2880   -4.2835 C.3       4 GLC5        0.0000 
     23 CA          2.3000  -12.0760   -3.0740 C.3      12 GLL5        0.0000 
     24 CA          4.5660  -14.5000   -5.4930 C.3       8 GLP5        0.0000 
     25 CA          1.8175  -10.1210    0.3880 C.3       4 GLC5        0.0000 
     26 CA          2.5570   -9.0170   -0.8790 C.3      12 GLL5        0.0000 
     27 CA          1.3080   -4.2505   -4.4840 C.3       4 GLC5        0.0000 
     28 CA          1.8320   -5.0940   -3.0960 C.3      12 GLL5        0.0000 
     29 CA          0.7840   -3.4070   -5.8720 C.3       8 GLP5        0.0000 
     30 CA          0.5415   -4.1515   -1.8985 C.3       4 GLC5        0.0000 
     31 CA         -0.7490   -3.2090   -0.7010 C.3       8 GLP5        0.0000 
     32 CA          2.4300   -2.9605   -3.4075 C.3       4 GLC5        0.0000 
     33 CA          3.0280   -0.8270   -3.7190 C.3       8 GLP5        0.0000 
     34 N           4.6690   -2.7885   -2.6470 N.am      2 SEC2        0.0000 
     35 N           3.9510   -4.0670   -1.9670 N.am     10 SEL2        0.0000 
     36 N           5.3870   -1.5100   -3.3270 N.am      6 SEP2        0.0000 
     37 Zn          1.1075   -5.1770    0.7475 Zn        3 ZIC7        0.0000 
     38 Zn          1.4240   -5.7620   -0.0630 Zn       11 ZIL7        0.0000 
     39 Zn          0.7910   -4.5920    1.5580 Zn        7 ZIP7        0.0000 
     40 N           0.4720   -6.6045   -0.4675 N.am      2 SEC2        0.0000 
     41 N           1.4240   -5.7620   -0.0630 N.am     10 SEL2        0.0000 
     42 N          -0.4800   -7.4470   -0.8720 N.am      6 SEP2        0.0000 
     43 Zn          1.6465   -5.1000    1.9090 Zn        3 ZIC7        0.0000 
     44 Zn          2.5020   -5.6080    2.2600 Zn       11 ZIL7        0.0000 
     45 O           3.1140   -5.9680    3.2735 O.2       1 ALC1        0.0000 
     46 O           2.5020   -5.6080    2.2600 O.2       9 ALL1        0.0000 
     47 O           3.7260   -6.3280    4.2870 O.2       5 ALP1        0.0000 
     48 CA          2.6597  -14.2207   -5.6570 C.3       4 GLC5        0.0000 
     49 CA          1.0360  -13.4800   -5.3800 C.3      12 GLL5        0.0000 
     50 CA          1.7147  -14.4400   -3.3617 C.3       4 GLC5        0.0000 
     51 CA          2.7200  -15.5860   -1.9280 C.3       8 GLP5        0.0000 
     52 CA         -1.7072  -14.9848   -2.5892 C.3       4 GLC5        0.0000 
     53 CA         -2.2410  -15.8840   -0.7910 C.3       8 GLP5        0.0000 
     54 CA          0.1180  -12.3633   -1.1008 C.3       4 GLC5        0.0000 
     55 CA          0.9660  -12.0960   -3.2940 C.3      12 GLL5        0.0000 
     56 CA         -0.3150  -13.1240    0.7750 C.3       8 GLP5        0.0000 
     57 CA          0.4860  -10.8918   -4.8852 C.3       4 GLC5        0.0000 
     58 CA          0.4210  -10.1810   -6.7940 C.3       8 GLP5        0.0000 
     59 CA          2.1765  -13.8360   -2.5560 C.3       4 GLC5        0.0000 
     60 CA         -1.0582   -9.6300   -1.2685 C.3       4 GLC5        0.0000 
     61 CA         -2.5210   -8.6200   -0.2670 C.3       8 GLP5        0.0000 
     62 CA         -2.7803  -14.0998   -6.0805 C.3       4 GLC5        0.0000 
     63 CA         -4.4390  -13.4710   -6.7700 C.3       8 GLP5        0.0000 
     64 CA          0.5056  -12.0147   -6.1614 C.3       4 GLC5        0.0000 
@<TRIPOS>BOND
@<TRIPOS>SUBSTRUCTURE
     1 ALC1       45 GROUP        1 X    ALC  0     ROOT ALC X 1
     2 SEC2       34 GROUP        1 X    SEC  0     **** SEC X 2
     3 ZIC7       37 GROUP        1 X    ZIC  0     **** ZIC X 5
     4 GLC5        1 GROUP        1 X    GLC  0     **** GLC X 6
     5 ALP1       47 GROUP        1 Y    ALP  0     ROOT ALP Y 8
     6 SEP2       36 GROUP        1 Y    SEP  0     **** SEP Y 9
     7 ZIP7       39 GROUP        1 Y    ZIP  0     **** ZIP Y 12
     8 GLP5        3 GROUP        1 Y    GLP  0     **** GLP Y 13
     9 ALL1       46 GROUP        1 Z    ALL  0     ROOT ALL Z 15
    10 SEL2       35 GROUP        1 Z    SEL  0     **** SEL Z 16
    11 ZIL7       38 GROUP        1 Z    ZIL  0     **** ZIL Z 19
    12 GLL5        2 GROUP        1 Z    GLL  0     **** GLL Z 20
@<TRIPOS>SET

