#    Name: 3uhm_RFN_1_ligand
#    Modification time : Mon Mar 24 22:22:09 2014

@<TRIPOS>MOLECULE
3uhm_RFN_1_ligand
   45    46     1     0     0
SMALL
NO_CHARGES


@<TRIPOS>ATOM
      1 N1          2.0260  -10.1300   -1.6500 N.am      1 RFN303      0.0000 
      2 C4          1.0360  -13.4800   -5.3800 C.ar      1 RFN303      0.0000 
      3 C5          0.3830  -13.1080   -4.2110 C.ar      1 RFN303      0.0000 
      4 C6         -0.8810  -13.6280   -3.9510 C.ar      1 RFN303      0.0000 
      5 C7          0.9660  -12.0960   -3.2940 C.2       1 RFN303      0.0000 
      6 C8          0.1360  -11.1090   -2.6590 C.2       1 RFN303      0.0000 
      7 C10         2.9070  -11.0510   -2.1960 C.2       1 RFN303      0.0000 
      8 C13         2.7500   -7.8330   -1.8140 C.3       1 RFN303      0.0000 
      9 C15         2.6030   -6.0720   -0.0040 C.2       1 RFN303      0.0000 
     10 C17         4.8490   -6.7760   -0.8760 C.3       1 RFN303      0.0000 
     11 C1         -1.4660  -14.5430   -4.8240 C.ar      1 RFN303      0.0000 
     12 C2         -0.7770  -14.9140   -5.9580 C.ar      1 RFN303      0.0000 
     13 C3          0.4710  -14.4030   -6.2620 C.ar      1 RFN303      0.0000 
     14 C9          0.6730  -10.1710   -1.8810 C.2       1 RFN303      0.0000 
     15 C11         2.3000  -12.0760   -3.0740 C.2       1 RFN303      0.0000 
     16 O1          4.1210  -11.0280   -2.0030 O.2       1 RFN303      0.0000 
     17 C12         2.5570   -9.0170   -0.8790 C.3       1 RFN303      0.0000 
     18 C14         3.3830   -6.5600   -1.2220 C.3       1 RFN303      0.0000 
     19 S1          3.4960   -5.3330   -2.5230 S.o2      1 RFN303      0.0000 
     20 C16         1.8320   -5.0940   -3.0960 C.3       1 RFN303      0.0000 
     21 O2          4.2980   -5.8800   -3.5980 O.2       1 RFN303      0.0000 
     22 O3          3.9510   -4.0670   -1.9670 O.2       1 RFN303      0.0000 
     23 O4          1.4240   -5.7620   -0.0630 O.2       1 RFN303      0.0000 
     24 N2          3.3170   -6.0650    1.1710 N.am      1 RFN303      0.0000 
     25 O5          2.5020   -5.6080    2.2600 O.3       1 RFN303      0.0000 
     26 H           1.9592  -13.0663   -5.6036 H         1 RFN303      0.0000 
     27 H          -1.3912  -13.3337   -3.1033 H         1 RFN303      0.0000 
     28 H          -0.8823  -11.1675   -2.8372 H         1 RFN303      0.0000 
     29 H           1.7613   -7.5563   -2.2543 H         1 RFN303      0.0000 
     30 H           3.3719   -8.1577   -2.6834 H         1 RFN303      0.0000 
     31 H          -2.3904  -14.9281   -4.6203 H         1 RFN303      0.0000 
     32 H          -1.2116  -15.6061   -6.6128 H         1 RFN303      0.0000 
     33 H           0.9676  -14.6867   -7.1010 H         1 RFN303      0.0000 
     34 H           0.0680   -9.4434   -1.4289 H         1 RFN303      0.0000 
     35 H           2.9458  -12.7546   -3.4945 H         1 RFN303      0.0000 
     36 H           3.5193   -9.2683   -0.4376 H         1 RFN303      0.0000 
     37 H           1.8698   -8.7234   -0.0881 H         1 RFN303      0.0000 
     38 H           4.2352   -6.3239    1.2817 H         1 RFN303      0.0000 
     39 H           5.3871   -7.0287   -1.6801 H         1 RFN303      0.0000 
     40 H           5.2653   -5.9519   -0.4919 H         1 RFN303      0.0000 
     41 H           4.9681   -7.5056   -0.2026 H         1 RFN303      0.0000 
     42 H           1.7865   -4.4214   -3.8346 H         1 RFN303      0.0000 
     43 H           1.4346   -5.9419   -3.4469 H         1 RFN303      0.0000 
     44 H           1.2309   -4.7687   -2.3660 H         1 RFN303      0.0000 
     45 H           3.1415   -5.4463    3.0116 H         1 RFN303      0.0000 
@<TRIPOS>BOND
     1    7    1 am   
     2   14    1 1    
     3   17    1 1    
     4    3    2 ar   
     5   13    2 ar   
     6   26    2 1    
     7    4    3 ar   
     8    5    3 1    
     9   11    4 ar   
    10   27    4 1    
    11    6    5 1    
    12   15    5 2    
    13   14    6 2    
    14   28    6 1    
    15   15    7 1    
    16   16    7 2    
    17   17    8 1    
    18   18    8 1    
    19   29    8 1    
    20   30    8 1    
    21   18    9 1    
    22   23    9 2    
    23   24    9 am   
    24   18   10 1    
    25   39   10 1    
    26   40   10 1    
    27   41   10 1    
    28   12   11 ar   
    29   31   11 1    
    30   13   12 ar   
    31   32   12 1    
    32   33   13 1    
    33   34   14 1    
    34   35   15 1    
    35   36   17 1    
    36   37   17 1    
    37   19   18 1    
    38   20   19 1    
    39   21   19 2    
    40   22   19 2    
    41   42   20 1    
    42   43   20 1    
    43   44   20 1    
    44   25   24 1    
    45   38   24 1    
    46   45   25 1    
@<TRIPOS>SUBSTRUCTURE
     1 RFN303      1 GROUP   
@<TRIPOS>SET

