#    Name: 2vg5_NNC_1_INTS_M
#    Modification time : Tue Mar 25 01:39:49 2014

@<TRIPOS>MOLECULE
2vg5_NNC_1_INTS_M
   54     0     6     0     0
SMALL
NO_CHARGES


@<TRIPOS>ATOM
      1 CA         10.0530   10.7780   17.1660 C.3       2 GLC5        0.0000 
      2 CA          9.9240   12.8090   16.7430 C.3       6 GLL5        0.0000 
      3 CA         10.1820    8.7470   17.5890 C.3       4 GLP5        0.0000 
      4 CA          9.0965   10.0375   17.7745 C.3       2 GLC5        0.0000 
      5 CA          8.0110   11.3280   17.9600 C.3       6 GLL5        0.0000 
      6 CA          8.3825   10.4785   19.5180 C.3       2 GLC5        0.0000 
      7 CA          8.7540    9.6290   21.0760 C.3       4 GLP5        0.0000 
      8 CA          6.9565   12.1805   19.3400 C.3       2 GLC5        0.0000 
      9 CA          5.9020   13.0330   20.7200 C.3       4 GLP5        0.0000 
     10 CA          6.7240   10.5895   16.3265 C.3       2 GLC5        0.0000 
     11 CA          5.4370    9.8510   14.6930 C.3       4 GLP5        0.0000 
     12 CA          6.6140   11.2675   15.1640 C.3       2 GLC5        0.0000 
     13 CA          7.7910   12.6840   15.6350 C.3       6 GLL5        0.0000 
     14 O           9.2050   14.9355   12.6530 O.2       1 ALC1        0.0000 
     15 O          10.0260   14.7450   13.6800 O.2       5 ALL1        0.0000 
     16 O           8.3840   15.1260   11.6260 O.2       3 ALP1        0.0000 
     17 CA         13.0770   14.6545   13.8700 C.3       2 GLC5        0.0000 
     18 CA         11.2190   15.3280   13.7700 C.3       6 GLL5        0.0000 
     19 CA         14.9350   13.9810   13.9700 C.3       4 GLP5        0.0000 
     20 CA         11.4895   17.7315   11.3775 C.3       2 GLC5        0.0000 
     21 CA         11.7090   16.3290   12.5820 C.3       6 GLL5        0.0000 
     22 CA         11.2700   19.1340   10.1730 C.3       4 GLP5        0.0000 
     23 CA         13.6060   15.6270   12.1520 C.3       2 GLC5        0.0000 
     24 CA         15.5030   14.9250   11.7220 C.3       4 GLP5        0.0000 
     25 CA         11.6865   17.1095   15.4280 C.3       2 GLC5        0.0000 
     26 CA         13.1470   16.0040   14.7980 C.3       6 GLL5        0.0000 
     27 CA         10.2260   18.2150   16.0580 C.3       4 GLP5        0.0000 
     28 CA         14.9875   15.6520   17.5125 C.3       2 GLC5        0.0000 
     29 CA         14.1110   15.6710   15.9430 C.3       6 GLL5        0.0000 
     30 CA         15.8640   15.6330   19.0820 C.3       4 GLP5        0.0000 
     31 CA         12.2710   18.9545   20.2955 C.3       2 GLC5        0.0000 
     32 CA         11.7810   17.1540   20.0740 C.3       6 GLL5        0.0000 
     33 CA         12.7610   20.7550   20.5170 C.3       4 GLP5        0.0000 
     34 CA          8.6863   10.7380   15.7482 C.3       2 GLC5        0.0000 
     35 CA          9.1690    8.9630   15.3300 C.3       4 GLP5        0.0000 
     36 CA          9.6941   12.7645   13.3095 C.3       2 GLC5        0.0000 
     37 CA          8.2700   13.4990   14.6170 C.3       6 GLL5        0.0000 
     38 CA         10.2560   11.8870   11.7180 C.3       4 GLP5        0.0000 
     39 CA         10.8450   17.0217   14.6170 C.3       2 GLC5        0.0000 
     40 CA         11.5255   14.6382   11.7355 C.3       2 GLC5        0.0000 
     41 CA         11.5870   13.4480   10.2950 C.3       4 GLP5        0.0000 
     42 CA         14.2820   14.9093   14.6702 C.3       2 GLC5        0.0000 
     43 CA         11.1410   17.5038   17.8035 C.3       2 GLC5        0.0000 
     44 CA         12.3310   16.4310   19.0240 C.3       6 GLL5        0.0000 
     45 CA         12.9360   13.2990   19.9065 C.3       2 GLC5        0.0000 
     46 CA         11.4760   14.3850   19.9540 C.3       6 GLL5        0.0000 
     47 CA         14.0430   11.8790   20.3540 C.3       4 GLP5        0.0000 
     48 CA          9.4184   14.8930   21.0195 C.3       2 GLC5        0.0000 
     49 CA          7.6020   14.6960   21.5460 C.3       4 GLP5        0.0000 
     50 CA         13.9915   15.7779   19.1692 C.3       2 GLC5        0.0000 
     51 CA         12.1820   15.0530   18.9640 C.3       6 GLL5        0.0000 
     52 CA          8.6951   15.0906   16.2182 C.3       2 GLC5        0.0000 
     53 CA          9.5820   13.9530   14.6510 C.3       6 GLL5        0.0000 
     54 CA          8.4380   16.8440   17.1530 C.3       4 GLP5        0.0000 
@<TRIPOS>BOND
@<TRIPOS>SUBSTRUCTURE
     1 ALC1       14 GROUP        1 X    ALC  0     ROOT ALC X 1
     2 GLC5        1 GROUP        1 X    GLC  0     **** GLC X 6
     3 ALP1       16 GROUP        1 Y    ALP  0     ROOT ALP Y 8
     4 GLP5        3 GROUP        1 Y    GLP  0     **** GLP Y 13
     5 ALL1       15 GROUP        1 Z    ALL  0     ROOT ALL Z 15
     6 GLL5        2 GROUP        1 Z    GLL  0     **** GLL Z 20
@<TRIPOS>SET

