#    Name: 2vg5_NNC_1_ligand
#    Modification time : Tue Mar 25 01:39:49 2014

@<TRIPOS>MOLECULE
2vg5_NNC_1_ligand
   37    39     1     0     0
SMALL
NO_CHARGES


@<TRIPOS>ATOM
      1 C13        10.4070   13.6170   15.7190 C.ar      1 NNC1551     0.0000 
      2 C14         9.9240   12.8090   16.7430 C.ar      1 NNC1551     0.0000 
      3 C15         8.6160   12.3420   16.6980 C.ar      1 NNC1551     0.0000 
      4 CL2         8.0110   11.3280   17.9600 Cl        1 NNC1551     0.0000 
      5 C16         7.7910   12.6840   15.6350 C.ar      1 NNC1551     0.0000 
      6 C17         8.2700   13.4990   14.6170 C.ar      1 NNC1551     0.0000 
      7 C12         9.5820   13.9530   14.6510 C.ar      1 NNC1551     0.0000 
      8 N2         10.0260   14.7450   13.6800 N.am      1 NNC1551     0.0000 
      9 C11        11.2190   15.3280   13.7700 C.2       1 NNC1551     0.0000 
     10 S1         11.7090   16.3290   12.5820 S.2       1 NNC1551     0.0000 
     11 O3         12.0230   15.1080   14.8460 O.3       1 NNC1551     0.0000 
     12 C10        13.1470   16.0040   14.7980 C.3       1 NNC1551     0.0000 
     13 C9         14.1110   15.6710   15.9430 C.3       1 NNC1551     0.0000 
     14 N1         13.3670   15.6970   17.2070 N.am      1 NNC1551     0.0000 
     15 C7         13.0670   16.7900   17.9030 C.2       1 NNC1551     0.0000 
     16 O1         13.4050   17.9370   17.6150 O.2       1 NNC1551     0.0000 
     17 C1         12.3310   16.4310   19.0240 C.ar      1 NNC1551     0.0000 
     18 C6         11.7810   17.1540   20.0740 C.ar      1 NNC1551     0.0000 
     19 C5         11.0690   16.4850   21.0620 C.ar      1 NNC1551     0.0000 
     20 C4         10.9180   15.1050   21.0020 C.ar      1 NNC1551     0.0000 
     21 C3         11.4760   14.3850   19.9540 C.ar      1 NNC1551     0.0000 
     22 C2         12.1820   15.0530   18.9640 C.ar      1 NNC1551     0.0000 
     23 C8         12.8350   14.6410   17.8080 C.2       1 NNC1551     0.0000 
     24 O2         12.9240   13.4810   17.4110 O.2       1 NNC1551     0.0000 
     25 H          11.3736   13.9657   15.7517 H         1 NNC1551     0.0000 
     26 H          10.5338   12.5582   17.5311 H         1 NNC1551     0.0000 
     27 H           6.8239   12.3337   15.6008 H         1 NNC1551     0.0000 
     28 H           7.6530   13.7659   13.8385 H         1 NNC1551     0.0000 
     29 H           9.4275   14.9134   12.8297 H         1 NNC1551     0.0000 
     30 H          12.8378   17.0456   14.9133 H         1 NNC1551     0.0000 
     31 H          13.6978   15.9103   13.8591 H         1 NNC1551     0.0000 
     32 H          14.9082   16.4090   15.9445 H         1 NNC1551     0.0000 
     33 H          14.5334   14.6871   15.7593 H         1 NNC1551     0.0000 
     34 H          11.8987   18.1704   20.1203 H         1 NNC1551     0.0000 
     35 H          10.6518   17.0137   21.8414 H         1 NNC1551     0.0000 
     36 H          10.3897   14.6143   21.7384 H         1 NNC1551     0.0000 
     37 H          11.3666   13.3656   19.9125 H         1 NNC1551     0.0000 
@<TRIPOS>BOND
     1    2    1 ar   
     2    7    1 ar   
     3   25    1 1    
     4    3    2 ar   
     5   26    2 1    
     6    4    3 1    
     7    5    3 ar   
     8    6    5 ar   
     9   27    5 1    
    10    7    6 ar   
    11   28    6 1    
    12    8    7 1    
    13    9    8 am   
    14   29    8 1    
    15   10    9 2    
    16   11    9 1    
    17   12   11 1    
    18   13   12 1    
    19   30   12 1    
    20   31   12 1    
    21   14   13 1    
    22   32   13 1    
    23   33   13 1    
    24   15   14 am   
    25   23   14 am   
    26   16   15 2    
    27   17   15 1    
    28   18   17 ar   
    29   22   17 ar   
    30   19   18 ar   
    31   34   18 1    
    32   20   19 ar   
    33   35   19 1    
    34   21   20 ar   
    35   36   20 1    
    36   22   21 ar   
    37   37   21 1    
    38   23   22 1    
    39   24   23 2    
@<TRIPOS>SUBSTRUCTURE
     1 NNC1551     1 GROUP   
@<TRIPOS>SET

