#    Name: 1dg7_WRB_1_INTS_M
#    Modification time : Mon Mar 24 21:51:36 2014

@<TRIPOS>MOLECULE
1dg7_WRB_1_INTS_M
   64     0     9     0     0
SMALL
NO_CHARGES


@<TRIPOS>ATOM
      1 CA          4.5750   26.0125    8.6520 C.3       3 GLC5        0.0000 
      2 CA          6.4370   25.9750    9.8050 C.3       9 GLL5        0.0000 
      3 CA          2.7130   26.0500    7.4990 C.3       6 GLP5        0.0000 
      4 O           6.5870   27.5210    7.9915 O.2       1 ALC1        0.0000 
      5 O           6.2470   26.3100    8.4280 O.2       7 ALL1        0.0000 
      6 O           6.9270   28.7320    7.5550 O.2       4 ALP1        0.0000 
      7 OD1         6.7425   27.1900    6.8835 O.co2     2 ASC3        0.0000 
      8 OD1         6.6030   25.3520    7.5240 O.co2     8 ASL3        0.0000 
      9 OD1         6.8930   28.4790    5.3820 O.co2     5 ASP3        0.0000 
     10 OD1         6.9270   28.7320    7.5550 O.co2     5 ASP3        0.0000 
     11 O           7.1395   22.4145    7.6370 O.2       1 ALC1        0.0000 
     12 O           6.6310   24.0460    7.8860 O.2       7 ALL1        0.0000 
     13 O           7.6480   20.7830    7.3880 O.2       4 ALP1        0.0000 
     14 CA          3.7510   23.2625   11.2510 C.3       3 GLC5        0.0000 
     15 CA          5.2960   23.5680   12.0440 C.3       9 GLL5        0.0000 
     16 CA          2.2060   22.9570   10.4580 C.3       6 GLP5        0.0000 
     17 CA          7.3440   23.1735   12.0110 C.3       3 GLC5        0.0000 
     18 CA          9.3920   22.7790   11.9780 C.3       6 GLP5        0.0000 
     19 CA          6.2235   22.0665   14.6775 C.3       3 GLC5        0.0000 
     20 CA          5.5130   23.5200   13.5600 C.3       9 GLL5        0.0000 
     21 CA          6.9340   20.6130   15.7950 C.3       6 GLP5        0.0000 
     22 CA          7.3995   22.8180   13.4050 C.3       3 GLC5        0.0000 
     23 CA          9.2860   22.1160   13.2500 C.3       6 GLP5        0.0000 
     24 CA          2.1295   29.5730   12.7045 C.3       3 GLC5        0.0000 
     25 CA          1.7640   28.1470   14.3410 C.3       9 GLL5        0.0000 
     26 CA          2.4950   30.9990   11.0680 C.3       6 GLP5        0.0000 
     27 CA          4.0310   25.8995    9.5725 C.3       3 GLC5        0.0000 
     28 CA          5.5390   26.8300   10.6210 C.3       9 GLL5        0.0000 
     29 CA          2.5230   24.9690    8.5240 C.3       6 GLP5        0.0000 
     30 CA          9.0480   26.7905    8.6010 C.3       3 GLC5        0.0000 
     31 CA          7.8420   26.2790   10.2060 C.3       9 GLL5        0.0000 
     32 CA         10.2540   27.3020    6.9960 C.3       6 GLP5        0.0000 
     33 CA          8.6530   26.7715   11.7185 C.3       3 GLC5        0.0000 
     34 CA          9.4640   27.2640   13.2310 C.3       6 GLP5        0.0000 
     35 CA          9.1885   24.9620   11.0675 C.3       3 GLC5        0.0000 
     36 CA         10.5350   23.6450   11.9290 C.3       6 GLP5        0.0000 
     37 O           6.7255   27.0635    5.7970 O.2       1 ALC1        0.0000 
     38 O           6.5580   25.6480    6.2120 O.2       7 ALL1        0.0000 
     39 O           6.8930   28.4790    5.3820 O.2       4 ALP1        0.0000 
     40 O           6.7425   27.1900    6.8835 O.2       1 ALC1        0.0000 
     41 O           6.7480   25.2885    4.7650 O.2       1 ALC1        0.0000 
     42 O           6.9380   24.9290    3.3180 O.2       4 ALP1        0.0000 
     43 O           7.1975   21.5930    8.4415 O.2       1 ALC1        0.0000 
     44 O           6.7470   22.4030    9.4950 O.2       7 ALL1        0.0000 
     45 O           6.8950   21.4150   10.5480 O.2       1 ALC1        0.0000 
     46 O           7.0430   20.4270   11.6010 O.2       4 ALP1        0.0000 
     47 CA          2.4670   30.0240   17.5770 C.3       3 GLC5        0.0000 
     48 CA          1.6050   30.6320   15.9060 C.3       9 GLL5        0.0000 
     49 CA          3.3290   29.4160   19.2480 C.3       6 GLP5        0.0000 
     50 CA          0.7605   29.0150   16.7800 C.3       3 GLC5        0.0000 
     51 CA         -0.0840   27.3980   17.6540 C.3       6 GLP5        0.0000 
     52 CA          4.3232   21.8545   12.8975 C.3       3 GLC5        0.0000 
     53 CA          3.2420   20.1650   12.9930 C.3       6 GLP5        0.0000 
     54 CA          4.2352   24.1212   15.3518 C.3       3 GLC5        0.0000 
     55 CA          3.0100   24.0280   16.8320 C.3       6 GLP5        0.0000 
     56 CA          3.1184   25.5219   15.5489 C.3       3 GLC5        0.0000 
     57 CA          3.6980   26.6610   14.2420 C.3       9 GLL5        0.0000 
     58 CA          0.7480   26.1345   14.4187 C.3       3 GLC5        0.0000 
     59 CA          2.3660   26.9550   13.8620 C.3       9 GLL5        0.0000 
     60 CA         -0.5690   24.7180   14.7360 C.3       6 GLP5        0.0000 
     61 CA          1.0222   27.9950   16.2140 C.3       3 GLC5        0.0000 
     62 CA          3.3160   28.2641   17.0820 C.3       3 GLC5        0.0000 
     63 CA          2.4930   29.0370   15.2070 C.3       9 GLL5        0.0000 
     64 CA          3.3010   27.9620   18.8900 C.3       6 GLP5        0.0000 
@<TRIPOS>BOND
@<TRIPOS>SUBSTRUCTURE
     1 ALC1        4 GROUP        1 X    ALC  0     ROOT ALC X 1
     2 ASC3        7 GROUP        1 X    ASC  0     **** ASC X 3
     3 GLC5        1 GROUP        1 X    GLC  0     **** GLC X 6
     4 ALP1        6 GROUP        1 Y    ALP  0     ROOT ALP Y 8
     5 ASP3        9 GROUP        1 Y    ASP  0     **** ASP Y 10
     6 GLP5        3 GROUP        1 Y    GLP  0     **** GLP Y 13
     7 ALL1        5 GROUP        1 Z    ALL  0     ROOT ALL Z 15
     8 ASL3        8 GROUP        1 Z    ASL  0     **** ASL Z 17
     9 GLL5        2 GROUP        1 Z    GLL  0     **** GLL Z 20
@<TRIPOS>SET

