#    Name: 1dg7_WRB_1_ligand
#    Modification time : Mon Mar 24 21:51:36 2014

@<TRIPOS>MOLECULE
1dg7_WRB_1_ligand
   44    45     1     0     0
SMALL
NO_CHARGES


@<TRIPOS>ATOM
      1 C1          6.4370   25.9750    9.8050 C.3       1 WRB200      0.0000 
      2 N2          6.2470   26.3100    8.4280 N.pl3     1 WRB200      0.0000 
      3 C3          6.6030   25.3520    7.5240 C.cat     1 WRB200      0.0000 
      4 N4          6.6310   24.0460    7.8860 N.pl3     1 WRB200      0.0000 
      5 C5          6.6470   23.7130    9.1760 C.cat     1 WRB200      0.0000 
      6 N6          6.1040   24.5840   10.0590 N.pl3     1 WRB200      0.0000 
      7 O7          6.4250   24.2280   11.4210 O.3       1 WRB200      0.0000 
      8 C8          5.2960   23.5680   12.0440 C.3       1 WRB200      0.0000 
      9 C9          5.5130   23.5200   13.5600 C.3       1 WRB200      0.0000 
     10 C10         5.4080   24.9090   14.1830 C.3       1 WRB200      0.0000 
     11 O11         4.3380   25.5970   13.4830 O.3       1 WRB200      0.0000 
     12 C12         3.6980   26.6610   14.2420 C.ar      1 WRB200      0.0000 
     13 C13         4.4770   27.4920   15.0970 C.ar      1 WRB200      0.0000 
     14 C14         3.8610   28.6990   15.5850 C.ar      1 WRB200      0.0000 
     15 C15         2.3660   26.9550   13.8620 C.ar      1 WRB200      0.0000 
     16 C16         1.7640   28.1470   14.3410 C.ar      1 WRB200      0.0000 
     17 C17         2.4930   29.0370   15.2070 C.ar      1 WRB200      0.0000 
     18 CM1         5.5390   26.8300   10.6210 C.3       1 WRB200      0.0000 
     19 CM2         7.8420   26.2790   10.2060 C.3       1 WRB200      0.0000 
     20 NH1         6.5580   25.6480    6.2120 N.pl3     1 WRB200      0.0000 
     21 NH2         6.7470   22.4030    9.4950 N.pl3     1 WRB200      0.0000 
     22 BR          1.6050   30.6320   15.9060 Br        1 WRB200      0.0000 
     23 H           5.8735   27.2013    8.1754 H         1 WRB200      0.0000 
     24 H           6.6398   23.3094    7.1466 H         1 WRB200      0.0000 
     25 H           5.1865   22.5433   11.6859 H         1 WRB200      0.0000 
     26 H           4.3657   24.1049   11.8528 H         1 WRB200      0.0000 
     27 H           6.5014   23.1060   13.7656 H         1 WRB200      0.0000 
     28 H           4.7623   22.8663   14.0070 H         1 WRB200      0.0000 
     29 H           6.3542   25.4144   14.0544 H         1 WRB200      0.0000 
     30 H           5.1852   24.7968   15.2342 H         1 WRB200      0.0000 
     31 H           5.4093   27.2551   15.3512 H         1 WRB200      0.0000 
     32 H           4.3742   29.3227   16.1951 H         1 WRB200      0.0000 
     33 H           1.8514   26.3266   13.2593 H         1 WRB200      0.0000 
     34 H           0.8090   28.3834   14.0756 H         1 WRB200      0.0000 
     35 H           6.2925   26.5840    5.9810 H         1 WRB200      0.0000 
     36 H           6.7941   24.9055    5.5851 H         1 WRB200      0.0000 
     37 H           6.7795   21.7642    8.7263 H         1 WRB200      0.0000 
     38 H           6.7795   22.1891   10.4713 H         1 WRB200      0.0000 
     39 H           5.6292   26.6370   11.5980 H         1 WRB200      0.0000 
     40 H           5.7361   27.8022   10.4948 H         1 WRB200      0.0000 
     41 H           4.5776   26.6925   10.3826 H         1 WRB200      0.0000 
     42 H           8.5034   25.7617    9.6630 H         1 WRB200      0.0000 
     43 H           8.0603   27.2478   10.0887 H         1 WRB200      0.0000 
     44 H           8.0112   26.0545   11.1657 H         1 WRB200      0.0000 
@<TRIPOS>BOND
     1    2    1 1    
     2    6    1 1    
     3   18    1 1    
     4   19    1 1    
     5    3    2 ar   
     6   23    2 1    
     7    4    3 ar   
     8   20    3 ar   
     9    5    4 ar   
    10   24    4 1    
    11    6    5 ar   
    12   21    5 ar   
    13    7    6 1    
    14    8    7 1    
    15    9    8 1    
    16   25    8 1    
    17   26    8 1    
    18   10    9 1    
    19   27    9 1    
    20   28    9 1    
    21   11   10 1    
    22   29   10 1    
    23   30   10 1    
    24   12   11 1    
    25   13   12 ar   
    26   15   12 ar   
    27   14   13 ar   
    28   31   13 1    
    29   17   14 ar   
    30   32   14 1    
    31   16   15 ar   
    32   33   15 1    
    33   17   16 ar   
    34   34   16 1    
    35   22   17 1    
    36   39   18 1    
    37   40   18 1    
    38   41   18 1    
    39   42   19 1    
    40   43   19 1    
    41   44   19 1    
    42   35   20 1    
    43   36   20 1    
    44   37   21 1    
    45   38   21 1    
@<TRIPOS>SUBSTRUCTURE
     1 WRB200      1 GROUP   
@<TRIPOS>SET

