#    Name: 4epx_0QR_1_INTS_M
#    Modification time : Mon Mar 24 18:23:47 2014

@<TRIPOS>MOLECULE
4epx_0QR_1_INTS_M
   42     0     6     0     0
SMALL
NO_CHARGES


@<TRIPOS>ATOM
      1 CA         27.8325    1.1765   14.0730 C.3       2 GLC5        0.0000 
      2 CA         26.6560   -0.2720   13.5650 C.3       6 GLL5        0.0000 
      3 CA         29.0090    2.6250   14.5810 C.3       4 GLP5        0.0000 
      4 CA         26.8340   -0.3730   16.9235 C.3       2 GLC5        0.0000 
      5 CA         26.3610   -0.8030   14.8240 C.3       6 GLL5        0.0000 
      6 CA         27.3070    0.0570   19.0230 C.3       4 GLP5        0.0000 
      7 CA         27.3730    1.0200   15.4070 C.3       2 GLC5        0.0000 
      8 CA         28.3850    2.8430   15.9900 C.3       4 GLP5        0.0000 
      9 CA         26.1035   -1.9735   17.5635 C.3       2 GLC5        0.0000 
     10 CA         25.0900   -2.5010   15.9370 C.3       6 GLL5        0.0000 
     11 CA         27.1170   -1.4460   19.1900 C.3       4 GLP5        0.0000 
     12 CA         23.8210   -1.0965   16.0345 C.3       2 GLC5        0.0000 
     13 CA         22.5520    0.3080   16.1320 C.3       4 GLP5        0.0000 
     14 O          20.0145    0.7080    7.7285 O.2       1 ALC1        0.0000 
     15 O          21.5750    0.1910    7.2710 O.2       5 ALL1        0.0000 
     16 O          18.4540    1.2250    8.1860 O.2       3 ALP1        0.0000 
     17 O          21.9695   -0.8170    6.1600 O.2       1 ALC1        0.0000 
     18 O          22.3640   -1.8250    5.0490 O.2       3 ALP1        0.0000 
     19 CA         25.0197    0.4937   14.1777 C.3       2 GLC5        0.0000 
     20 CA         23.5310    1.5250   14.1610 C.3       4 GLP5        0.0000 
     21 CA         24.3582   -0.3335   14.1852 C.3       2 GLC5        0.0000 
     22 CA         25.4640   -1.9100   14.7990 C.3       6 GLL5        0.0000 
     23 CA         23.2007   -1.5630   12.9228 C.3       2 GLC5        0.0000 
     24 CA         24.9070   -2.4740   13.6200 C.3       6 GLL5        0.0000 
     25 CA         21.3320   -0.9230   12.8510 C.3       4 GLP5        0.0000 
     26 CA         24.5995    0.0742   13.2688 C.3       2 GLC5        0.0000 
     27 CA         25.2320   -1.9320   12.3690 C.3       6 GLL5        0.0000 
     28 CA         22.3603    0.4322   11.5520 C.3       2 GLC5        0.0000 
     29 CA         23.9900    1.4170   10.3740 C.3       6 GLL5        0.0000 
     30 CA         23.4597    1.6562   12.2070 C.3       2 GLC5        0.0000 
     31 CA         20.8878    2.4285   10.3940 C.3       2 GLC5        0.0000 
     32 CA         22.7870    2.1580   10.1320 C.3       6 GLL5        0.0000 
     33 CA         19.4240    2.9090   11.1800 C.3       4 GLP5        0.0000 
     34 CA         24.8125    2.7768    9.5851 C.3       2 GLC5        0.0000 
     35 CA         26.1610    4.0430    9.1230 C.3       4 GLP5        0.0000 
     36 CA         22.0422    3.8705    9.7515 C.3       2 GLC5        0.0000 
     37 CA         21.7330    5.7930    9.8950 C.3       4 GLP5        0.0000 
     38 CA         22.1653    2.6100    7.3003 C.3       2 GLC5        0.0000 
     39 CA         21.9160    1.7380    9.0840 C.3       6 GLL5        0.0000 
     40 CA         22.2220    4.0280    5.9150 C.3       4 GLP5        0.0000 
     41 CA         21.0847   -0.0890    9.6852 C.3       2 GLC5        0.0000 
     42 CA         20.0610   -1.3700   10.6850 C.3       4 GLP5        0.0000 
@<TRIPOS>BOND
@<TRIPOS>SUBSTRUCTURE
     1 ALC1       14 GROUP        1 X    ALC  0     ROOT ALC X 1
     2 GLC5        1 GROUP        1 X    GLC  0     **** GLC X 6
     3 ALP1       16 GROUP        1 Y    ALP  0     ROOT ALP Y 8
     4 GLP5        3 GROUP        1 Y    GLP  0     **** GLP Y 13
     5 ALL1       15 GROUP        1 Z    ALL  0     ROOT ALL Z 15
     6 GLL5        2 GROUP        1 Z    GLL  0     **** GLL Z 20
@<TRIPOS>SET

