#    Name: 4epx_0QR_1_ligand
#    Modification time : Mon Mar 24 18:23:47 2014

@<TRIPOS>MOLECULE
4epx_0QR_1_ligand
   28    29     1     0     0
SMALL
NO_CHARGES


@<TRIPOS>ATOM
      1 CAD        26.6560   -0.2720   13.5650 C.ar      1 0QR203      0.0000 
      2 CAE        26.3610   -0.8030   14.8240 C.ar      1 0QR203      0.0000 
      3 CAF        25.4640   -1.9100   14.7990 C.ar      1 0QR203      0.0000 
      4 FAG        25.0900   -2.5010   15.9370 F         1 0QR203      0.0000 
      5 CAH        24.9070   -2.4740   13.6200 C.ar      1 0QR203      0.0000 
      6 CAI        25.2320   -1.9320   12.3690 C.ar      1 0QR203      0.0000 
      7 CAC        26.1040   -0.8210   12.3840 C.ar      1 0QR203      0.0000 
      8 SAB        26.5770   -0.0910   10.8240 S.o2      1 0QR203      0.0000 
      9 OAA        27.8850   -0.7730   10.3390 O.2       1 0QR203      0.0000 
     10 OAR        26.8030    1.3890   11.1190 O.2       1 0QR203      0.0000 
     11 NA2        25.4150   -0.4720    9.6880 N.pl3     1 0QR203      0.0000 
     12 CAK        24.2920    0.3090    9.5510 C.ar      1 0QR203      0.0000 
     13 NA3        23.4410   -0.0320    8.5370 N.ar      1 0QR203      0.0000 
     14 CAQ        23.9900    1.4170   10.3740 C.ar      1 0QR203      0.0000 
     15 CAP        22.7870    2.1580   10.1320 C.ar      1 0QR203      0.0000 
     16 CAO        21.9160    1.7380    9.0840 C.ar      1 0QR203      0.0000 
     17 CAM        22.3010    0.6460    8.2870 C.ar      1 0QR203      0.0000 
     18 NA1        21.5750    0.1910    7.2710 N.pl3     1 0QR203      0.0000 
     19 H          27.2909    0.5399   13.4877 H         1 0QR203      0.0000 
     20 H          26.7331   -0.4528   15.6623 H         1 0QR203      0.0000 
     21 H          24.2740   -3.2701   13.6927 H         1 0QR203      0.0000 
     22 H          24.8731   -2.3034   11.5191 H         1 0QR203      0.0000 
     23 H          25.6522   -1.2899    9.1710 H         1 0QR203      0.0000 
     24 H          24.6080    1.6910   11.1258 H         1 0QR203      0.0000 
     25 H          22.5633    2.9629   10.6958 H         1 0QR203      0.0000 
     26 H          21.0434    2.2207    8.9253 H         1 0QR203      0.0000 
     27 H          20.7493    0.7112    7.0524 H         1 0QR203      0.0000 
     28 H          21.9199   -0.6305    6.8169 H         1 0QR203      0.0000 
@<TRIPOS>BOND
     1    2    1 ar   
     2    7    1 ar   
     3   19    1 1    
     4    3    2 ar   
     5   20    2 1    
     6    4    3 1    
     7    5    3 ar   
     8    6    5 ar   
     9   21    5 1    
    10    7    6 ar   
    11   22    6 1    
    12    8    7 1    
    13    9    8 2    
    14   10    8 2    
    15   11    8 1    
    16   12   11 1    
    17   23   11 1    
    18   13   12 ar   
    19   14   12 ar   
    20   17   13 ar   
    21   15   14 ar   
    22   24   14 1    
    23   16   15 ar   
    24   25   15 1    
    25   17   16 ar   
    26   26   16 1    
    27   18   17 1    
    28   27   18 1    
    29   28   18 1    
@<TRIPOS>SUBSTRUCTURE
     1 0QR203      1 GROUP   
@<TRIPOS>SET

