#    Name: 3w1t_WRO_1_INTS_M
#    Modification time : Tue Mar 25 01:59:39 2014

@<TRIPOS>MOLECULE
3w1t_WRO_1_INTS_M
   52     0    12     0     0
SMALL
NO_CHARGES


@<TRIPOS>ATOM
      1 NZ          8.3905   18.5760   15.2320 N.4       3 LYC4        0.0000 
      2 NZ          7.0190   18.2740   14.4430 N.4      11 LYL4        0.0000 
      3 NZ          9.7620   18.8780   16.0210 N.4       7 LYP4        0.0000 
      4 N           6.6905   19.5345   13.8190 N.am      2 SEC2        0.0000 
      5 N           7.0190   18.2740   14.4430 N.am     10 SEL2        0.0000 
      6 N           6.3620   20.7950   13.1950 N.am      6 SEP2        0.0000 
      7 N           4.4400   18.8000   14.3830 N.am      2 SEC2        0.0000 
      8 N           5.0330   17.3100   14.5100 N.am     10 SEL2        0.0000 
      9 N           3.8470   20.2900   14.2560 N.am      6 SEP2        0.0000 
     10 CA          7.9235   15.6865   16.2210 C.3       4 GLC5        0.0000 
     11 CA          6.8310   15.9080   14.4250 C.3      12 GLL5        0.0000 
     12 CA          9.0160   15.4650   18.0170 C.3       8 GLP5        0.0000 
     13 O           5.3150   15.4550   16.4845 O.2       1 ALC1        0.0000 
     14 O           6.3160   15.1260   15.4610 O.2       9 ALL1        0.0000 
     15 O           4.3140   15.7840   17.5080 O.2       5 ALP1        0.0000 
     16 N           5.4415   13.4995   17.5965 N.am      2 SEC2        0.0000 
     17 N           6.2570   13.0280   16.4650 N.am     10 SEL2        0.0000 
     18 N           4.6260   13.9710   18.7280 N.am      6 SEP2        0.0000 
     19 N           5.6595   11.7025   16.1820 N.am      2 SEC2        0.0000 
     20 N           5.0620   10.3770   15.8990 N.am      6 SEP2        0.0000 
     21 O           8.0130   11.9035   14.6170 O.2       1 ALC1        0.0000 
     22 O           7.6650   13.2920   14.6980 O.2       9 ALL1        0.0000 
     23 O           8.3610   10.5150   14.5360 O.2       5 ALP1        0.0000 
     24 N          10.0650   13.7245   11.8480 N.am      2 SEC2        0.0000 
     25 N           8.9250   13.5450   12.7900 N.am     10 SEL2        0.0000 
     26 N          11.2050   13.9040   10.9060 N.am      6 SEP2        0.0000 
     27 N           9.3400   12.1545   12.8575 N.am      2 SEC2        0.0000 
     28 N           9.7550   10.7640   12.9250 N.am      6 SEP2        0.0000 
     29 CA          9.2360   17.8200   12.2045 C.3       4 GLC5        0.0000 
     30 CA          8.1870   16.1990   12.4510 C.3      12 GLL5        0.0000 
     31 CA         10.2850   19.4410   11.9580 C.3       8 GLP5        0.0000 
     32 CA          7.8810   18.6335    9.8345 C.3       4 GLC5        0.0000 
     33 CA          6.4060   17.5160   10.0590 C.3      12 GLL5        0.0000 
     34 CA          9.3560   19.7510    9.6100 C.3       8 GLP5        0.0000 
     35 CA          7.6510   19.8005    9.0385 C.3       4 GLC5        0.0000 
     36 CA          5.9460   19.8500    8.4670 C.3      12 GLL5        0.0000 
     37 CA          7.0140   20.1835    7.0295 C.3       4 GLC5        0.0000 
     38 CA          8.0820   20.5170    5.5920 C.3       8 GLP5        0.0000 
     39 CA          5.9558   16.0935    8.6380 C.3       4 GLC5        0.0000 
     40 CA          6.4810   16.2520   10.7510 C.3      12 GLL5        0.0000 
     41 CA          5.4680   15.3030    6.8710 C.3       8 GLP5        0.0000 
     42 CA          4.4005   20.4292   11.2395 C.3       4 GLC5        0.0000 
     43 CA          4.9950   19.3610    9.0590 C.3      12 GLL5        0.0000 
     44 CA          3.9460   21.0640   12.9960 C.3       8 GLP5        0.0000 
     45 CA          4.6977   17.8792    7.4110 C.3       4 GLC5        0.0000 
     46 CA          4.3370   16.2180    6.4930 C.3       8 GLP5        0.0000 
     47 CA          6.5057   20.0501   10.5738 C.3       4 GLC5        0.0000 
     48 CA          5.1370   18.0560    9.7690 C.3      12 GLL5        0.0000 
     49 CA          8.1210   20.6320   11.4870 C.3       8 GLP5        0.0000 
     50 CA          4.4225   17.1279    8.1425 C.3       4 GLC5        0.0000 
     51 CA          5.0580   15.5730    8.9180 C.3       4 GLC5        0.0000 
     52 CA          4.0090   16.1190   10.8280 C.3      12 GLL5        0.0000 
@<TRIPOS>BOND
@<TRIPOS>SUBSTRUCTURE
     1 ALC1       13 GROUP        1 X    ALC  0     ROOT ALC X 1
     2 SEC2        4 GROUP        1 X    SEC  0     **** SEC X 2
     3 LYC4        1 GROUP        1 X    LYC  0     **** LYC X 4
     4 GLC5       10 GROUP        1 X    GLC  0     **** GLC X 6
     5 ALP1       15 GROUP        1 Y    ALP  0     ROOT ALP Y 8
     6 SEP2        6 GROUP        1 Y    SEP  0     **** SEP Y 9
     7 LYP4        3 GROUP        1 Y    LYP  0     **** LYP Y 11
     8 GLP5       12 GROUP        1 Y    GLP  0     **** GLP Y 13
     9 ALL1       14 GROUP        1 Z    ALL  0     ROOT ALL Z 15
    10 SEL2        5 GROUP        1 Z    SEL  0     **** SEL Z 16
    11 LYL4        2 GROUP        1 Z    LYL  0     **** LYL Z 18
    12 GLL5       11 GROUP        1 Z    GLL  0     **** GLL Z 20
@<TRIPOS>SET

