#    Name: 3w1t_WRO_1_ligand
#    Modification time : Tue Mar 25 01:59:39 2014

@<TRIPOS>MOLECULE
3w1t_WRO_1_ligand
   33    34     1     0     0
SMALL
NO_CHARGES


@<TRIPOS>ATOM
      1 OAA         7.0190   18.2740   14.4430 O.co2     1 WRO401      0.0000 
      2 CAP         6.2740   17.2880   14.4340 C.2       1 WRO401      0.0000 
      3 OAD         5.0330   17.3100   14.5100 O.co2     1 WRO401      0.0000 
      4 CAS         6.8310   15.9080   14.4250 C.2       1 WRO401      0.0000 
      5 NAN         6.3160   15.1260   15.4610 N.am      1 WRO401      0.0000 
      6 CAU         6.7390   13.7800   15.6230 C.2       1 WRO401      0.0000 
      7 OAB         6.2570   13.0280   16.4650 O.2       1 WRO401      0.0000 
      8 NAO         7.6650   13.2920   14.6980 N.am      1 WRO401      0.0000 
      9 CAV         8.1470   14.0460   13.6030 C.2       1 WRO401      0.0000 
     10 OAC         8.9250   13.5450   12.7900 O.2       1 WRO401      0.0000 
     11 CAT         7.7210   15.4060   13.4900 C.2       1 WRO401      0.0000 
     12 CAM         8.1870   16.1990   12.4510 C.3       1 WRO401      0.0000 
     13 CAL         7.6550   15.7070   11.0860 C.3       1 WRO401      0.0000 
     14 CAQ         6.4810   16.2520   10.7510 C.ar      1 WRO401      0.0000 
     15 CAK         6.4060   17.5160   10.0590 C.ar      1 WRO401      0.0000 
     16 CAR         5.1370   18.0560    9.7690 C.ar      1 WRO401      0.0000 
     17 CAW         4.9950   19.3610    9.0590 C.3       1 WRO401      0.0000 
     18 FAF         5.9460   19.8500    8.4670 F         1 WRO401      0.0000 
     19 FAG         4.1710   19.2310    8.1910 F         1 WRO401      0.0000 
     20 FAE         4.7150   20.2280    9.9070 F         1 WRO401      0.0000 
     21 CAJ         3.9500   17.3670   10.1700 C.ar      1 WRO401      0.0000 
     22 CAH         4.0090   16.1190   10.8280 C.ar      1 WRO401      0.0000 
     23 CAI         5.2870   15.5670   11.1020 C.ar      1 WRO401      0.0000 
     24 H           5.6284   15.5159   16.1136 H         1 WRO401      0.0000 
     25 H           8.0265   12.3148   14.8158 H         1 WRO401      0.0000 
     26 H           9.2909   16.2024   12.3754 H         1 WRO401      0.0000 
     27 H           7.8772   17.2570   12.5463 H         1 WRO401      0.0000 
     28 H           7.6285   14.5883   11.1612 H         1 WRO401      0.0000 
     29 H           8.4763   15.9172   10.3518 H         1 WRO401      0.0000 
     30 H           7.2540   17.9917    9.7946 H         1 WRO401      0.0000 
     31 H           3.0366   17.7963    9.9713 H         1 WRO401      0.0000 
     32 H           3.1697   15.6321   11.0964 H         1 WRO401      0.0000 
     33 H           5.3512   14.6504   11.5651 H         1 WRO401      0.0000 
@<TRIPOS>BOND
     1    2    1 ar   
     2    3    2 ar   
     3    4    2 1    
     4    5    4 1    
     5   11    4 2    
     6    6    5 am   
     7   24    5 1    
     8    7    6 2    
     9    8    6 am   
    10    9    8 am   
    11   25    8 1    
    12   10    9 2    
    13   11    9 1    
    14   12   11 1    
    15   13   12 1    
    16   26   12 1    
    17   27   12 1    
    18   14   13 1    
    19   28   13 1    
    20   29   13 1    
    21   15   14 ar   
    22   23   14 ar   
    23   16   15 ar   
    24   30   15 1    
    25   17   16 1    
    26   21   16 ar   
    27   18   17 1    
    28   19   17 1    
    29   20   17 1    
    30   22   21 ar   
    31   31   21 1    
    32   23   22 ar   
    33   32   22 1    
    34   33   23 1    
@<TRIPOS>SUBSTRUCTURE
     1 WRO401      1 GROUP   
@<TRIPOS>SET

