#    Name: 3bxx_QUE_8_INTS_M
#    Modification time : Mon Mar 24 20:12:46 2014

@<TRIPOS>MOLECULE
3bxx_QUE_8_INTS_M
   55     0     9     0     0
SMALL
NO_CHARGES


@<TRIPOS>ATOM
      1 CA          9.6665   70.4310   44.2360 C.3       3 GLC5        0.0000 
      2 CA         10.2320   68.7180   43.1560 C.3       9 GLL5        0.0000 
      3 CA          9.1010   72.1440   45.3160 C.3       6 GLP5        0.0000 
      4 CA         10.4725   67.7655   41.3275 C.3       3 GLC5        0.0000 
      5 CA         10.7130   66.8130   39.4990 C.3       6 GLP5        0.0000 
      6 CA         10.3125   71.3910   43.7455 C.3       3 GLC5        0.0000 
      7 CA         11.0740   69.8200   43.3780 C.3       9 GLL5        0.0000 
      8 CA          9.5510   72.9620   44.1130 C.3       6 GLP5        0.0000 
      9 CA          8.7260   63.8365   46.5685 C.3       3 GLC5        0.0000 
     10 CA         10.0680   65.4900   45.9860 C.3       9 GLL5        0.0000 
     11 CA          7.3840   62.1830   47.1510 C.3       6 GLP5        0.0000 
     12 CA          9.7725   66.2125   47.6355 C.3       3 GLC5        0.0000 
     13 CA          9.4770   66.9350   49.2850 C.3       6 GLP5        0.0000 
     14 CA          6.0275   65.0095   46.3930 C.3       3 GLC5        0.0000 
     15 CA          7.0100   64.6630   44.5090 C.3       9 GLL5        0.0000 
     16 CA          5.0450   65.3560   48.2770 C.3       6 GLP5        0.0000 
     17 CA          6.1080   66.5450   44.4440 C.3       3 GLC5        0.0000 
     18 CA          5.2060   68.4270   44.3790 C.3       6 GLP5        0.0000 
     19 CA          4.8940   64.1960   46.0140 C.3       3 GLC5        0.0000 
     20 CA          6.0700   63.6850   44.2340 C.3       9 GLL5        0.0000 
     21 CA          3.7180   64.7070   47.7940 C.3       6 GLP5        0.0000 
     22 N          11.9345   65.1120   47.6435 N.am      2 SEC2        0.0000 
     23 N          11.6520   66.6660   47.2950 N.am      8 SEL2        0.0000 
     24 N          12.2170   63.5580   47.9920 N.am      5 SEP2        0.0000 
     25 N           7.9050   59.6825   43.5855 N.am      2 SEC2        0.0000 
     26 N           8.4010   60.8430   43.4970 N.am      8 SEL2        0.0000 
     27 N           7.4090   58.5220   43.6740 N.am      5 SEP2        0.0000 
     28 O           4.2370   61.8470   43.7495 O.2       1 ALC1        0.0000 
     29 O           5.4850   61.5160   43.6660 O.2       7 ALL1        0.0000 
     30 O           2.9890   62.1780   43.8330 O.2       4 ALP1        0.0000 
     31 N           9.6585   63.2725   47.7560 N.am      2 SEC2        0.0000 
     32 N           9.9800   64.4280   46.8450 N.am      8 SEL2        0.0000 
     33 N           9.3370   62.1170   48.6670 N.am      5 SEP2        0.0000 
     34 O          11.0985   63.9930   47.4185 O.2       1 ALC1        0.0000 
     35 O           9.9800   64.4280   46.8450 O.2       7 ALL1        0.0000 
     36 O          12.2170   63.5580   47.9920 O.2       4 ALP1        0.0000 
     37 N          10.5040   70.9440   41.3275 N.am      2 SEC2        0.0000 
     38 N          11.1080   70.8280   42.4580 N.am      8 SEL2        0.0000 
     39 N           9.9000   71.0600   40.1970 N.am      5 SEP2        0.0000 
     40 CA         10.5043   70.7990   45.1590 C.3       3 GLC5        0.0000 
     41 CA         11.8860   69.9440   44.5060 C.3       9 GLL5        0.0000 
     42 CA          9.5755   70.2955   41.7770 C.3       3 GLC5        0.0000 
     43 CA          8.4980   71.3220   40.2870 C.3       6 GLP5        0.0000 
     44 CA          8.8383   69.3273   43.2820 C.3       3 GLC5        0.0000 
     45 CA          7.0390   69.6440   43.0670 C.3       6 GLP5        0.0000 
     46 CA          7.5358   63.3560   45.8143 C.3       3 GLC5        0.0000 
     47 CA          8.3650   64.3950   44.4460 C.3       9 GLL5        0.0000 
     48 CA          6.8328   62.6160   45.6078 C.3       3 GLC5        0.0000 
     49 CA          7.8808   62.3962   45.5538 C.3       3 GLC5        0.0000 
     50 CA          7.9420   62.0900   43.8150 C.3       9 GLL5        0.0000 
     51 CA          9.6523   61.2782   44.7938 C.3       3 GLC5        0.0000 
     52 CA         10.9270   59.9470   45.6310 C.3       6 GLP5        0.0000 
     53 CA          8.9075   64.4546   42.3558 C.3       3 GLC5        0.0000 
     54 CA          8.8130   63.1290   44.0980 C.3       9 GLL5        0.0000 
     55 CA          8.9990   64.8610   40.3670 C.3       6 GLP5        0.0000 
@<TRIPOS>BOND
@<TRIPOS>SUBSTRUCTURE
     1 ALC1       28 GROUP        1 X    ALC  0     ROOT ALC X 1
     2 SEC2       22 GROUP        1 X    SEC  0     **** SEC X 2
     3 GLC5        1 GROUP        1 X    GLC  0     **** GLC X 6
     4 ALP1       30 GROUP        1 Y    ALP  0     ROOT ALP Y 8
     5 SEP2       24 GROUP        1 Y    SEP  0     **** SEP Y 9
     6 GLP5        3 GROUP        1 Y    GLP  0     **** GLP Y 13
     7 ALL1       29 GROUP        1 Z    ALL  0     ROOT ALL Z 15
     8 SEL2       23 GROUP        1 Z    SEL  0     **** SEL Z 16
     9 GLL5        2 GROUP        1 Z    GLL  0     **** GLL Z 20
@<TRIPOS>SET

