#    Name: 3bxx_QUE_8_ligand
#    Modification time : Mon Mar 24 20:12:46 2014

@<TRIPOS>MOLECULE
3bxx_QUE_8_ligand
   32    34     1     0     0
SMALL
NO_CHARGES


@<TRIPOS>ATOM
      1 C1         11.8860   69.9440   44.5060 C.ar      1 QUE341      0.0000 
      2 C2         11.9290   68.9640   45.4980 C.ar      1 QUE341      0.0000 
      3 C3         11.0450   67.7620   45.2860 C.ar      1 QUE341      0.0000 
      4 C4         10.1700   67.6840   44.0760 C.ar      1 QUE341      0.0000 
      5 C5         10.2320   68.7180   43.1560 C.ar      1 QUE341      0.0000 
      6 C6         11.0740   69.8200   43.3780 C.ar      1 QUE341      0.0000 
      7 C9         10.9680   66.6360   46.2570 C.2       1 QUE341      0.0000 
      8 C10        10.0680   65.4900   45.9860 C.2       1 QUE341      0.0000 
      9 C11         9.2730   65.5400   44.7360 C.2       1 QUE341      0.0000 
     10 C14         8.3650   64.3950   44.4460 C.ar      1 QUE341      0.0000 
     11 C15         7.0100   64.6630   44.5090 C.ar      1 QUE341      0.0000 
     12 C16         6.0700   63.6850   44.2340 C.ar      1 QUE341      0.0000 
     13 C17         6.4930   62.4130   43.8950 C.ar      1 QUE341      0.0000 
     14 C18         7.9420   62.0900   43.8150 C.ar      1 QUE341      0.0000 
     15 C19         8.8130   63.1290   44.0980 C.ar      1 QUE341      0.0000 
     16 O12         9.3380   66.6220   43.8640 O.3       1 QUE341      0.0000 
     17 O13        11.6520   66.6660   47.2950 O.2       1 QUE341      0.0000 
     18 O23         8.4010   60.8430   43.4970 O.3       1 QUE341      0.0000 
     19 O24         5.4850   61.5160   43.6660 O.3       1 QUE341      0.0000 
     20 O27         9.9800   64.4280   46.8450 O.3       1 QUE341      0.0000 
     21 O29        11.1080   70.8280   42.4580 O.3       1 QUE341      0.0000 
     22 O30        12.7500   69.1430   46.5980 O.3       1 QUE341      0.0000 
     23 H          12.4779   70.7940   44.6104 H         1 QUE341      0.0000 
     24 H           9.6595   68.6862   42.3000 H         1 QUE341      0.0000 
     25 H           6.6903   65.6179   44.7680 H         1 QUE341      0.0000 
     26 H           5.0679   63.9027   44.2815 H         1 QUE341      0.0000 
     27 H           9.8422   62.9544   44.0480 H         1 QUE341      0.0000 
     28 H           9.0274   60.9856   42.7307 H         1 QUE341      0.0000 
     29 H           4.6411   62.0328   43.8103 H         1 QUE341      0.0000 
     30 H          10.9193   64.2577   47.1428 H         1 QUE341      0.0000 
     31 H          11.7053   71.5232   42.8579 H         1 QUE341      0.0000 
     32 H          12.6127   68.3266   47.1589 H         1 QUE341      0.0000 
@<TRIPOS>BOND
     1    2    1 ar   
     2    6    1 ar   
     3   23    1 1    
     4    3    2 ar   
     5   22    2 1    
     6    4    3 ar   
     7    7    3 1    
     8    5    4 ar   
     9   16    4 1    
    10    6    5 ar   
    11   24    5 1    
    12   21    6 1    
    13    8    7 1    
    14   17    7 2    
    15    9    8 2    
    16   20    8 1    
    17   10    9 1    
    18   16    9 1    
    19   11   10 ar   
    20   15   10 ar   
    21   12   11 ar   
    22   25   11 1    
    23   13   12 ar   
    24   26   12 1    
    25   14   13 ar   
    26   19   13 1    
    27   15   14 ar   
    28   18   14 1    
    29   27   15 1    
    30   28   18 1    
    31   29   19 1    
    32   30   20 1    
    33   31   21 1    
    34   32   22 1    
@<TRIPOS>SUBSTRUCTURE
     1 QUE341      1 GROUP   
@<TRIPOS>SET

