#    Name: 2fo0_P16_1_INTS_M
#    Modification time : Tue Mar 25 12:59:52 2014

@<TRIPOS>MOLECULE
2fo0_P16_1_INTS_M
   85     0     9     0     0
SMALL
NO_CHARGES


@<TRIPOS>ATOM
      1 CA          2.7325   10.4860   11.5310 C.3       3 GLC5        0.0000 
      2 CA          4.3140    8.9470   11.8650 C.3       9 GLL5        0.0000 
      3 CA          1.1510   12.0250   11.1970 C.3       6 GLP5        0.0000 
      4 CA          4.8670   11.5625   17.3045 C.3       3 GLC5        0.0000 
      5 CA          3.8310   10.3250   16.0440 C.3       9 GLL5        0.0000 
      6 CA          5.9030   12.8000   18.5650 C.3       6 GLP5        0.0000 
      7 O           3.3380   13.2390   14.1090 O.2       1 ALC1        0.0000 
      8 O           2.8010   12.4650   15.1300 O.2       7 ALL1        0.0000 
      9 O           3.8750   14.0130   13.0880 O.2       4 ALP1        0.0000 
     10 CA          0.6355   11.4565   15.8335 C.3       3 GLC5        0.0000 
     11 CA          2.0890   12.9590   16.2240 C.3       9 GLL5        0.0000 
     12 CA         -0.8180    9.9540   15.4430 C.3       6 GLP5        0.0000 
     13 CA          3.2415   14.5200   15.6800 C.3       3 GLC5        0.0000 
     14 CA          4.3940   16.0810   15.1360 C.3       6 GLP5        0.0000 
     15 CA          3.1200   13.7300   17.6845 C.3       3 GLC5        0.0000 
     16 CA          4.1510   14.5010   19.1450 C.3       6 GLP5        0.0000 
     17 N           1.8835   15.1765   15.0550 N.am      2 SEC2        0.0000 
     18 N           1.5650   14.2520   16.0740 N.am      8 SEL2        0.0000 
     19 N           2.2020   16.1010   14.0360 N.am      5 SEP2        0.0000 
     20 CA          0.3350   15.5670   15.3100 C.3       3 GLC5        0.0000 
     21 CA          0.8340   14.7480   17.1000 C.3       9 GLL5        0.0000 
     22 CA         -0.1640   16.3860   13.5200 C.3       6 GLP5        0.0000 
     23 CA          2.4085   15.8920   16.6775 C.3       3 GLC5        0.0000 
     24 CA          3.9830   17.0360   16.2550 C.3       6 GLP5        0.0000 
     25 CA          0.1960   16.4205   19.6155 C.3       3 GLC5        0.0000 
     26 CA         -0.2160   14.5010   19.4260 C.3       9 GLL5        0.0000 
     27 CA          0.6080   18.3400   19.8050 C.3       6 GLP5        0.0000 
     28 CA         -1.7080   16.1715   19.2425 C.3       3 GLC5        0.0000 
     29 CA         -3.2000   17.8420   19.0590 C.3       6 GLP5        0.0000 
     30 CA         -1.4010   11.8675   19.8625 C.3       3 GLC5        0.0000 
     31 CA         -0.4040   13.7320   20.5600 C.3       9 GLL5        0.0000 
     32 CA         -2.3980   10.0030   19.1650 C.3       6 GLP5        0.0000 
     33 CA          0.1825   11.3205   16.9075 C.3       3 GLC5        0.0000 
     34 CA          1.1830   12.6870   18.3720 C.3       9 GLL5        0.0000 
     35 CA          2.2935    9.1220   20.0905 C.3       3 GLC5        0.0000 
     36 CA          1.6390   10.5590   19.5640 C.3       9 GLL5        0.0000 
     37 CA          2.9480    7.6850   20.6170 C.3       6 GLP5        0.0000 
     38 CA         -0.3795   10.2810   19.3645 C.3       3 GLC5        0.0000 
     39 CA          1.9950   16.4820   21.8595 C.3       3 GLC5        0.0000 
     40 CA          1.0620   14.9590   23.0840 C.3       9 GLL5        0.0000 
     41 CA          2.9280   18.0050   20.6350 C.3       6 GLP5        0.0000 
     42 CA          2.6770   14.6575   23.4595 C.3       3 GLC5        0.0000 
     43 CA          4.2920   14.3560   23.8350 C.3       6 GLP5        0.0000 
     44 CA          1.5625   13.6195   24.4900 C.3       3 GLC5        0.0000 
     45 CA          2.0630   12.2800   25.8960 C.3       6 GLP5        0.0000 
     46 CA         -2.9520   11.6995   19.7115 C.3       3 GLC5        0.0000 
     47 CA         -3.5060   13.3960   20.2580 C.3       9 GLL5        0.0000 
     48 CA         -2.9930   13.5485   18.4165 C.3       3 GLC5        0.0000 
     49 CA         -2.4800   13.7010   16.5750 C.3       6 GLP5        0.0000 
     50 CA         -5.0880   12.8295   19.0220 C.3       3 GLC5        0.0000 
     51 CA         -6.6700   12.2630   17.7860 C.3       6 GLP5        0.0000 
     52 CA         -3.6550   15.4665   20.3370 C.3       3 GLC5        0.0000 
     53 CA         -3.8040   17.5370   20.4160 C.3       6 GLP5        0.0000 
     54 CA          2.4890    8.6737   14.4748 C.3       3 GLC5        0.0000 
     55 CA          4.5570    8.6000   14.4160 C.3       9 GLL5        0.0000 
     56 CA          0.4990    8.5230   13.8630 C.3       6 GLP5        0.0000 
     57 CA          5.8075    9.9477   14.7722 C.3       3 GLC5        0.0000 
     58 CA          7.1360   11.0710   14.4580 C.3       6 GLP5        0.0000 
     59 CA          2.0585    9.6375   14.6827 C.3       3 GLC5        0.0000 
     60 CA          5.3770   10.9115   14.9803 C.3       3 GLC5        0.0000 
     61 CA          3.4050   11.1790   14.9610 C.3       9 GLL5        0.0000 
     62 CA         -1.3950   13.9087   18.2840 C.3       3 GLC5        0.0000 
     63 CA         -0.7670   13.6170   17.3068 C.3       3 GLC5        0.0000 
     64 CA          2.4329   14.0322   18.8069 C.3       3 GLC5        0.0000 
     65 CA         -2.8820   15.8342   21.0508 C.3       3 GLC5        0.0000 
     66 CA         -1.2370   14.1900   21.7080 C.3       9 GLL5        0.0000 
     67 CA         -0.5440   14.0922   25.2315 C.3       3 GLC5        0.0000 
     68 CA         -0.6620   14.7620   22.9050 C.3       9 GLL5        0.0000 
     69 CA         -0.0060   13.2100   27.0160 C.3       6 GLP5        0.0000 
     70 CA         -3.6193   13.1103   24.1515 C.3       3 GLC5        0.0000 
     71 CA         -2.9190   15.0500   23.8980 C.3       9 GLL5        0.0000 
     72 CA         -4.0220   11.4480   24.9850 C.3       6 GLP5        0.0000 
     73 CA         -4.9863   15.5158   23.2115 C.3       3 GLC5        0.0000 
     74 CA         -3.5140   14.4950   22.7380 C.3       9 GLL5        0.0000 
     75 CA         -6.7560   16.2590   23.1050 C.3       6 GLP5        0.0000 
     76 CA         -3.5103   16.1547   21.8670 C.3       3 GLC5        0.0000 
     77 CA         -3.2521   16.4829   24.2144 C.3       3 GLC5        0.0000 
     78 CA         -3.6420   18.1590   25.0880 C.3       6 GLP5        0.0000 
     79 CA         -4.4708   12.5917   21.6947 C.3       3 GLC5        0.0000 
     80 CA         -2.6830   14.0730   21.6630 C.3       9 GLL5        0.0000 
     81 CA         -5.8470   11.4490   22.4290 C.3       6 GLP5        0.0000 
     82 CA          2.1980    9.2380   13.4767 C.3       3 GLC5        0.0000 
     83 CA          3.5670   10.7150   13.5920 C.3       9 GLL5        0.0000 
     84 CA          5.5165   10.5120   13.7743 C.3       3 GLC5        0.0000 
     85 CA          4.1400    9.4350   13.3130 C.3       9 GLL5        0.0000 
@<TRIPOS>BOND
@<TRIPOS>SUBSTRUCTURE
     1 ALC1        7 GROUP        1 X    ALC  0     ROOT ALC X 1
     2 SEC2       17 GROUP        1 X    SEC  0     **** SEC X 2
     3 GLC5        1 GROUP        1 X    GLC  0     **** GLC X 6
     4 ALP1        9 GROUP        1 Y    ALP  0     ROOT ALP Y 8
     5 SEP2       19 GROUP        1 Y    SEP  0     **** SEP Y 9
     6 GLP5        3 GROUP        1 Y    GLP  0     **** GLP Y 13
     7 ALL1        8 GROUP        1 Z    ALL  0     ROOT ALL Z 15
     8 SEL2       18 GROUP        1 Z    SEL  0     **** SEL Z 16
     9 GLL5        2 GROUP        1 Z    GLL  0     **** GLL Z 20
@<TRIPOS>SET

