#    Name: 2fo0_P16_1_ligand
#    Modification time : Tue Mar 25 12:59:52 2014

@<TRIPOS>MOLECULE
2fo0_P16_1_ligand
   45    48     1     0     0
SMALL
NO_CHARGES


@<TRIPOS>ATOM
      1 O1          3.1060    8.6960   11.1860 O.3       1 P162        0.0000 
      2 C2          4.3140    8.9470   11.8650 C.3       1 P162        0.0000 
      3 C3          4.1400    9.4350   13.3130 C.ar      1 P162        0.0000 
      4 C4          4.5570    8.6000   14.4160 C.ar      1 P162        0.0000 
      5 C5          4.4010    9.0490   15.7570 C.ar      1 P162        0.0000 
      6 C6          3.8310   10.3250   16.0440 C.ar      1 P162        0.0000 
      7 C7          3.4050   11.1790   14.9610 C.ar      1 P162        0.0000 
      8 N9          2.8010   12.4650   15.1300 N.pl3     1 P162        0.0000 
      9 C10         2.0890   12.9590   16.2240 C.ar      1 P162        0.0000 
     10 N11         1.5650   14.2520   16.0740 N.ar      1 P162        0.0000 
     11 C12         0.8340   14.7480   17.1000 C.ar      1 P162        0.0000 
     12 C13         0.5840   14.0100   18.3100 C.ar      1 P162        0.0000 
     13 C16        -0.2160   14.5010   19.4260 C.2       1 P162        0.0000 
     14 C17        -0.4040   13.7320   20.5600 C.2       1 P162        0.0000 
     15 C18         0.2160   12.3630   20.6620 C.2       1 P162        0.0000 
     16 O21         0.1140   11.6140   21.6250 O.2       1 P162        0.0000 
     17 N19         1.0110   11.9030   19.5240 N.am      1 P162        0.0000 
     18 C14         1.1830   12.6870   18.3720 C.ar      1 P162        0.0000 
     19 N15         1.9140   12.2010   17.3260 N.ar      1 P162        0.0000 
     20 C20         1.6390   10.5590   19.5640 C.3       1 P162        0.0000 
     21 C22        -1.2370   14.1900   21.7080 C.ar      1 P162        0.0000 
     22 C27        -0.6620   14.7620   22.9050 C.ar      1 P162        0.0000 
     23 CL28        1.0620   14.9590   23.0840 Cl        1 P162        0.0000 
     24 C26        -1.5020   15.1870   23.9890 C.ar      1 P162        0.0000 
     25 C25        -2.9190   15.0500   23.8980 C.ar      1 P162        0.0000 
     26 C24        -3.5140   14.4950   22.7380 C.ar      1 P162        0.0000 
     27 C23        -2.6830   14.0730   21.6630 C.ar      1 P162        0.0000 
     28 CL29       -3.5060   13.3960   20.2580 Cl        1 P162        0.0000 
     29 C8          3.5670   10.7150   13.5920 C.ar      1 P162        0.0000 
     30 H           4.9330    9.7153   11.3400 H         1 P162        0.0000 
     31 H           4.9619    8.0374   11.9090 H         1 P162        0.0000 
     32 H           4.9630    7.6883   14.2227 H         1 P162        0.0000 
     33 H           4.7022    8.4479   16.5299 H         1 P162        0.0000 
     34 H           3.7226   10.6369   17.0002 H         1 P162        0.0000 
     35 H           2.9194   13.1375   14.2874 H         1 P162        0.0000 
     36 H           0.4170   15.7073   17.0451 H         1 P162        0.0000 
     37 H          -0.6317   15.4347   19.3371 H         1 P162        0.0000 
     38 H          -1.0810   15.5870   24.8238 H         1 P162        0.0000 
     39 H          -3.5050   15.3553   24.6766 H         1 P162        0.0000 
     40 H          -4.5208   14.3985   22.6721 H         1 P162        0.0000 
     41 H           3.2650   11.3177   12.8295 H         1 P162        0.0000 
     42 H           2.1545   10.3649   18.7294 H         1 P162        0.0000 
     43 H           2.2762   10.4694   20.3295 H         1 P162        0.0000 
     44 H           0.9579    9.8336   19.6632 H         1 P162        0.0000 
     45 H           3.7945    9.3254   11.5465 H         1 P162        0.0000 
@<TRIPOS>BOND
     1    2    1 1    
     2   45    1 1    
     3    3    2 1    
     4   30    2 1    
     5   31    2 1    
     6    4    3 ar   
     7   29    3 ar   
     8    5    4 ar   
     9   32    4 1    
    10    6    5 ar   
    11   33    5 1    
    12    7    6 ar   
    13   34    6 1    
    14    8    7 1    
    15   29    7 ar   
    16    9    8 1    
    17   35    8 1    
    18   10    9 ar   
    19   19    9 ar   
    20   11   10 ar   
    21   12   11 ar   
    22   36   11 1    
    23   13   12 1    
    24   18   12 ar   
    25   14   13 2    
    26   37   13 1    
    27   15   14 1    
    28   21   14 1    
    29   16   15 2    
    30   17   15 am   
    31   18   17 1    
    32   20   17 1    
    33   19   18 ar   
    34   42   20 1    
    35   43   20 1    
    36   44   20 1    
    37   22   21 ar   
    38   27   21 ar   
    39   23   22 1    
    40   24   22 ar   
    41   25   24 ar   
    42   38   24 1    
    43   26   25 ar   
    44   39   25 1    
    45   27   26 ar   
    46   40   26 1    
    47   28   27 1    
    48   41   29 1    
@<TRIPOS>SUBSTRUCTURE
     1 P162        1 GROUP   
@<TRIPOS>SET

