#    Name: 3g6z_A7T_2_INTS_M
#    Modification time : Tue Mar 25 07:16:16 2014

@<TRIPOS>MOLECULE
3g6z_A7T_2_INTS_M
  104     0     6     0     0
SMALL
NO_CHARGES


@<TRIPOS>ATOM
      1 CA          1.8200    8.3645    2.0295 C.3       2 GLC5        0.0000 
      2 CA          3.2460    6.6890    2.2490 C.3       6 GLL5        0.0000 
      3 CA          0.3940   10.0400    1.8100 C.3       4 GLP5        0.0000 
      4 CA         -1.2350    8.3230    5.4890 C.3       2 GLC5        0.0000 
      5 CA         -0.0730    6.8340    4.9640 C.3       6 GLL5        0.0000 
      6 CA         -2.3970    9.8120    6.0140 C.3       4 GLP5        0.0000 
      7 CA         -1.3690    4.1595    2.4265 C.3       2 GLC5        0.0000 
      8 CA         -1.6780    6.0960    3.2120 C.3       6 GLL5        0.0000 
      9 CA         -1.0600    2.2230    1.6410 C.3       4 GLP5        0.0000 
     10 CA         -3.7250    5.3460    2.6615 C.3       2 GLC5        0.0000 
     11 CA         -5.7720    4.5960    2.1110 C.3       4 GLP5        0.0000 
     12 CA         -2.7095    7.3840    2.0285 C.3       2 GLC5        0.0000 
     13 CA         -3.7410    8.6720    0.8450 C.3       4 GLP5        0.0000 
     14 CA          0.4715    4.0870    1.2320 C.3       2 GLC5        0.0000 
     15 CA          0.5750    5.9770    1.3400 C.3       6 GLL5        0.0000 
     16 CA          0.3680    2.1970    1.1240 C.3       4 GLP5        0.0000 
     17 CA          0.9620    5.6185   -0.6495 C.3       2 GLC5        0.0000 
     18 CA          1.3490    5.2600   -2.6390 C.3       4 GLP5        0.0000 
     19 CA         -0.9600    7.4170    0.6660 C.3       2 GLC5        0.0000 
     20 CA         -2.4950    8.8570   -0.0080 C.3       4 GLP5        0.0000 
     21 CA          0.4845    8.0085    1.5750 C.3       2 GLC5        0.0000 
     22 CA          7.0160   10.7015    3.4030 C.3       2 GLC5        0.0000 
     23 CA          5.3720    9.3370    3.1500 C.3       6 GLL5        0.0000 
     24 CA          8.6600   12.0660    3.6560 C.3       4 GLP5        0.0000 
     25 CA          5.8385    9.9345    5.0605 C.3       2 GLC5        0.0000 
     26 CA          6.3050   10.5320    6.9710 C.3       4 GLP5        0.0000 
     27 CA          2.2215    9.7370    2.1090 C.3       2 GLC5        0.0000 
     28 CA          4.0490    9.4340    2.4080 C.3       6 GLL5        0.0000 
     29 CA          6.8285    8.6145    5.9595 C.3       2 GLC5        0.0000 
     30 CA          7.3520    6.6970    4.9480 C.3       6 GLL5        0.0000 
     31 OD1         8.8665    8.8595    5.1420 O.co2     1 ASC3        0.0000 
     32 OD1         8.6520    7.3370    5.0080 O.co2     5 ASL3        0.0000 
     33 OD1         9.0810   10.3820    5.2760 O.co2     3 ASP3        0.0000 
     34 OD1         8.9025    8.5600    4.1005 O.co2     1 ASC3        0.0000 
     35 OD1         9.1530    9.7830    3.1930 O.co2     3 ASP3        0.0000 
     36 OD1         9.1485    8.2575    6.2465 O.co2     1 ASC3        0.0000 
     37 OD1         9.6450    9.1780    7.4850 O.co2     3 ASP3        0.0000 
     38 OD1         9.1520    7.1620    6.3610 O.co2     1 ASC3        0.0000 
     39 OD1         9.6520    6.9870    7.7140 O.co2     3 ASP3        0.0000 
     40 CA         11.1800    7.9305    4.8910 C.3       2 GLC5        0.0000 
     41 CA          9.6950    6.6790    4.2220 C.3       6 GLL5        0.0000 
     42 CA         12.6650    9.1820    5.5600 C.3       4 GLP5        0.0000 
     43 CA         10.5670    7.9375    1.8920 C.3       2 GLC5        0.0000 
     44 CA          9.2820    6.6260    2.7550 C.3       6 GLL5        0.0000 
     45 CA         11.8520    9.2490    1.0290 C.3       4 GLP5        0.0000 
     46 CA          9.8670    8.3515    0.5635 C.3       2 GLC5        0.0000 
     47 CA          7.8820    7.4540    0.0980 C.3       6 GLL5        0.0000 
     48 CA          7.5260    9.6515    0.0080 C.3       2 GLC5        0.0000 
     49 CA          7.1700   11.8490   -0.0820 C.3       4 GLP5        0.0000 
     50 CA          6.2185    9.2270   -1.0100 C.3       2 GLC5        0.0000 
     51 CA          7.5200    7.4760   -1.2590 C.3       6 GLL5        0.0000 
     52 CA          4.9170   10.9780   -0.7610 C.3       4 GLP5        0.0000 
     53 CA          7.5715    8.8955   -4.1885 C.3       2 GLC5        0.0000 
     54 CA          6.3220    7.6560   -3.9100 C.3       6 GLL5        0.0000 
     55 CA          8.8210   10.1350   -4.4670 C.3       4 GLP5        0.0000 
     56 CA          7.7245    6.2465   -3.6055 C.3       2 GLC5        0.0000 
     57 CA          9.1270    4.8370   -3.3010 C.3       4 GLP5        0.0000 
     58 CA          5.8910    9.6370   -5.0665 C.3       2 GLC5        0.0000 
     59 CA          4.9730    8.0230   -4.5130 C.3       6 GLL5        0.0000 
     60 CA          6.8090   11.2510   -5.6200 C.3       4 GLP5        0.0000 
     61 CA          3.8155    6.4580   -3.4330 C.3       2 GLC5        0.0000 
     62 CA          2.6580    4.8930   -2.3530 C.3       4 GLP5        0.0000 
     63 CA          2.9250    6.5565   -1.7210 C.3       2 GLC5        0.0000 
     64 CA          3.1920    8.2200   -1.0890 C.3       6 GLL5        0.0000 
     65 CA          2.0100    9.4875   -0.2030 C.3       2 GLC5        0.0000 
     66 CA          0.8280   10.7550    0.6830 C.3       4 GLP5        0.0000 
     67 CA          4.0545    9.5990   -0.9250 C.3       2 GLC5        0.0000 
     68 CA         -0.8195    8.8720   -1.2530 C.3       2 GLC5        0.0000 
     69 CA          0.8560    8.8870   -2.4980 C.3       6 GLL5        0.0000 
     70 CA         -3.0010   10.3885   -3.8475 C.3       2 GLC5        0.0000 
     71 CA         -1.3230    9.4350   -3.6420 C.3       6 GLL5        0.0000 
     72 CA         -4.6790   11.3420   -4.0530 C.3       4 GLP5        0.0000 
     73 CA         -1.9090    9.1460   -1.8250 C.3       2 GLC5        0.0000 
     74 CA         -1.3785   11.6030   -3.6450 C.3       2 GLC5        0.0000 
     75 CA         -1.4340   13.7710   -3.6480 C.3       4 GLP5        0.0000 
     76 CA          0.2460   10.8625   -6.3740 C.3       2 GLC5        0.0000 
     77 CA          0.8500    9.6910   -4.7880 C.3       6 GLL5        0.0000 
     78 CA         -0.3580   12.0340   -7.9600 C.3       4 GLP5        0.0000 
     79 CA          4.9355   10.6800   -5.9830 C.3       2 GLC5        0.0000 
     80 CA          3.0620   10.1090   -6.3460 C.3       6 GLL5        0.0000 
     81 CA          3.3265   11.9375   -7.0340 C.3       2 GLC5        0.0000 
     82 CA          3.5910   13.7660   -7.7220 C.3       4 GLP5        0.0000 
     83 CA          1.8665   11.6155   -7.1110 C.3       2 GLC5        0.0000 
     84 CA          0.6710   13.1220   -7.8760 C.3       4 GLP5        0.0000 
     85 CA          3.9605    9.4975   -7.6775 C.3       2 GLC5        0.0000 
     86 CA          4.8590    8.8860   -9.0090 C.3       4 GLP5        0.0000 
     87 CA          2.7100   11.7155   -4.8215 C.3       2 GLC5        0.0000 
     88 CA          2.3580   13.3220   -3.2970 C.3       4 GLP5        0.0000 
     89 CA          4.5953   11.0697    3.5525 C.3       2 GLC5        0.0000 
     90 CA          4.4800   12.7540    4.3260 C.3       4 GLP5        0.0000 
     91 CA          4.7754   10.0590    0.8680 C.3       2 GLC5        0.0000 
     92 CA          7.7473    5.4400   -2.2965 C.3       2 GLC5        0.0000 
     93 CA          6.6170    6.5240   -1.7370 C.3       6 GLL5        0.0000 
     94 CA          8.4140    6.1510   -1.9408 C.3       2 GLC5        0.0000 
     95 CA          5.9447    6.5377   -5.7683 C.3       2 GLC5        0.0000 
     96 CA          6.2420    5.2360   -7.3250 C.3       4 GLP5        0.0000 
     97 CA          3.7720    9.9725   -1.9292 C.3       2 GLC5        0.0000 
     98 CA          3.0100    9.1520   -3.6950 C.3       6 GLL5        0.0000 
     99 CA          0.7212    7.8613   -5.3978 C.3       2 GLC5        0.0000 
    100 CA          0.1770    9.3280   -3.6330 C.3       6 GLL5        0.0000 
    101 CA          0.9290    6.2130   -6.5850 C.3       4 GLP5        0.0000 
    102 CA          2.0466   11.4306   -3.9144 C.3       2 GLC5        0.0000 
    103 CA          1.7877    8.0395   -6.0930 C.3       2 GLC5        0.0000 
    104 CA          2.2310    9.6230   -4.8560 C.3       6 GLL5        0.0000 
@<TRIPOS>BOND
@<TRIPOS>SUBSTRUCTURE
     1 ASC3       31 GROUP        1 X    ASC  0     ROOT ASC X 3
     2 GLC5        1 GROUP        1 X    GLC  0     **** GLC X 6
     3 ASP3       33 GROUP        1 Y    ASP  0     ROOT ASP Y 10
     4 GLP5        3 GROUP        1 Y    GLP  0     **** GLP Y 13
     5 ASL3       32 GROUP        1 Z    ASL  0     ROOT ASL Z 17
     6 GLL5        2 GROUP        1 Z    GLL  0     **** GLL Z 20
@<TRIPOS>SET

