#    Name: 3g6z_A7T_2_ligand
#    Modification time : Tue Mar 25 07:16:16 2014

@<TRIPOS>MOLECULE
3g6z_A7T_2_ligand
   80    85     1     0     0
SMALL
NO_CHARGES


@<TRIPOS>ATOM
      1 O26         5.0160    5.1700    3.6850 O.2       1 A7T342      0.0000 
      2 C23         5.4620    6.2260    3.2660 C.2       1 A7T342      0.0000 
      3 N27         4.6350    7.0590    2.6060 N.am      1 A7T342      0.0000 
      4 C32         3.2460    6.6890    2.2490 C.3       1 A7T342      0.0000 
      5 C36         2.0850    6.7240    3.2210 C.ar      1 A7T342      0.0000 
      6 C38         2.2800    7.1270    4.5420 C.ar      1 A7T342      0.0000 
      7 C41         1.1980    7.1690    5.4120 C.ar      1 A7T342      0.0000 
      8 C42        -0.0730    6.8340    4.9640 C.ar      1 A7T342      0.0000 
      9 C39        -0.2760    6.4410    3.6470 C.ar      1 A7T342      0.0000 
     10 C43        -1.6780    6.0960    3.2120 C.3       1 A7T342      0.0000 
     11 C37         0.8030    6.3880    2.7690 C.ar      1 A7T342      0.0000 
     12 C40         0.5750    5.9770    1.3400 C.3       1 A7T342      0.0000 
     13 C31         5.0650    8.3550    2.0220 C.3       1 A7T342      0.0000 
     14 C35         5.3720    9.3370    3.1500 C.3       1 A7T342      0.0000 
     15 C34         4.0490    9.4340    2.4080 C.3       1 A7T342      0.0000 
     16 C21         6.8850    6.5140    3.5270 C.2       1 A7T342      0.0000 
     17 C24         7.3520    6.6970    4.9480 C.3       1 A7T342      0.0000 
     18 N28         8.6520    7.3370    5.0080 N.4       1 A7T342      0.0000 
     19 C29         7.5440    5.3150    5.5960 C.3       1 A7T342      0.0000 
     20 N33         8.6120    4.6180    4.8900 N.3       1 A7T342      0.0000 
     21 C30         9.9070    5.2340    4.6870 C.3       1 A7T342      0.0000 
     22 C25         9.6950    6.6790    4.2220 C.3       1 A7T342      0.0000 
     23 C22         9.2820    6.6260    2.7550 C.3       1 A7T342      0.0000 
     24 C20         7.7880    6.5310    2.4920 C.2       1 A7T342      0.0000 
     25 C19         7.3790    6.5050    1.0130 C.ar      1 A7T342      0.0000 
     26 C17         6.4970    5.5480    0.5030 C.ar      1 A7T342      0.0000 
     27 C15         6.1180    5.5620   -0.8470 C.ar      1 A7T342      0.0000 
     28 C18         7.8820    7.4540    0.0980 C.ar      1 A7T342      0.0000 
     29 C16         7.5200    7.4760   -1.2590 C.ar      1 A7T342      0.0000 
     30 C14         6.6170    6.5240   -1.7370 C.ar      1 A7T342      0.0000 
     31 O13         6.2140    6.4900   -3.0630 O.3       1 A7T342      0.0000 
     32 C12         6.3220    7.6560   -3.9100 C.3       1 A7T342      0.0000 
     33 C8          4.9730    8.0230   -4.5130 C.3       1 A7T342      0.0000 
     34 O5          4.3750    9.0420   -3.7070 O.3       1 A7T342      0.0000 
     35 C3          3.0100    9.1520   -3.6950 C.ar      1 A7T342      0.0000 
     36 C6          2.2440    8.7820   -2.5000 C.ar      1 A7T342      0.0000 
     37 CL9         3.1920    8.2200   -1.0890 Cl        1 A7T342      0.0000 
     38 C10         0.8560    8.8870   -2.4980 C.ar      1 A7T342      0.0000 
     39 C7          0.1770    9.3280   -3.6330 C.ar      1 A7T342      0.0000 
     40 C11        -1.3230    9.4350   -3.6420 C.3       1 A7T342      0.0000 
     41 C4          0.8500    9.6910   -4.7880 C.ar      1 A7T342      0.0000 
     42 C2          2.2310    9.6230   -4.8560 C.ar      1 A7T342      0.0000 
     43 CL1         3.0620   10.1090   -6.3460 Cl        1 A7T342      0.0000 
     44 H           3.2630    5.6317    1.7830 H         1 A7T342      0.0000 
     45 H           2.9324    7.3120    1.3277 H         1 A7T342      0.0000 
     46 H           3.2159    7.3897    4.8659 H         1 A7T342      0.0000 
     47 H           1.3391    7.4498    6.3934 H         1 A7T342      0.0000 
     48 H          -0.8736    6.8772    5.6145 H         1 A7T342      0.0000 
     49 H           5.4904    8.5767    1.2868 H         1 A7T342      0.0000 
     50 H           5.9492   10.0013    2.8015 H         1 A7T342      0.0000 
     51 H           5.2129    8.8902    3.9691 H         1 A7T342      0.0000 
     52 H           3.3869    9.0206    2.9417 H         1 A7T342      0.0000 
     53 H           4.1233   10.1316    1.7740 H         1 A7T342      0.0000 
     54 H           6.6297    7.2268    5.5149 H         1 A7T342      0.0000 
     55 H           6.6043    4.7752    5.5242 H         1 A7T342      0.0000 
     56 H           7.7935    5.4647    6.6424 H         1 A7T342      0.0000 
     57 H          10.4804    4.7137    3.9218 H         1 A7T342      0.0000 
     58 H          10.4862    5.2573    5.6084 H         1 A7T342      0.0000 
     59 H          10.6268    7.1984    4.2922 H         1 A7T342      0.0000 
     60 H           9.7865    5.7594    2.2751 H         1 A7T342      0.0000 
     61 H           9.6800    7.5279    2.2412 H         1 A7T342      0.0000 
     62 H           6.1179    4.8192    1.1279 H         1 A7T342      0.0000 
     63 H           5.4557    4.8469   -1.1941 H         1 A7T342      0.0000 
     64 H           8.5543    8.1721    0.4484 H         1 A7T342      0.0000 
     65 H           7.9130    8.1786   -1.8833 H         1 A7T342      0.0000 
     66 H           7.0279    7.4821   -4.7358 H         1 A7T342      0.0000 
     67 H           6.6893    8.5248   -3.3436 H         1 A7T342      0.0000 
     68 H           4.3601    7.1201   -4.5447 H         1 A7T342      0.0000 
     69 H           5.1417    8.3633   -5.5365 H         1 A7T342      0.0000 
     70 H           0.3245    8.6367   -1.6503 H         1 A7T342      0.0000 
     71 H           0.3126   10.0176   -5.6115 H         1 A7T342      0.0000 
     72 H          -1.7127    5.8274    2.2494 H         1 A7T342      0.0000 
     73 H          -2.0550    5.3364    3.7420 H         1 A7T342      0.0000 
     74 H          -2.3022    6.8693    3.3232 H         1 A7T342      0.0000 
     75 H           0.8420    6.6969    0.6994 H         1 A7T342      0.0000 
     76 H           1.1009    5.1611    1.0998 H         1 A7T342      0.0000 
     77 H          -0.3868    5.7686    1.1624 H         1 A7T342      0.0000 
     78 H          -1.6544   10.0680   -2.9424 H         1 A7T342      0.0000 
     79 H          -1.6666    9.7642   -4.5215 H         1 A7T342      0.0000 
     80 H          -1.7594    8.5521   -3.4688 H         1 A7T342      0.0000 
@<TRIPOS>BOND
     1    2    1 2    
     2    3    2 am   
     3   16    2 1    
     4    4    3 1    
     5   13    3 1    
     6    5    4 1    
     7   44    4 1    
     8   45    4 1    
     9    6    5 ar   
    10   11    5 ar   
    11    7    6 ar   
    12   46    6 1    
    13    8    7 ar   
    14   47    7 1    
    15    9    8 ar   
    16   48    8 1    
    17   10    9 1    
    18   11    9 ar   
    19   72   10 1    
    20   73   10 1    
    21   74   10 1    
    22   12   11 1    
    23   75   12 1    
    24   76   12 1    
    25   77   12 1    
    26   14   13 1    
    27   15   13 1    
    28   49   13 1    
    29   15   14 1    
    30   50   14 1    
    31   51   14 1    
    32   52   15 1    
    33   53   15 1    
    34   17   16 1    
    35   24   16 2    
    36   18   17 1    
    37   19   17 1    
    38   54   17 1    
    39   22   18 1    
    40   20   19 1    
    41   55   19 1    
    42   56   19 1    
    43   21   20 1    
    44   22   21 1    
    45   57   21 1    
    46   58   21 1    
    47   23   22 1    
    48   59   22 1    
    49   24   23 1    
    50   60   23 1    
    51   61   23 1    
    52   25   24 1    
    53   26   25 ar   
    54   28   25 ar   
    55   27   26 ar   
    56   62   26 1    
    57   30   27 ar   
    58   63   27 1    
    59   29   28 ar   
    60   64   28 1    
    61   30   29 ar   
    62   65   29 1    
    63   31   30 1    
    64   32   31 1    
    65   33   32 1    
    66   66   32 1    
    67   67   32 1    
    68   34   33 1    
    69   68   33 1    
    70   69   33 1    
    71   35   34 1    
    72   36   35 ar   
    73   42   35 ar   
    74   37   36 1    
    75   38   36 ar   
    76   39   38 ar   
    77   70   38 1    
    78   40   39 1    
    79   41   39 ar   
    80   78   40 1    
    81   79   40 1    
    82   80   40 1    
    83   42   41 ar   
    84   71   41 1    
    85   43   42 1    
@<TRIPOS>SUBSTRUCTURE
     1 A7T342      1 GROUP   
@<TRIPOS>SET

