#    Name: 2l0x_GDP_1_INTS_M
#    Modification time : Tue Mar 25 21:16:24 2014

@<TRIPOS>MOLECULE
2l0x_GDP_1_INTS_M
   63     0    15     0     0
SMALL
NO_CHARGES


@<TRIPOS>ATOM
      1 Zn         11.0530   -1.8095   -8.3180 Zn        4 ZIC7        0.0000 
      2 Zn         11.2890   -2.1310   -7.1800 Zn       14 ZIL7        0.0000 
      3 Zn         10.8170   -1.4880   -9.4560 Zn        9 ZIP7        0.0000 
      4 N          10.2110   -3.0750   -6.8190 N.am      2 SEC2        0.0000 
      5 N          11.2890   -2.1310   -7.1800 N.am     12 SEL2        0.0000 
      6 N           9.1330   -4.0190   -6.4580 N.am      7 SEP2        0.0000 
      7 N          10.7095   -2.9335   -8.0150 N.am      2 SEC2        0.0000 
      8 N          10.1300   -3.7360   -8.8500 N.am      7 SEP2        0.0000 
      9 NZ         11.0000    0.3955   -5.5910 N.4       3 LYC4        0.0000 
     10 NZ         12.1590   -0.5330   -5.4550 N.4      13 LYL4        0.0000 
     11 NZ          9.8410    1.3240   -5.7270 N.4       8 LYP4        0.0000 
     12 N          12.3500   -1.3175   -4.1750 N.am      2 SEC2        0.0000 
     13 N          12.1590   -0.5330   -5.4550 N.am     12 SEL2        0.0000 
     14 N          12.5410   -2.1020   -2.8950 N.am      7 SEP2        0.0000 
     15 N          11.1545   -1.5810   -4.7695 N.am      2 SEC2        0.0000 
     16 N          10.1500   -2.6290   -4.0840 N.am      7 SEP2        0.0000 
     17 N          11.0000    0.3955   -5.5910 N.am      2 SEC2        0.0000 
     18 N           9.8410    1.3240   -5.7270 N.am      7 SEP2        0.0000 
     19 N          14.1715    0.0385   -6.6120 N.am      2 SEC2        0.0000 
     20 N          13.5430   -0.9420   -7.5400 N.am     12 SEL2        0.0000 
     21 N          14.8000    1.0190   -5.6840 N.am      7 SEP2        0.0000 
     22 N          12.9985   -0.3925   -8.8405 N.am      2 SEC2        0.0000 
     23 N          12.4540    0.1570  -10.1410 N.am      7 SEP2        0.0000 
     24 N          12.9425   -2.4125   -4.2925 N.am      2 SEC2        0.0000 
     25 N          13.3440   -2.7230   -5.6900 N.am     12 SEL2        0.0000 
     26 N          11.1895   -5.7580   -5.6605 N.am      2 SEC2        0.0000 
     27 N          12.4360   -5.0350   -5.7640 N.am     12 SEL2        0.0000 
     28 N           9.9430   -6.4810   -5.5570 N.am      7 SEP2        0.0000 
     29 N          11.6315   -3.8560   -8.4055 N.am      2 SEC2        0.0000 
     30 N          13.1330   -3.9760   -7.9610 N.am     12 SEL2        0.0000 
     31 CA         14.0105   -4.3880   -2.6900 C.3       5 GLC5        0.0000 
     32 CA         15.9620   -5.3010   -2.5370 C.3      15 GLL5        0.0000 
     33 CA         12.0590   -3.4750   -2.8430 C.3      10 GLP5        0.0000 
     34 CA         15.5475   -3.9275   -1.3270 C.3       5 GLC5        0.0000 
     35 CA         15.1330   -2.5540   -0.1170 C.3      10 GLP5        0.0000 
     36 N          11.9805   -6.6350   -1.9630 N.am      2 SEC2        0.0000 
     37 N          12.9950   -6.7550   -1.0690 N.am     12 SEL2        0.0000 
     38 N          10.9660   -6.5150   -2.8570 N.am      7 SEP2        0.0000 
     39 N          12.0640   -5.5255   -0.2425 N.am      2 SEC2        0.0000 
     40 N          11.1330   -4.2960    0.5840 N.am      7 SEP2        0.0000 
     41 CA         13.8650   -5.2025    0.8900 C.3       5 GLC5        0.0000 
     42 CA         13.8300   -6.8890   -0.0500 C.3      15 GLL5        0.0000 
     43 CA         13.9000   -3.5160    1.8300 C.3      10 GLP5        0.0000 
     44 CA         12.2230   -7.8325   -0.4110 C.3       5 GLC5        0.0000 
     45 CA         10.6160   -8.7760   -0.7720 C.3      10 GLP5        0.0000 
     46 N          11.4155   -8.2605    1.6430 N.am      2 SEC2        0.0000 
     47 N          12.6320   -7.8340    1.6610 N.am     12 SEL2        0.0000 
     48 N          10.1990   -8.6870    1.6250 N.am      7 SEP2        0.0000 
     49 N          12.1855   -9.3745    1.4035 N.am      2 SEC2        0.0000 
     50 N          11.7390  -10.9150    1.1460 N.am      7 SEP2        0.0000 
     51 O          15.2445   -7.6340    3.3670 O.2       1 ALC1        0.0000 
     52 O          14.8050   -7.3570    2.1110 O.2      11 ALL1        0.0000 
     53 O          15.6840   -7.9110    4.6230 O.2       6 ALP1        0.0000 
     54 O          16.3910   -7.3715    3.5305 O.2       1 ALC1        0.0000 
     55 O          17.0980   -6.8320    2.4380 O.2      11 ALL1        0.0000 
     56 O          17.4205   -7.1630    3.7620 O.2       1 ALC1        0.0000 
     57 O          17.7430   -7.4940    5.0860 O.2       6 ALP1        0.0000 
     58 CA         15.1810   -4.7865    0.4075 C.3       5 GLC5        0.0000 
     59 CA         15.0760   -6.4110   -0.4620 C.3      15 GLL5        0.0000 
     60 CA         15.2860   -3.1620    1.2770 C.3      10 GLP5        0.0000 
     61 CA         15.8320   -2.0648   -5.1080 C.3       5 GLC5        0.0000 
     62 CA         16.5170   -4.1370   -4.4150 C.3      15 GLL5        0.0000 
     63 CA         15.3960   -0.1700   -5.0960 C.3      10 GLP5        0.0000 
@<TRIPOS>BOND
@<TRIPOS>SUBSTRUCTURE
     1 ALC1       51 GROUP        1 X    ALC  0     ROOT ALC X 1
     2 SEC2        4 GROUP        1 X    SEC  0     **** SEC X 2
     3 LYC4        9 GROUP        1 X    LYC  0     **** LYC X 4
     4 ZIC7        1 GROUP        1 X    ZIC  0     **** ZIC X 5
     5 GLC5       31 GROUP        1 X    GLC  0     **** GLC X 6
     6 ALP1       53 GROUP        1 Y    ALP  0     ROOT ALP Y 8
     7 SEP2        6 GROUP        1 Y    SEP  0     **** SEP Y 9
     8 LYP4       11 GROUP        1 Y    LYP  0     **** LYP Y 11
     9 ZIP7        3 GROUP        1 Y    ZIP  0     **** ZIP Y 12
    10 GLP5       33 GROUP        1 Y    GLP  0     **** GLP Y 13
    11 ALL1       52 GROUP        1 Z    ALL  0     ROOT ALL Z 15
    12 SEL2        5 GROUP        1 Z    SEL  0     **** SEL Z 16
    13 LYL4       10 GROUP        1 Z    LYL  0     **** LYL Z 18
    14 ZIL7        2 GROUP        1 Z    ZIL  0     **** ZIL Z 19
    15 GLL5       32 GROUP        1 Z    GLL  0     **** GLL Z 20
@<TRIPOS>SET

