#    Name: 2l0x_GDP_1_ligand
#    Modification time : Tue Mar 25 21:16:24 2014

@<TRIPOS>MOLECULE
2l0x_GDP_1_ligand
   40    42     1     0     0
SMALL
NO_CHARGES


@<TRIPOS>ATOM
      1 PB         12.5370   -1.6630   -6.5190 P.3       1 GDP186      0.0000 
      2 O1B        11.2890   -2.1310   -7.1800 O.co2     1 GDP186      0.0000 
      3 O2B        12.1590   -0.5330   -5.4550 O.co2     1 GDP186      0.0000 
      4 O3B        13.5430   -0.9420   -7.5400 O.co2     1 GDP186      0.0000 
      5 O3A        13.3440   -2.7230   -5.6900 O.3       1 GDP186      0.0000 
      6 PA         13.4280   -4.1370   -6.3940 P.3       1 GDP186      0.0000 
      7 O1A        12.4360   -5.0350   -5.7640 O.co2     1 GDP186      0.0000 
      8 O2A        13.1330   -3.9760   -7.9610 O.co2     1 GDP186      0.0000 
      9 O5'        14.9560   -4.6550   -6.2700 O.3       1 GDP186      0.0000 
     10 C5'        16.0190   -3.7820   -5.8250 C.3       1 GDP186      0.0000 
     11 C4'        16.5170   -4.1370   -4.4150 C.3       1 GDP186      0.0000 
     12 O4'        15.4130   -4.4550   -3.5470 O.3       1 GDP186      0.0000 
     13 C3'        17.4470   -5.3620   -4.3760 C.3       1 GDP186      0.0000 
     14 O3'        18.7360   -4.9450   -3.8970 O.3       1 GDP186      0.0000 
     15 C2'        16.7740   -6.2850   -3.3560 C.3       1 GDP186      0.0000 
     16 O2'        17.7180   -6.9020   -2.4700 O.3       1 GDP186      0.0000 
     17 C1'        15.9620   -5.3010   -2.5370 C.3       1 GDP186      0.0000 
     18 N9         14.9320   -5.9940   -1.7220 N.pl3     1 GDP186      0.0000 
     19 C8         13.6950   -6.3090   -2.1160 C.2       1 GDP186      0.0000 
     20 N7         12.9950   -6.7550   -1.0690 N.2       1 GDP186      0.0000 
     21 C5         13.8300   -6.8890   -0.0500 C.2       1 GDP186      0.0000 
     22 C6         13.7010   -7.3790    1.2470 C.2       1 GDP186      0.0000 
     23 O6         12.6320   -7.8340    1.6610 O.2       1 GDP186      0.0000 
     24 N1         14.8050   -7.3570    2.1110 N.am      1 GDP186      0.0000 
     25 C2         16.0420   -6.8660    1.6390 C.2       1 GDP186      0.0000 
     26 N2         17.0980   -6.8320    2.4380 N.pl3     1 GDP186      0.0000 
     27 N3         16.1460   -6.4290    0.3650 N.2       1 GDP186      0.0000 
     28 C4         15.0760   -6.4110   -0.4620 C.2       1 GDP186      0.0000 
     29 H          15.6884   -2.7286   -5.8059 H         1 GDP186      0.0000 
     30 H          16.8865   -3.8304   -6.5064 H         1 GDP186      0.0000 
     31 H          17.0683   -3.2950   -4.0141 H         1 GDP186      0.0000 
     32 H          17.4535   -5.8141   -5.3093 H         1 GDP186      0.0000 
     33 H          16.1300   -6.9366   -3.8394 H         1 GDP186      0.0000 
     34 H          16.6476   -4.7571   -1.9203 H         1 GDP186      0.0000 
     35 H          13.3548   -6.2261   -3.0284 H         1 GDP186      0.0000 
     36 H          14.7204   -7.6903    3.0689 H         1 GDP186      0.0000 
     37 H          16.9558   -7.1664    3.3696 H         1 GDP186      0.0000 
     38 H          17.9417   -6.4750    2.0372 H         1 GDP186      0.0000 
     39 H          18.8539   -5.4197   -3.0248 H         1 GDP186      0.0000 
     40 H          17.3787   -6.7024   -1.5507 H         1 GDP186      0.0000 
@<TRIPOS>BOND
     1    2    1 ar   
     2    3    1 ar   
     3    4    1 ar   
     4    5    1 1    
     5    6    5 1    
     6    7    6 ar   
     7    8    6 ar   
     8    9    6 1    
     9   10    9 1    
    10   11   10 1    
    11   29   10 1    
    12   30   10 1    
    13   12   11 1    
    14   13   11 1    
    15   31   11 1    
    16   17   12 1    
    17   14   13 1    
    18   15   13 1    
    19   32   13 1    
    20   39   14 1    
    21   16   15 1    
    22   17   15 1    
    23   33   15 1    
    24   40   16 1    
    25   18   17 1    
    26   34   17 1    
    27   19   18 1    
    28   28   18 1    
    29   20   19 2    
    30   35   19 1    
    31   21   20 1    
    32   22   21 1    
    33   28   21 2    
    34   23   22 2    
    35   24   22 am   
    36   25   24 1    
    37   36   24 1    
    38   26   25 1    
    39   27   25 2    
    40   37   26 1    
    41   38   26 1    
    42   28   27 1    
@<TRIPOS>SUBSTRUCTURE
     1 GDP186      1 GROUP   
@<TRIPOS>SET

