#    Name: 2ejz_SAH_2_INTS_M
#    Modification time : Mon Apr  7 17:47:50 2014

@<TRIPOS>MOLECULE
2ejz_SAH_2_INTS_M
   75     0     9     0     0
SMALL
NO_CHARGES


@<TRIPOS>ATOM
      1 CA         28.0790  109.0820   64.1545 C.3       3 GLC5        0.0000 
      2 CA         27.6290  110.0310   65.9270 C.3       9 GLL5        0.0000 
      3 CA         28.5290  108.1330   62.3820 C.3       6 GLP5        0.0000 
      4 CA         26.3575  108.8020   67.1490 C.3       3 GLC5        0.0000 
      5 CA         25.0860  107.5730   68.3710 C.3       6 GLP5        0.0000 
      6 CA         29.6440  109.8455   68.1230 C.3       3 GLC5        0.0000 
      7 CA         28.0830  110.9150   67.0480 C.3       9 GLL5        0.0000 
      8 CA         31.2050  108.7760   69.1980 C.3       6 GLP5        0.0000 
      9 CA         28.7590  110.7925   69.1375 C.3       3 GLC5        0.0000 
     10 CA         29.4350  110.6700   71.2270 C.3       6 GLP5        0.0000 
     11 CA         28.0555  113.5425   65.7635 C.3       3 GLC5        0.0000 
     12 CA         27.4770  112.2970   67.1930 C.3       9 GLL5        0.0000 
     13 CA         28.6340  114.7880   64.3340 C.3       6 GLP5        0.0000 
     14 N          27.3125  107.0115   64.4310 N.am      2 SEC2        0.0000 
     15 N          27.7150  107.5810   65.8600 N.am      8 SEL2        0.0000 
     16 N          26.9100  106.4420   63.0020 N.am      5 SEP2        0.0000 
     17 N          28.2665  106.6080   66.6120 N.am      2 SEC2        0.0000 
     18 N          28.8180  105.6350   67.3640 N.am      5 SEP2        0.0000 
     19 N          29.2520  107.1670   66.7180 N.am      2 SEC2        0.0000 
     20 N          29.6860  108.6990   66.0720 N.am      8 SEL2        0.0000 
     21 N          30.6045  107.6780   66.5985 N.am      2 SEC2        0.0000 
     22 N          31.5230  106.6570   67.1250 N.am      5 SEP2        0.0000 
     23 CA         28.9030  114.5200   66.2800 C.3       3 GLC5        0.0000 
     24 CA         29.1720  114.2520   68.2260 C.3       9 GLL5        0.0000 
     25 CA         28.8365  116.3710   67.6980 C.3       3 GLC5        0.0000 
     26 CA         28.5010  118.4900   67.1700 C.3       6 GLP5        0.0000 
     27 CA         30.0000  113.1580   70.4560 C.3       3 GLC5        0.0000 
     28 CA         30.3980  114.3410   69.2320 C.3       9 GLL5        0.0000 
     29 CA         29.6020  111.9750   71.6800 C.3       6 GLP5        0.0000 
     30 CA         31.2465  117.4105   68.7855 C.3       3 GLC5        0.0000 
     31 CA         31.4550  115.3240   68.8730 C.3       9 GLL5        0.0000 
     32 CA         31.0380  119.4970   68.6980 C.3       6 GLP5        0.0000 
     33 CA         34.1055  115.2170   67.9395 C.3       3 GLC5        0.0000 
     34 CA         32.7540  114.6290   69.3730 C.3       9 GLL5        0.0000 
     35 CA         35.4570  115.8050   66.5060 C.3       6 GLP5        0.0000 
     36 N          32.4865  115.5355   72.1555 N.am      2 SEC2        0.0000 
     37 N          33.0680  114.9640   70.7240 N.am      8 SEL2        0.0000 
     38 N          31.9050  116.1070   73.5870 N.am      5 SEP2        0.0000 
     39 O          34.4180  115.1795   71.0120 O.2       1 ALC1        0.0000 
     40 O          33.0680  114.9640   70.7240 O.2       7 ALL1        0.0000 
     41 O          35.7680  115.3950   71.3000 O.2       4 ALP1        0.0000 
     42 CA         31.0535  112.5515   70.4175 C.3       3 GLC5        0.0000 
     43 CA         32.5050  113.1280   69.1550 C.3       9 GLL5        0.0000 
     44 CA         36.0255  112.4075   64.0865 C.3       3 GLC5        0.0000 
     45 CA         35.6970  111.3540   66.0400 C.3       9 GLL5        0.0000 
     46 CA         36.3540  113.4610   62.1330 C.3       6 GLP5        0.0000 
     47 CA         36.8200  109.7845   66.2330 C.3       3 GLC5        0.0000 
     48 CA         37.9430  108.2150   66.4260 C.3       6 GLP5        0.0000 
     49 O          35.0155  110.9935   63.3355 O.2       1 ALC1        0.0000 
     50 O          35.9360  110.9230   64.7930 O.2       7 ALL1        0.0000 
     51 O          34.0950  111.0640   61.8780 O.2       4 ALP1        0.0000 
     52 O          36.7885  110.0580   64.1360 O.2       1 ALC1        0.0000 
     53 O          37.6410  109.1930   63.4790 O.2       4 ALP1        0.0000 
     54 N          37.9095  110.7555   66.2465 N.am      2 SEC2        0.0000 
     55 N          36.6930  111.3700   66.9970 N.am      8 SEL2        0.0000 
     56 N          39.1260  110.1410   65.4960 N.am      5 SEP2        0.0000 
     57 CA         35.7790  110.1290   68.6340 C.3       3 GLC5        0.0000 
     58 CA         36.4990  111.8000   68.2760 C.3       9 GLL5        0.0000 
     59 CA         35.0590  108.4580   68.9920 C.3       6 GLP5        0.0000 
     60 CA         37.2210  110.0075   67.3510 C.3       3 GLC5        0.0000 
     61 CA         36.2000  113.2830   66.9030 C.3       3 GLC5        0.0000 
     62 CA         35.9010  114.7660   65.5300 C.3       6 GLP5        0.0000 
     63 CA         37.2210  113.6715   69.2940 C.3       3 GLC5        0.0000 
     64 CA         37.9430  115.5430   70.3120 C.3       6 GLP5        0.0000 
     65 CA         36.1585  111.7780   70.2225 C.3       3 GLC5        0.0000 
     66 CA         35.8180  111.7560   72.1690 C.3       6 GLP5        0.0000 
     67 CA         33.9810  110.4615   68.6885 C.3       3 GLC5        0.0000 
     68 CA         34.2960  112.2490   67.7990 C.3       9 GLL5        0.0000 
     69 CA         33.6660  108.6740   69.5780 C.3       6 GLP5        0.0000 
     70 CA         29.1163  112.8007   70.0920 C.3       3 GLC5        0.0000 
     71 CA         33.0003  112.9888   71.0065 C.3       3 GLC5        0.0000 
     72 CA         33.3710  112.0990   72.7490 C.3       6 GLP5        0.0000 
     73 CA         35.0568  110.0258   67.6298 C.3       3 GLC5        0.0000 
     74 CA         34.4120  111.8330   66.4950 C.3       9 GLL5        0.0000 
     75 CA         35.2881  113.3436   66.2816 C.3       3 GLC5        0.0000 
@<TRIPOS>BOND
@<TRIPOS>SUBSTRUCTURE
     1 ALC1       39 GROUP        1 X    ALC  0     ROOT ALC X 1
     2 SEC2       14 GROUP        1 X    SEC  0     **** SEC X 2
     3 GLC5        1 GROUP        1 X    GLC  0     **** GLC X 6
     4 ALP1       41 GROUP        1 Y    ALP  0     ROOT ALP Y 8
     5 SEP2       16 GROUP        1 Y    SEP  0     **** SEP Y 9
     6 GLP5        3 GROUP        1 Y    GLP  0     **** GLP Y 13
     7 ALL1       40 GROUP        1 Z    ALL  0     ROOT ALL Z 15
     8 SEL2       15 GROUP        1 Z    SEL  0     **** SEL Z 16
     9 GLL5        2 GROUP        1 Z    GLL  0     **** GLL Z 20
@<TRIPOS>SET

