#    Name: 2ejz_SAH_2_ligand
#    Modification time : Mon Apr  7 17:47:50 2014

@<TRIPOS>MOLECULE
2ejz_SAH_2_ligand
   46    48     1     0     0
SMALL
NO_CHARGES


@<TRIPOS>ATOM
      1 N          26.1400  109.7080   65.7840 N.4       1 SAH1302     0.0000 
      2 CA         27.6290  110.0310   65.9270 C.3       1 SAH1302     0.0000 
      3 CB         28.0830  110.9150   67.0480 C.3       1 SAH1302     0.0000 
      4 CG         27.4770  112.2970   67.1930 C.3       1 SAH1302     0.0000 
      5 SD         28.0890  113.0010   68.7820 S.3       1 SAH1302     0.0000 
      6 C          28.3850  108.6380   65.9560 C.2       1 SAH1302     0.0000 
      7 O          27.7150  107.5810   65.8600 O.co2     1 SAH1302     0.0000 
      8 OXT        29.6860  108.6990   66.0720 O.co2     1 SAH1302     0.0000 
      9 C5'        29.1720  114.2520   68.2260 C.3       1 SAH1302     0.0000 
     10 C4'        30.3980  114.3410   69.2320 C.3       1 SAH1302     0.0000 
     11 O4'        31.0170  113.0390   69.2530 O.3       1 SAH1302     0.0000 
     12 C3'        31.4550  115.3240   68.8730 C.3       1 SAH1302     0.0000 
     13 O3'        31.1850  116.5790   69.4870 O.3       1 SAH1302     0.0000 
     14 C2'        32.7540  114.6290   69.3730 C.3       1 SAH1302     0.0000 
     15 O2'        33.0680  114.9640   70.7240 O.3       1 SAH1302     0.0000 
     16 C1'        32.5050  113.1280   69.1550 C.3       1 SAH1302     0.0000 
     17 N9         32.9400  112.6640   67.9690 N.pl3     1 SAH1302     0.0000 
     18 C8         32.3630  112.4500   66.7280 C.2       1 SAH1302     0.0000 
     19 N7         33.1620  111.9690   65.8240 N.2       1 SAH1302     0.0000 
     20 C5         34.4120  111.8330   66.4950 C.ar      1 SAH1302     0.0000 
     21 C6         35.6970  111.3540   66.0400 C.ar      1 SAH1302     0.0000 
     22 N6         35.9360  110.9230   64.7930 N.pl3     1 SAH1302     0.0000 
     23 N1         36.6930  111.3700   66.9970 N.ar      1 SAH1302     0.0000 
     24 C2         36.4990  111.8000   68.2760 C.ar      1 SAH1302     0.0000 
     25 N3         35.2870  112.2630   68.7420 N.ar      1 SAH1302     0.0000 
     26 C4         34.2960  112.2490   67.7990 C.ar      1 SAH1302     0.0000 
     27 H          27.9560  110.4793   64.9524 H         1 SAH1302     0.0000 
     28 H          29.2061  111.0313   66.9851 H         1 SAH1302     0.0000 
     29 H          27.9355  110.3650   68.0251 H         1 SAH1302     0.0000 
     30 H          26.4378  112.3040   67.3452 H         1 SAH1302     0.0000 
     31 H          27.8293  113.0029   66.4996 H         1 SAH1302     0.0000 
     32 H          28.6010  115.1343   68.2400 H         1 SAH1302     0.0000 
     33 H          29.4825  113.9407   67.2714 H         1 SAH1302     0.0000 
     34 H          29.9933  114.5613   70.2077 H         1 SAH1302     0.0000 
     35 H          31.5151  115.3720   67.8046 H         1 SAH1302     0.0000 
     36 H          33.5379  114.9219   68.6768 H         1 SAH1302     0.0000 
     37 H          32.9068  112.6248   70.0242 H         1 SAH1302     0.0000 
     38 H          31.3849  112.6670   66.5803 H         1 SAH1302     0.0000 
     39 H          35.4060  111.3610   64.0669 H         1 SAH1302     0.0000 
     40 H          36.6229  110.2022   64.7007 H         1 SAH1302     0.0000 
     41 H          37.3145  111.7799   68.9488 H         1 SAH1302     0.0000 
     42 H          25.9929  108.8101   65.3691 H         1 SAH1302     0.0000 
     43 H          25.6747  109.7016   66.6691 H         1 SAH1302     0.0000 
     44 H          25.6683  110.3771   65.2097 H         1 SAH1302     0.0000 
     45 H          31.4944  116.4764   70.4323 H         1 SAH1302     0.0000 
     46 H          33.8735  115.5536   70.6638 H         1 SAH1302     0.0000 
@<TRIPOS>BOND
     1    2    1 1    
     2   42    1 1    
     3   43    1 1    
     4   44    1 1    
     5    3    2 1    
     6    6    2 1    
     7   27    2 1    
     8    4    3 1    
     9   28    3 1    
    10   29    3 1    
    11    5    4 1    
    12   30    4 1    
    13   31    4 1    
    14    9    5 1    
    15    7    6 ar   
    16    8    6 ar   
    17   10    9 1    
    18   32    9 1    
    19   33    9 1    
    20   11   10 1    
    21   12   10 1    
    22   34   10 1    
    23   16   11 1    
    24   13   12 1    
    25   14   12 1    
    26   35   12 1    
    27   45   13 1    
    28   15   14 1    
    29   16   14 1    
    30   36   14 1    
    31   46   15 1    
    32   17   16 1    
    33   37   16 1    
    34   18   17 1    
    35   26   17 1    
    36   19   18 2    
    37   38   18 1    
    38   20   19 1    
    39   21   20 ar   
    40   26   20 ar   
    41   22   21 1    
    42   23   21 ar   
    43   39   22 1    
    44   40   22 1    
    45   24   23 ar   
    46   25   24 ar   
    47   41   24 1    
    48   26   25 ar   
@<TRIPOS>SUBSTRUCTURE
     1 SAH1302     1 GROUP   
@<TRIPOS>SET

