#    Name: 2x7u_WZA_1_INTS_M
#    Modification time : Tue Mar 25 05:20:11 2014

@<TRIPOS>MOLECULE
2x7u_WZA_1_INTS_M
   44     0    12     0     0
SMALL
NO_CHARGES


@<TRIPOS>ATOM
      1 N           2.7085    8.6110  -19.5970 N.am      2 SEC2        0.0000 
      2 N           1.6100    7.6880  -19.3780 N.am     10 SEL2        0.0000 
      3 N           3.8070    9.5340  -19.8160 N.am      6 SEP2        0.0000 
      4 O           2.0795    9.5970  -17.1205 O.2       1 ALC1        0.0000 
      5 O           1.1080    8.5450  -17.1320 O.2       9 ALL1        0.0000 
      6 O           3.0510   10.6490  -17.1090 O.2       5 ALP1        0.0000 
      7 Zn          0.4610    8.5940  -16.4165 Zn        3 ZIC7        0.0000 
      8 Zn          1.1080    8.5450  -17.1320 Zn       11 ZIL7        0.0000 
      9 Zn         -0.1860    8.6430  -15.7010 Zn        7 ZIP7        0.0000 
     10 CA          3.8640    5.6755  -19.6220 C.3       4 GLC5        0.0000 
     11 CA          3.4510    4.6110  -17.7520 C.3      12 GLL5        0.0000 
     12 CA          4.2770    6.7400  -21.4920 C.3       8 GLP5        0.0000 
     13 CA          4.8875    5.9000  -17.1030 C.3       4 GLC5        0.0000 
     14 CA          6.3240    7.1890  -16.4540 C.3       8 GLP5        0.0000 
     15 CA         -2.1275    1.6175  -16.9955 C.3       4 GLC5        0.0000 
     16 CA         -0.8100    2.8730  -17.8960 C.3      12 GLL5        0.0000 
     17 CA         -3.4450    0.3620  -16.0950 C.3       8 GLP5        0.0000 
     18 CA         -2.0215    3.6760  -18.2880 C.3       4 GLC5        0.0000 
     19 CA         -3.2330    4.4790  -18.6800 C.3       8 GLP5        0.0000 
     20 CA          5.9150    5.1645  -17.2685 C.3       4 GLC5        0.0000 
     21 CA          5.5060    3.1400  -18.0830 C.3      12 GLL5        0.0000 
     22 CA          1.5525   -0.2600  -20.9990 C.3       4 GLC5        0.0000 
     23 CA          3.0630    0.6460  -20.6320 C.3      12 GLL5        0.0000 
     24 CA          0.0420   -1.1660  -21.3660 C.3       8 GLP5        0.0000 
     25 CA          4.7895   -0.8225  -23.6875 C.3       4 GLC5        0.0000 
     26 CA          5.6410   -0.4890  -21.9720 C.3      12 GLL5        0.0000 
     27 CA          3.9380   -1.1560  -25.4030 C.3       8 GLP5        0.0000 
     28 CA          7.0500    1.0425  -22.0605 C.3       4 GLC5        0.0000 
     29 CA          8.4590    2.5740  -22.1490 C.3       8 GLP5        0.0000 
     30 CA          2.0661    4.3277  -20.3924 C.3       4 GLC5        0.0000 
     31 CA          2.0780    4.8580  -17.8680 C.3      12 GLL5        0.0000 
     32 CA          2.4140    5.1970  -22.2580 C.3       8 GLP5        0.0000 
     33 CA          4.6327    3.6558  -20.1249 C.3       4 GLC5        0.0000 
     34 CA          4.7250    4.3010  -21.9610 C.3       8 GLP5        0.0000 
     35 CA          2.6437   -0.0737  -22.4817 C.3       4 GLC5        0.0000 
     36 CA          2.0460   -0.0610  -24.1790 C.3       8 GLP5        0.0000 
     37 CA          2.4025   -1.6812  -21.0010 C.3       4 GLC5        0.0000 
     38 CA          3.4200   -0.8190  -20.9370 C.3      12 GLL5        0.0000 
     39 CA          0.6380   -2.4040  -21.1520 C.3       8 GLP5        0.0000 
     40 CA          4.4959    2.6037  -20.7946 C.3       4 GLC5        0.0000 
     41 CA          3.6520    1.0560  -19.2750 C.3      12 GLL5        0.0000 
     42 CA          6.8317    2.2415  -19.6800 C.3       4 GLC5        0.0000 
     43 CA          5.1760    0.9620  -19.3030 C.3      12 GLL5        0.0000 
     44 CA          8.2440    2.8070  -20.6640 C.3       8 GLP5        0.0000 
@<TRIPOS>BOND
@<TRIPOS>SUBSTRUCTURE
     1 ALC1        4 GROUP        1 X    ALC  0     ROOT ALC X 1
     2 SEC2        1 GROUP        1 X    SEC  0     **** SEC X 2
     3 ZIC7        7 GROUP        1 X    ZIC  0     **** ZIC X 5
     4 GLC5       10 GROUP        1 X    GLC  0     **** GLC X 6
     5 ALP1        6 GROUP        1 Y    ALP  0     ROOT ALP Y 8
     6 SEP2        3 GROUP        1 Y    SEP  0     **** SEP Y 9
     7 ZIP7        9 GROUP        1 Y    ZIP  0     **** ZIP Y 12
     8 GLP5       12 GROUP        1 Y    GLP  0     **** GLP Y 13
     9 ALL1        5 GROUP        1 Z    ALL  0     ROOT ALL Z 15
    10 SEL2        2 GROUP        1 Z    SEL  0     **** SEL Z 16
    11 ZIL7        8 GROUP        1 Z    ZIL  0     **** ZIL Z 19
    12 GLL5       11 GROUP        1 Z    GLL  0     **** GLL Z 20
@<TRIPOS>SET

