#    Name: 2x7u_WZA_1_ligand
#    Modification time : Tue Mar 25 05:20:11 2014

@<TRIPOS>MOLECULE
2x7u_WZA_1_ligand
   52    55     1     0     0
SMALL
NO_CHARGES


@<TRIPOS>ATOM
      1 C1          2.0780    4.8580  -17.8680 C.ar      1 WZA1263     0.0000 
      2 O1          1.6100    7.6880  -19.3780 O.2       1 WZA1263     0.0000 
      3 O2         -0.4850    7.1710  -18.4600 O.2       1 WZA1263     0.0000 
      4 C2          1.2370    3.7880  -18.4550 C.ar      1 WZA1263     0.0000 
      5 C3          1.7790    2.5940  -18.8920 C.ar      1 WZA1263     0.0000 
      6 C4          3.1370    2.3610  -18.7950 C.ar      1 WZA1263     0.0000 
      7 S1          0.9190    7.3540  -18.1810 S.o2      1 WZA1263     0.0000 
      8 N1          1.1080    8.5450  -17.1320 N.pl3     1 WZA1263     0.0000 
      9 O3          1.5310    6.0330  -17.3960 O.3       1 WZA1263     0.0000 
     10 C5          4.0130    3.4010  -18.1940 C.ar      1 WZA1263     0.0000 
     11 C6          3.4510    4.6110  -17.7520 C.ar      1 WZA1263     0.0000 
     12 O4         -0.0980    3.9070  -18.5740 O.3       1 WZA1263     0.0000 
     13 C7         -0.8100    2.8730  -17.8960 C.3       1 WZA1263     0.0000 
     14 C8          3.6520    1.0560  -19.2750 C.3       1 WZA1263     0.0000 
     15 C10         5.8200    1.6400  -18.0950 C.3       1 WZA1263     0.0000 
     16 C11         5.5060    3.1400  -18.0830 C.3       1 WZA1263     0.0000 
     17 C12         3.0630    0.6460  -20.6320 C.3       1 WZA1263     0.0000 
     18 C13         3.4200   -0.8190  -20.9370 C.3       1 WZA1263     0.0000 
     19 C14         4.9140   -1.0980  -20.7630 C.3       1 WZA1263     0.0000 
     20 C15         5.2380   -2.5660  -20.5550 C.3       1 WZA1263     0.0000 
     21 C16         5.6410   -0.4890  -21.9720 C.3       1 WZA1263     0.0000 
     22 C17         5.3860   -0.5510  -19.4160 C.3       1 WZA1263     0.0000 
     23 C18         6.7480   -1.1950  -19.1610 C.3       1 WZA1263     0.0000 
     24 C19         6.6160   -2.5720  -19.8730 C.3       1 WZA1263     0.0000 
     25 CAW         5.1760    0.9620  -19.3030 C.3       1 WZA1263     0.0000 
     26 OAF         5.2270   -3.2950  -21.7860 O.3       1 WZA1263     0.0000 
     27 H           1.1611    1.8678  -19.2957 H         1 WZA1263     0.0000 
     28 H           1.6937    9.3007  -17.4251 H         1 WZA1263     0.0000 
     29 H           4.0642    5.3294  -17.3344 H         1 WZA1263     0.0000 
     30 H           3.3083    0.2638  -18.5495 H         1 WZA1263     0.0000 
     31 H           5.4383    1.1881  -17.1820 H         1 WZA1263     0.0000 
     32 H           6.8982    1.5013  -18.1361 H         1 WZA1263     0.0000 
     33 H           5.8830    3.5737  -17.1537 H         1 WZA1263     0.0000 
     34 H           6.0219    3.6169  -18.9198 H         1 WZA1263     0.0000 
     35 H           3.4724    1.2814  -21.4075 H         1 WZA1263     0.0000 
     36 H           1.9857    0.7514  -20.6020 H         1 WZA1263     0.0000 
     37 H           3.1281   -1.0479  -21.9654 H         1 WZA1263     0.0000 
     38 H           2.8516   -1.4690  -20.2665 H         1 WZA1263     0.0000 
     39 H           4.5283   -2.9551  -19.8373 H         1 WZA1263     0.0000 
     40 H           4.6715   -1.0451  -18.6711 H         1 WZA1263     0.0000 
     41 H           6.8904   -1.3518  -18.1293 H         1 WZA1263     0.0000 
     42 H           7.5092   -0.6363  -19.6277 H         1 WZA1263     0.0000 
     43 H           7.3824   -2.6602  -20.6067 H         1 WZA1263     0.0000 
     44 H           6.6555   -3.3469  -19.1439 H         1 WZA1263     0.0000 
     45 H           5.5038    1.4121  -20.2235 H         1 WZA1263     0.0000 
     46 H          -0.5748    1.9673  -18.2487 H         1 WZA1263     0.0000 
     47 H          -0.6116    2.8665  -16.9159 H         1 WZA1263     0.0000 
     48 H          -1.7997    2.9777  -17.9940 H         1 WZA1263     0.0000 
     49 H           6.6289   -0.6366  -21.9243 H         1 WZA1263     0.0000 
     50 H           5.3264   -0.8871  -22.8337 H         1 WZA1263     0.0000 
     51 H           5.4949    0.4983  -22.0346 H         1 WZA1263     0.0000 
     52 H           5.1229   -3.4021  -20.7971 H         1 WZA1263     0.0000 
@<TRIPOS>BOND
     1    4    1 ar   
     2    9    1 1    
     3   11    1 ar   
     4    7    2 2    
     5    7    3 2    
     6    5    4 ar   
     7   12    4 1    
     8    6    5 ar   
     9   27    5 1    
    10   10    6 ar   
    11   14    6 1    
    12    8    7 1    
    13    9    7 1    
    14   28    8 1    
    15   11   10 ar   
    16   16   10 1    
    17   29   11 1    
    18   13   12 1    
    19   46   13 1    
    20   47   13 1    
    21   48   13 1    
    22   17   14 1    
    23   25   14 1    
    24   30   14 1    
    25   16   15 1    
    26   25   15 1    
    27   31   15 1    
    28   32   15 1    
    29   33   16 1    
    30   34   16 1    
    31   18   17 1    
    32   35   17 1    
    33   36   17 1    
    34   19   18 1    
    35   37   18 1    
    36   38   18 1    
    37   20   19 1    
    38   21   19 1    
    39   22   19 1    
    40   24   20 1    
    41   26   20 1    
    42   39   20 1    
    43   49   21 1    
    44   50   21 1    
    45   51   21 1    
    46   23   22 1    
    47   25   22 1    
    48   40   22 1    
    49   24   23 1    
    50   41   23 1    
    51   42   23 1    
    52   43   24 1    
    53   44   24 1    
    54   45   25 1    
    55   52   26 1    
@<TRIPOS>SUBSTRUCTURE
     1 WZA1263     1 GROUP   
@<TRIPOS>SET

