#    Name: 4GMB_1_CAVITY_N1_6.mol2
#    Modification time : Tue Mar 11 00:01:40 2014

@<TRIPOS>MOLECULE
4GMB_1_CAVITY_N1_6.mol2
   91     0     6     0     0
SMALL
NO_CHARGES


@<TRIPOS>ATOM
      1 NZ         10.7910   -9.5925   -3.5762 N.2       3 LYS4        0.0000 
      2 CA         12.1127   -9.9290   -4.2005 C.3       5 GLY6        0.0000 
      3 NZ          9.0136  -10.6707   -3.1541 N.2       3 LYS4        0.0000 
      4 NZ         10.3353  -11.0072   -3.7783 N.2       3 LYS4        0.0000 
      5 CA         11.6571  -11.3437   -4.4026 C.3       5 GLY6        0.0000 
      6 CA         12.9788  -11.6803   -5.0269 C.3       5 GLY6        0.0000 
      7 CA         14.3006  -12.0168   -5.6511 C.3       5 GLY6        0.0000 
      8 NZ          8.5579  -12.0855   -3.3562 N.2       3 LYS4        0.0000 
      9 DU          9.8797  -12.4220   -3.9804 H         6 CUB7        0.0000 
     10 DU         12.5232  -13.0950   -5.2290 H         6 CUB7        0.0000 
     11 CA         13.8449  -13.4315   -5.8533 C.3       5 GLY6        0.0000 
     12 CZ          5.4587  -12.8272   -2.3098 C.ar      4 PHE5        0.0000 
     13 DU         13.3893  -14.8463   -6.0554 H         6 CUB7        0.0000 
     14 NZ         10.2475   -9.2247   -4.9251 N.2       3 LYS4        0.0000 
     15 CA         11.5693   -9.5613   -5.5493 C.3       5 GLY6        0.0000 
     16 NZ          8.4701  -10.3030   -4.5029 N.2       3 LYS4        0.0000 
     17 OG          9.7919  -10.6395   -5.1272 O.2       1 SER1        0.0000 
     18 CA         11.1136  -10.9760   -5.7515 C.3       5 GLY6        0.0000 
     19 CA         12.4354  -11.3125   -6.3757 C.3       5 GLY6        0.0000 
     20 CA         13.7571  -11.6490   -7.0000 C.3       5 GLY6        0.0000 
     21 NZ          6.6927  -11.3812   -4.0808 N.2       3 LYS4        0.0000 
     22 OG          8.0145  -11.7177   -4.7050 O.2       1 SER1        0.0000 
     23 DU          9.3362  -12.0542   -5.3293 H         6 CUB7        0.0000 
     24 DU         11.9797  -12.7273   -6.5778 H         6 CUB7        0.0000 
     25 CA         13.3015  -13.0638   -7.2021 C.3       5 GLY6        0.0000 
     26 CZ          6.2370  -12.7960   -4.2829 C.ar      4 PHE5        0.0000 
     27 DU          7.5588  -13.1325   -4.9072 H         6 CUB7        0.0000 
     28 DU         11.5241  -14.1420   -6.7800 H         6 CUB7        0.0000 
     29 CA         12.8458  -14.4785   -7.4042 C.3       5 GLY6        0.0000 
     30 CZ          5.7814  -14.2107   -4.4850 C.ar      4 PHE5        0.0000 
     31 DU          7.1032  -14.5472   -5.1093 H         6 CUB7        0.0000 
     32 DU          8.4249  -14.8838   -5.7336 H         6 CUB7        0.0000 
     33 CZ          9.7467  -15.2203   -6.3578 C.ar      4 PHE5        0.0000 
     34 CZ         11.0684  -15.5568   -6.9821 C.ar      4 PHE5        0.0000 
     35 CZ          5.3257  -15.6255   -4.6871 C.ar      4 PHE5        0.0000 
     36 DU          6.6475  -15.9620   -5.3114 H         6 CUB7        0.0000 
     37 DU          7.9693  -16.2985   -5.9357 H         6 CUB7        0.0000 
     38 CZ          9.2910  -16.6350   -6.5599 C.ar      4 PHE5        0.0000 
     39 OG          6.1919  -17.3767   -5.5135 O.2       1 SER1        0.0000 
     40 CZ          7.5136  -17.7133   -6.1378 C.ar      4 PHE5        0.0000 
     41 N          11.0258   -9.1935   -6.8982 N.2       2 ALA2        0.0000 
     42 OG          9.2484  -10.2718   -6.4761 O.2       1 SER1        0.0000 
     43 CA         10.5702  -10.6083   -7.1003 C.3       5 GLY6        0.0000 
     44 CA         11.8919  -10.9448   -7.7246 C.3       5 GLY6        0.0000 
     45 N          13.2137  -11.2813   -8.3489 N.2       2 ALA2        0.0000 
     46 OG          7.4710  -11.3500   -6.0539 O.2       1 SER1        0.0000 
     47 OG          8.7928  -11.6865   -6.6782 O.2       1 SER1        0.0000 
     48 DU         10.1145  -12.0230   -7.3024 H         6 CUB7        0.0000 
     49 DU         11.4363  -12.3595   -7.9267 H         6 CUB7        0.0000 
     50 CA         12.7581  -12.6960   -8.5510 C.3       5 GLY6        0.0000 
     51 CZ          5.6936  -12.4282   -5.6318 C.ar      4 PHE5        0.0000 
     52 CZ          7.0154  -12.7648   -6.2560 C.ar      4 PHE5        0.0000 
     53 DU          8.3371  -13.1013   -6.8803 H         6 CUB7        0.0000 
     54 CA         10.9806  -13.7743   -8.1288 C.3       5 GLY6        0.0000 
     55 CZ          6.5597  -14.1795   -6.4582 C.ar      4 PHE5        0.0000 
     56 DU          7.8815  -14.5160   -7.0824 H         6 CUB7        0.0000 
     57 CZ          9.2032  -14.8525   -7.7067 C.ar      4 PHE5        0.0000 
     58 CZ         10.5250  -15.1890   -8.3310 C.ar      4 PHE5        0.0000 
     59 CZ          6.1041  -15.5943   -6.6603 C.ar      4 PHE5        0.0000 
     60 DU          7.4258  -15.9308   -7.2845 H         6 CUB7        0.0000 
     61 CZ          8.7476  -16.2673   -7.9088 C.ar      4 PHE5        0.0000 
     62 O           6.9702  -17.3455   -7.4867 O.2       2 ALA2        0.0000 
     63 CA          8.2493  -11.3188   -8.0270 C.3       5 GLY6        0.0000 
     64 CA          9.5711  -11.6553   -8.6513 C.3       5 GLY6        0.0000 
     65 CA         10.8928  -11.9918   -9.2756 C.3       5 GLY6        0.0000 
     66 CZ          6.4719  -12.3970   -7.6049 C.ar      4 PHE5        0.0000 
     67 CZ          7.7937  -12.7335   -8.2292 C.ar      4 PHE5        0.0000 
     68 DU          9.1154  -13.0700   -8.8534 H         6 CUB7        0.0000 
     69 CA         10.4372  -13.4065   -9.4777 C.3       5 GLY6        0.0000 
     70 CZ          7.3380  -14.1483   -8.4313 C.ar      4 PHE5        0.0000 
     71 CA          8.6598  -14.4848   -9.0556 C.3       5 GLY6        0.0000 
     72 CA          9.9815  -14.8213   -9.6798 C.3       5 GLY6        0.0000 
     73 O           6.8824  -15.5630   -8.6334 O.2       2 ALA2        0.0000 
     74 CA          8.2041  -15.8995   -9.2577 C.3       5 GLY6        0.0000 
     75 N           7.7059  -10.9510   -9.3759 N.2       2 ALA2        0.0000 
     76 CA          9.0276  -11.2875  -10.0002 C.3       5 GLY6        0.0000 
     77 CZ          5.9285  -12.0293   -8.9538 C.ar      4 PHE5        0.0000 
     78 CZ          7.2502  -12.3658   -9.5780 C.ar      4 PHE5        0.0000 
     79 CA          8.5720  -12.7023  -10.2023 C.3       5 GLY6        0.0000 
     80 CZ          6.7946  -13.7805   -9.7801 C.ar      4 PHE5        0.0000 
     81 CA          8.1163  -14.1171  -10.4044 C.3       5 GLY6        0.0000 
     82 CZ          5.3850  -11.6615  -10.3026 C.ar      4 PHE5        0.0000 
     83 N           6.7068  -11.9981  -10.9269 N.2       2 ALA2        0.0000 
     84 N           8.0285  -12.3346  -11.5512 N.2       2 ALA2        0.0000 
     85 N           6.2511  -13.4128  -11.1290 N.2       2 ALA2        0.0000 
     86 CZ          4.8416  -11.2938  -11.6515 C.ar      4 PHE5        0.0000 
     87 CZ          6.1633  -11.6303  -12.2758 C.ar      4 PHE5        0.0000 
     88 CZ          4.3859  -12.7086  -11.8536 C.ar      4 PHE5        0.0000 
     89 N           5.7077  -13.0451  -12.4779 N.2       2 ALA2        0.0000 
     90 CZ          3.8425  -12.3408  -13.2025 C.ar      4 PHE5        0.0000 
     91 N           3.3868  -13.7556  -13.4046 N.2       2 ALA2        0.0000 
@<TRIPOS>BOND
@<TRIPOS>SUBSTRUCTURE
     1 SER1       17 GROUP   
     2 ALA2       41 GROUP   
     3 LYS4        1 GROUP   
     4 PHE5       12 GROUP   
     5 GLY6        2 GROUP   
     6 CUB7        9 GROUP   
@<TRIPOS>SET

