#    Name: 4gmb_ARG_ALQ_0XQ_ABA_PG9_1_INTS_M
#    Modification time : Mon Mar 24 22:33:13 2014

@<TRIPOS>MOLECULE
4gmb_ARG_ALQ_0XQ_ABA_PG9_1_INTS_M
   69     0     9     0     0
SMALL
NO_CHARGES


@<TRIPOS>ATOM
      1 O           7.0455  -10.5565   -6.5385 O.2       1 ALC1        0.0000 
      2 O           7.3950  -12.2490   -6.5310 O.2       7 ALL1        0.0000 
      3 O           6.6960   -8.8640   -6.5460 O.2       4 ALP1        0.0000 
      4 CA          6.9500  -10.5335   -8.4730 C.3       3 GLC5        0.0000 
      5 CA          7.4700  -12.2770   -9.0090 C.3       9 GLL5        0.0000 
      6 CA          6.4300   -8.7900   -7.9370 C.3       6 GLP5        0.0000 
      7 CA          5.8685  -13.3425   -9.5265 C.3       3 GLC5        0.0000 
      8 CA          7.8550  -12.9170  -10.3520 C.3       9 GLL5        0.0000 
      9 CA          3.8820  -13.7680   -8.7010 C.3       6 GLP5        0.0000 
     10 CA          7.0390  -11.8560  -13.2260 C.3       3 GLC5        0.0000 
     11 CA          7.2640  -12.2770  -11.5950 C.3       9 GLL5        0.0000 
     12 CA          6.8140  -11.4350  -14.8570 C.3       6 GLP5        0.0000 
     13 O           6.7745   -9.9970  -11.1505 O.2       1 ALC1        0.0000 
     14 O           6.2990  -11.2140  -11.3820 O.2       7 ALL1        0.0000 
     15 O           7.2500   -8.7800  -10.9190 O.2       4 ALP1        0.0000 
     16 O           5.6910  -14.1760  -12.6180 O.2       1 ALC1        0.0000 
     17 O           4.9650  -12.7290  -12.4210 O.2       7 ALL1        0.0000 
     18 O           6.4170  -15.6230  -12.8150 O.2       4 ALP1        0.0000 
     19 CA         10.6495   -9.2870   -8.1740 C.3       3 GLC5        0.0000 
     20 CA         10.6800   -9.2460   -5.9270 C.3       9 GLL5        0.0000 
     21 CA         10.6190   -9.3280  -10.4210 C.3       6 GLP5        0.0000 
     22 CA          9.1100   -8.6390   -7.2955 C.3       3 GLC5        0.0000 
     23 CA          7.5400   -8.0320   -8.6640 C.3       6 GLP5        0.0000 
     24 OD1         7.4155   -9.4425   -3.5450 O.co2     2 ASC3        0.0000 
     25 OD1         7.8970  -10.6930   -4.1080 O.co2     8 ASL3        0.0000 
     26 OD1         6.9340   -8.1920   -2.9820 O.co2     5 ASP3        0.0000 
     27 OD1         8.1860   -9.7590   -2.8265 O.co2     2 ASC3        0.0000 
     28 OD1         8.4750   -8.8250   -1.5450 O.co2     5 ASP3        0.0000 
     29 CA          4.8700  -11.3650   -2.1340 C.3       3 GLC5        0.0000 
     30 CA          5.6560  -11.7440   -3.9100 C.3       9 GLL5        0.0000 
     31 CA          4.0840  -10.9860   -0.3580 C.3       6 GLP5        0.0000 
     32 CA          4.4800  -11.9875   -5.4385 C.3       3 GLC5        0.0000 
     33 CA          3.3040  -12.2310   -6.9670 C.3       6 GLP5        0.0000 
     34 CA          4.0785  -12.5005   -3.8140 C.3       3 GLC5        0.0000 
     35 CA          2.5010  -13.2570   -3.7180 C.3       6 GLP5        0.0000 
     36 CA          4.8235  -13.7110   -2.3040 C.3       3 GLC5        0.0000 
     37 CA          6.5740  -13.1770   -1.6660 C.3       9 GLL5        0.0000 
     38 CA          3.0730  -14.2450   -2.9420 C.3       6 GLP5        0.0000 
     39 CA         11.5995  -10.3465   -9.2080 C.3       3 GLC5        0.0000 
     40 CA         12.5800  -11.3650   -7.9950 C.3       9 GLL5        0.0000 
     41 CA         13.1870  -13.1175   -9.0580 C.3       3 GLC5        0.0000 
     42 CA         13.7940  -14.8700  -10.1210 C.3       6 GLP5        0.0000 
     43 CA         11.1030  -17.2135   -5.9235 C.3       3 GLC5        0.0000 
     44 CA         10.7860  -15.9410   -4.1210 C.3       9 GLL5        0.0000 
     45 CA         11.4200  -18.4860   -7.7260 C.3       6 GLP5        0.0000 
     46 CA          8.6315  -20.4005   -6.1530 C.3       3 GLC5        0.0000 
     47 CA          8.2500  -18.4100   -5.5480 C.3       9 GLL5        0.0000 
     48 CA          9.0130  -22.3910   -6.7580 C.3       6 GLP5        0.0000 
     49 CA          8.9860  -20.3640   -4.5910 C.3       3 GLC5        0.0000 
     50 CA          7.4930  -18.7370   -4.4140 C.3       9 GLL5        0.0000 
     51 CA         10.4790  -21.9910   -4.7680 C.3       6 GLP5        0.0000 
     52 CA          5.8190  -12.9930   -7.8873 C.3       3 GLC5        0.0000 
     53 CA          7.6800  -13.1110   -7.7000 C.3       9 GLL5        0.0000 
     54 CA          4.0630  -13.2920   -7.4200 C.3       6 GLP5        0.0000 
     55 CA          8.9482  -13.6395  -11.7502 C.3       3 GLC5        0.0000 
     56 CA         10.3370  -14.6820  -12.5270 C.3       6 GLP5        0.0000 
     57 CA         12.5832   -9.1146   -4.8776 C.3       3 GLC5        0.0000 
     58 CA         11.1460   -9.2380   -3.4730 C.3       9 GLL5        0.0000 
     59 CA         14.3940   -8.9380   -5.4020 C.3       6 GLP5        0.0000 
     60 CA         11.0083   -7.4836   -4.0971 C.3       3 GLC5        0.0000 
     61 CA         11.2440   -5.6760   -3.8410 C.3       6 GLP5        0.0000 
     62 CA          5.9325  -12.3622   -0.0677 C.3       3 GLC5        0.0000 
     63 CA          4.6800  -11.5450    0.7500 C.3       6 GLP5        0.0000 
     64 CA         12.9522  -13.9958   -8.6323 C.3       3 GLC5        0.0000 
     65 CA         11.5570  -13.6410   -7.2060 C.3       9 GLL5        0.0000 
     66 CA         14.5005  -12.1572   -7.9135 C.3       3 GLC5        0.0000 
     67 CA         12.6640  -12.6020   -7.0810 C.3       9 GLL5        0.0000 
     68 CA         16.3790  -12.3310   -8.2890 C.3       6 GLP5        0.0000 
     69 CA         13.5080  -10.4608   -6.4700 C.3       3 GLC5        0.0000 
@<TRIPOS>BOND
@<TRIPOS>SUBSTRUCTURE
     1 ALC1        1 GROUP        1 X    ALC  0     ROOT ALC X 1
     2 ASC3       24 GROUP        1 X    ASC  0     **** ASC X 3
     3 GLC5        4 GROUP        1 X    GLC  0     **** GLC X 6
     4 ALP1        3 GROUP        1 Y    ALP  0     ROOT ALP Y 8
     5 ASP3       26 GROUP        1 Y    ASP  0     **** ASP Y 10
     6 GLP5        6 GROUP        1 Y    GLP  0     **** GLP Y 13
     7 ALL1        2 GROUP        1 Z    ALL  0     ROOT ALL Z 15
     8 ASL3       25 GROUP        1 Z    ASL  0     **** ASL Z 17
     9 GLL5        5 GROUP        1 Z    GLL  0     **** GLL Z 20
@<TRIPOS>SET

