#    Name: 4gmb_ARG_ALQ_0XQ_ABA_PG9_1_ligand
#    Modification time : Mon Mar 24 22:33:13 2014

@<TRIPOS>MOLECULE
4gmb_ARG_ALQ_0XQ_ABA_PG9_1_ligand
   93    94     5     0     0
SMALL
NO_CHARGES


@<TRIPOS>ATOM
      1 N           7.3950  -12.2490   -6.5310 N.am      1 ARG3        0.0000
      2 CA          7.6800  -13.1110   -7.7000 C.3       1 ARG3        0.0000
      3 C           9.0900  -13.7900   -7.7150 C.2       1 ARG3        0.0000
      4 O           9.2340  -14.9390   -8.1560 O.2       1 ARG3        0.0000
      5 CB          7.4700  -12.2770   -9.0090 C.3       1 ARG3        0.0000
      6 CG          7.8550  -12.9170  -10.3520 C.3       1 ARG3        0.0000
      7 CD          7.2640  -12.2770  -11.5950 C.3       1 ARG3        0.0000
      8 NE          6.2990  -11.2140  -11.3820 N.pl3     1 ARG3        0.0000
      9 CZ          4.9920  -11.6380  -11.7210 C.cat     1 ARG3        0.0000
     10 NH1         4.9650  -12.7290  -12.4210 N.pl3     1 ARG3        0.0000
     11 NH2         4.2210  -10.6880  -12.1630 N.pl3     1 ARG3        0.0000
     12 HNCA        7.1823  -11.2824   -6.6689 H         1 ARG3        0.0000
     13 HA          6.9296  -13.9213   -7.7476 H         1 ARG3        0.0000
     14 HB2         8.0326  -11.3183   -8.8933 H         1 ARG3        0.0000
     15 HB3         6.3945  -11.9759   -9.0495 H         1 ARG3        0.0000
     16 HG2         7.5627  -13.9904  -10.3233 H         1 ARG3        0.0000
     17 HG3         8.9648  -12.9126  -10.4350 H         1 ARG3        0.0000
     18 HD2         6.8070  -13.0964  -12.2135 H         1 ARG3        0.0000
     19 HD3         8.1181  -11.9043  -12.2231 H         1 ARG3        0.0000
     20 HE          6.5338  -10.3517  -11.0564 H         1 ARG3        0.0000
     21 HH11        4.0587  -13.0653  -12.6769 H         1 ARG3        0.0000
     22 HH12        5.8530  -13.1332  -12.6402 H         1 ARG3        0.0000
     23 HH21        4.6466   -9.7893  -12.2688 H         1 ARG3        0.0000
     24 HH22        3.2738  -10.9440  -12.3562 H         1 ARG3        0.0000
     25 CM         10.6800   -9.2460   -5.9270 C.3       2 ALQ1        0.0000
     26 CA         10.1180   -9.4430   -4.5400 C.3       2 ALQ1        0.0000
     27 CB         11.1460   -9.2380   -3.4730 C.3       2 ALQ1        0.0000
     28 C           9.3400  -10.7300   -4.3780 C.2       2 ALQ1        0.0000
     29 O           9.9330  -11.7970   -4.4760 O.co2     2 ALQ1        0.0000
     30 H           9.3543   -8.6036   -4.3991 H         2 ALQ1        0.0000
     31 H          11.0481   -8.3245   -6.0511 H         2 ALQ1        0.0000
     32 H          11.4226   -9.8869   -6.1213 H         2 ALQ1        0.0000
     33 H           9.9841   -9.3811   -6.6323 H         2 ALQ1        0.0000
     34 H          11.9124   -9.8732   -3.5687 H         2 ALQ1        0.0000
     35 H          11.5268   -8.3136   -3.4968 H         2 ALQ1        0.0000
     36 H          10.7646   -9.3744   -2.5587 H         2 ALQ1        0.0000
     37 CAD         7.1530  -11.9450   -3.9500 C.3       3 0XQ2        0.0000
     38 CAE         7.4270  -12.8190   -5.1830 C.2       3 0XQ2        0.0000
     39 CAZ         7.6040  -12.6540   -2.6830 C.3       3 0XQ2        0.0000
     40 NAC         7.8970  -10.6930   -4.1080 N.4       3 0XQ2        0.0000
     41 OAG         7.6890  -13.9990   -5.0320 O.co2     3 0XQ2        0.0000
     42 CBA         5.6560  -11.7440   -3.9100 C.3       3 0XQ2        0.0000
     43 C01         9.7090  -13.7670   -0.0900 C.3       3 0XQ2        0.0000
     44 C02        10.7480  -13.3540   -1.1520 C.3       3 0XQ2        0.0000
     45 N02        10.5930  -13.9300   -2.5020 N.4       3 0XQ2        0.0000
     46 C3          8.4720  -12.8770    0.0710 C.3       3 0XQ2        0.0000
     47 C05         6.5740  -13.1770   -1.6660 C.3       3 0XQ2        0.0000
     48 C06         7.1200  -13.4870   -0.2810 C.3       3 0XQ2        0.0000
     49 H           8.3178  -11.9712   -2.1276 H         3 0XQ2        0.0000
     50 H           8.2664  -13.5247   -2.9786 H         3 0XQ2        0.0000
     51 H          10.2271  -13.8381    0.8960 H         3 0XQ2        0.0000
     52 H           9.3723  -14.8067   -0.3169 H         3 0XQ2        0.0000
     53 H          11.7610  -13.6050   -0.7438 H         3 0XQ2        0.0000
     54 H          10.7389  -12.2350   -1.2110 H         3 0XQ2        0.0000
     55 H           8.6193  -11.9560   -0.5447 H         3 0XQ2        0.0000
     56 H           8.4356  -12.5137    1.1272 H         3 0XQ2        0.0000
     57 H           6.1044  -14.0908   -2.0832 H         3 0XQ2        0.0000
     58 H           5.7612  -12.4281   -1.5757 H         3 0XQ2        0.0000
     59 H           6.3736  -13.1578    0.4794 H         3 0XQ2        0.0000
     60 H           7.1888  -14.5939   -0.1635 H         3 0XQ2        0.0000
     61 H           5.3775  -11.1813   -3.1317 H         3 0XQ2        0.0000
     62 H           5.3201  -11.2898   -4.7352 H         3 0XQ2        0.0000
     63 H           5.1665  -12.6127   -3.8336 H         3 0XQ2        0.0000
     64 N          10.2340  -13.0500   -7.1970 N.am      4 ABA4        0.0000
     65 CA         11.5570  -13.6410   -7.2060 C.3       4 ABA4        0.0000
     66 C          11.6710  -14.7070   -6.1160 C.2       4 ABA4        0.0000
     67 O          12.6650  -15.4090   -6.0820 O.2       4 ABA4        0.0000
     68 CB         12.6640  -12.6020   -7.0810 C.3       4 ABA4        0.0000
     69 CG         12.5800  -11.3650   -7.9950 C.3       4 ABA4        0.0000
     70 H          10.0996  -12.1179   -6.8296 H         4 ABA4        0.0000
     71 H          11.7117  -14.1656   -8.1714 H         4 ABA4        0.0000
     72 H          13.6471  -13.1006   -7.2607 H         4 ABA4        0.0000
     73 H          12.7083  -12.2493   -6.0222 H         4 ABA4        0.0000
     74 H          13.3448  -10.7388   -7.8437 H         4 ABA4        0.0000
     75 H          12.5942  -11.6166   -8.9627 H         4 ABA4        0.0000
     76 H          11.7402  -10.8448   -7.8397 H         4 ABA4        0.0000
     77 N          10.6190  -14.9100   -5.1170 N.am      5 PG95        0.0000
     78 CA         10.7860  -15.9410   -4.1210 C.3       5 PG95        0.0000
     79 CB          9.6310  -16.9220   -4.2100 C.ar      5 PG95        0.0000
     80 CG1         9.3160  -17.5030   -5.4440 C.ar      5 PG95        0.0000
     81 CD1         8.2500  -18.4100   -5.5480 C.ar      5 PG95        0.0000
     82 CE          7.4930  -18.7370   -4.4140 C.ar      5 PG95        0.0000
     83 CD2         7.8040  -18.1570   -3.1810 C.ar      5 PG95        0.0000
     84 CG2         8.8720  -17.2490   -3.0740 C.ar      5 PG95        0.0000
     85 C          10.9320  -15.3130   -2.7440 C.2       5 PG95        0.0000
     86 O          11.3470  -15.9910   -1.8280 O.2       5 PG95        0.0000
     87 H           9.7992  -14.3364   -5.1331 H         5 PG95        0.0000
     88 H          11.7105  -16.4967   -4.3331 H         5 PG95        0.0000
     89 H           9.8662  -17.2657   -6.2776 H         5 PG95        0.0000
     90 H           8.0252  -18.8332   -6.4536 H         5 PG95        0.0000
     91 H           6.7156  -19.3985   -4.4909 H         5 PG95        0.0000
     92 H           7.2525  -18.3926   -2.3479 H         5 PG95        0.0000
     93 H           9.0958  -16.8270   -2.1694 H         5 PG95        0.0000
@<TRIPOS>BOND
     1    2    1 1
     2   12    1 1
     3    3    2 1
     4    5    2 1
     5   13    2 1
     6    4    3 2
     7    6    5 1
     8   14    5 1
     9   15    5 1
    10    7    6 1
    11   16    6 1
    12   17    6 1
    13    8    7 1
    14   18    7 1
    15   19    7 1
    16    9    8 ar
    17   20    8 1
    18   10    9 ar
    19   11    9 ar
    20   21   10 1
    21   22   10 1
    22   23   11 1
    23   24   11 1
    24   26   25 1
    25   31   25 1
    26   32   25 1
    27   33   25 1
    28   27   26 1
    29   28   26 1
    30   30   26 1
    31   34   27 1
    32   35   27 1
    33   36   27 1
    34   29   28 ar
    35   38   37 1
    36   39   37 1
    37   40   37 1
    38   42   37 1
    39   41   38 ar
    40   47   39 1
    41   49   39 1
    42   50   39 1
    43   61   42 1
    44   62   42 1
    45   63   42 1
    46   44   43 1
    47   46   43 1
    48   51   43 1
    49   52   43 1
    50   45   44 1
    51   53   44 1
    52   54   44 1
    53   48   46 1
    54   55   46 1
    55   56   46 1
    56   48   47 1
    57   57   47 1
    58   58   47 1
    59   59   48 1
    60   60   48 1
    61   65   64 1
    62   70   64 1
    63   66   65 1
    64   68   65 1
    65   71   65 1
    66   67   66 2
    67   69   68 1
    68   72   68 1
    69   73   68 1
    70   74   69 1
    71   75   69 1
    72   76   69 1
    73   78   77 1
    74   87   77 1
    75   79   78 1
    76   85   78 1
    77   88   78 1
    78   80   79 ar
    79   84   79 ar
    80   81   80 ar
    81   89   80 1
    82   82   81 ar
    83   90   81 1
    84   83   82 ar
    85   91   82 1
    86   84   83 ar
    87   92   83 1
    88   93   84 1
    89   86   85 2
    90   38    1 1 
    91   64    3 1 
    92   40   28 1 
    93   85   45 1 
    94   77   66 1 
@<TRIPOS>SUBSTRUCTURE
     1 ARG3        1 RESIDUE
     2 ALQ1       25 GROUP
     3 0XQ2       37 GROUP
     4 ABA4       64 GROUP
     5 PG95       77 GROUP
@<TRIPOS>SET

