#    Name: 4hu1_V13_2_INTS_M
#    Modification time : Tue Mar 25 01:46:38 2014

@<TRIPOS>MOLECULE
4hu1_V13_2_INTS_M
   35     0    12     0     0
SMALL
NO_CHARGES


@<TRIPOS>ATOM
      1 CA        -35.4150  -34.0360   19.8725 C.3       4 GLC5        0.0000 
      2 CA        -36.7550  -34.9670   20.3370 C.3      12 GLL5        0.0000 
      3 CA        -34.0750  -33.1050   19.4080 C.3       8 GLP5        0.0000 
      4 CA        -37.1955  -34.6790   18.8885 C.3       4 GLC5        0.0000 
      5 CA        -37.6360  -34.3910   17.4400 C.3       8 GLP5        0.0000 
      6 CA        -32.9095  -35.9225   21.4455 C.3       4 GLC5        0.0000 
      7 CA        -34.7220  -36.1540   21.6290 C.3      12 GLL5        0.0000 
      8 CA        -31.0970  -35.6910   21.2620 C.3       8 GLP5        0.0000 
      9 O         -34.7795  -38.2130   26.8030 O.2       1 ALC1        0.0000 
     10 O         -34.7300  -37.1320   26.1320 O.2       9 ALL1        0.0000 
     11 O         -34.8290  -39.2940   27.4740 O.2       5 ALP1        0.0000 
     12 Zn        -34.5490  -36.3495   26.6470 Zn        3 ZIC7        0.0000 
     13 Zn        -34.7300  -37.1320   26.1320 Zn       11 ZIL7        0.0000 
     14 Zn        -34.3680  -35.5670   27.1620 Zn        7 ZIP7        0.0000 
     15 N         -34.6390  -39.5335   24.2965 N.am      2 SEC2        0.0000 
     16 N         -34.2510  -38.2300   23.7830 N.am     10 SEL2        0.0000 
     17 N         -35.0270  -40.8370   24.8100 N.am      6 SEP2        0.0000 
     18 CA        -39.6643  -34.8888   18.5985 C.3       4 GLC5        0.0000 
     19 CA        -40.0650  -36.2120   20.1650 C.3      12 GLL5        0.0000 
     20 CA        -38.9060  -34.1900   16.8190 C.3       8 GLP5        0.0000 
     21 CA        -36.3723  -36.9573   20.6345 C.3       4 GLC5        0.0000 
     22 CA        -36.9100  -35.2260   21.6410 C.3      12 GLL5        0.0000 
     23 CA        -35.9120  -38.8180   20.2800 C.3       8 GLP5        0.0000 
     24 CA        -34.8928  -34.3751   22.3306 C.3       4 GLC5        0.0000 
     25 CA        -34.0200  -32.7570   21.9290 C.3       8 GLP5        0.0000 
     26 CA        -35.7730  -37.4447   21.5466 C.3       4 GLC5        0.0000 
     27 CA        -35.8580  -35.8520   22.2900 C.3      12 GLL5        0.0000 
     28 CA        -36.5768  -34.5097   26.2372 C.3       4 GLC5        0.0000 
     29 CA        -37.1440  -35.7850   24.3290 C.3      12 GLL5        0.0000 
     30 CA        -35.8800  -33.0950   27.5170 C.3       8 GLP5        0.0000 
     31 CA        -38.1815  -37.3101   24.7415 C.3       4 GLC5        0.0000 
     32 CA        -37.4030  -36.0640   25.5860 C.3      12 GLL5        0.0000 
     33 CA        -39.3810  -38.6070   24.6910 C.3       8 GLP5        0.0000 
     34 CA        -39.0545  -36.8152   24.3380 C.3       4 GLC5        0.0000 
     35 CA        -38.1810  -35.1740   23.6430 C.3      12 GLL5        0.0000 
@<TRIPOS>BOND
@<TRIPOS>SUBSTRUCTURE
     1 ALC1        9 GROUP        1 X    ALC  0     ROOT ALC X 1
     2 SEC2       15 GROUP        1 X    SEC  0     **** SEC X 2
     3 ZIC7       12 GROUP        1 X    ZIC  0     **** ZIC X 5
     4 GLC5        1 GROUP        1 X    GLC  0     **** GLC X 6
     5 ALP1       11 GROUP        1 Y    ALP  0     ROOT ALP Y 8
     6 SEP2       17 GROUP        1 Y    SEP  0     **** SEP Y 9
     7 ZIP7       14 GROUP        1 Y    ZIP  0     **** ZIP Y 12
     8 GLP5        3 GROUP        1 Y    GLP  0     **** GLP Y 13
     9 ALL1       10 GROUP        1 Z    ALL  0     ROOT ALL Z 15
    10 SEL2       16 GROUP        1 Z    SEL  0     **** SEL Z 16
    11 ZIL7       13 GROUP        1 Z    ZIL  0     **** ZIL Z 19
    12 GLL5        2 GROUP        1 Z    GLL  0     **** GLL Z 20
@<TRIPOS>SET

