#    Name: 4hu1_V13_2_ligand
#    Modification time : Tue Mar 25 01:46:38 2014

@<TRIPOS>MOLECULE
4hu1_V13_2_ligand
   26    26     1     0     0
SMALL
NO_CHARGES


@<TRIPOS>ATOM
      1 O20       -38.8150  -33.0830   20.5040 O.2       1 V13302      0.0000 
      2 S15       -39.4970  -34.0380   21.4600 S.o2      1 V13302      0.0000 
      3 O19       -40.1780  -33.0160   22.3640 O.2       1 V13302      0.0000 
      4 C16       -40.7800  -34.9630   20.5910 C.3       1 V13302      0.0000 
      5 C17       -40.0650  -36.2120   20.1650 C.3       1 V13302      0.0000 
      6 O18       -40.0920  -37.0560   21.2690 O.3       1 V13302      0.0000 
      7 C1        -38.0820  -34.8380   22.3240 C.ar      1 V13302      0.0000 
      8 C6        -36.9100  -35.2260   21.6410 C.ar      1 V13302      0.0000 
      9 F11       -36.7550  -34.9670   20.3370 F         1 V13302      0.0000 
     10 C5        -35.8580  -35.8520   22.2900 C.ar      1 V13302      0.0000 
     11 F12       -34.7220  -36.1540   21.6290 F         1 V13302      0.0000 
     12 C4        -35.9780  -36.1400   23.6670 C.ar      1 V13302      0.0000 
     13 S7        -34.5760  -36.9180   24.4370 S.o2      1 V13302      0.0000 
     14 O9        -33.5730  -35.9080   24.2420 O.2       1 V13302      0.0000 
     15 N10       -34.7300  -37.1320   26.1320 N.pl3     1 V13302      0.0000 
     16 O8        -34.2510  -38.2300   23.7830 O.2       1 V13302      0.0000 
     17 C3        -37.1440  -35.7850   24.3290 C.ar      1 V13302      0.0000 
     18 F13       -37.4030  -36.0640   25.5860 F         1 V13302      0.0000 
     19 C2        -38.1810  -35.1740   23.6430 C.ar      1 V13302      0.0000 
     20 F14       -39.2750  -34.8730   24.3270 F         1 V13302      0.0000 
     21 H         -41.0271  -34.3218   19.8133 H         1 V13302      0.0000 
     22 H         -41.4912  -35.1059   21.3331 H         1 V13302      0.0000 
     23 H         -39.0545  -35.9400   19.8685 H         1 V13302      0.0000 
     24 H         -40.5884  -36.6264   19.3063 H         1 V13302      0.0000 
     25 H         -35.1685  -37.9797   26.4305 H         1 V13302      0.0000 
     26 H         -40.9388  -36.8269   21.7491 H         1 V13302      0.0000 
@<TRIPOS>BOND
     1    2    1 2    
     2    3    2 2    
     3    4    2 1    
     4    7    2 1    
     5    5    4 1    
     6   21    4 1    
     7   22    4 1    
     8    6    5 1    
     9   23    5 1    
    10   24    5 1    
    11   26    6 1    
    12    8    7 ar   
    13   19    7 ar   
    14    9    8 1    
    15   10    8 ar   
    16   11   10 1    
    17   12   10 ar   
    18   13   12 1    
    19   17   12 ar   
    20   14   13 2    
    21   15   13 1    
    22   16   13 2    
    23   25   15 1    
    24   18   17 1    
    25   19   17 ar   
    26   20   19 1    
@<TRIPOS>SUBSTRUCTURE
     1 V13302      1 GROUP   
@<TRIPOS>SET

