#    Name: 2q3o_FMN_2_INTS_M
#    Modification time : Mon Mar 24 20:42:26 2014

@<TRIPOS>MOLECULE
2q3o_FMN_2_INTS_M
   59     0    12     0     0
SMALL
NO_CHARGES


@<TRIPOS>ATOM
      1 N          66.5165   13.3825   46.2520 N.am      2 SEC2        0.0000 
      2 N          68.1110   13.2540   45.8530 N.am     10 SEL2        0.0000 
      3 N          64.9220   13.5110   46.6510 N.am      6 SEP2        0.0000 
      4 N          68.5740   14.4715   46.1485 N.am      2 SEC2        0.0000 
      5 N          69.0370   15.6890   46.4440 N.am      6 SEP2        0.0000 
      6 O          66.3555   11.2535   46.8150 O.2       1 ALC1        0.0000 
      7 O          67.8490   11.1820   46.4800 O.2       9 ALL1        0.0000 
      8 O          64.8620   11.3250   47.1500 O.2       5 ALP1        0.0000 
      9 N          68.6965    8.3475   48.0305 N.am      2 SEC2        0.0000 
     10 N          67.6450    9.0320   47.1080 N.am     10 SEL2        0.0000 
     11 N          69.7480    7.6630   48.9530 N.am      6 SEP2        0.0000 
     12 N          68.0470    7.7400   46.9080 N.am      2 SEC2        0.0000 
     13 N          68.4490    6.4480   46.7080 N.am      6 SEP2        0.0000 
     14 N          66.6040    8.8070   47.9335 N.am      2 SEC2        0.0000 
     15 N          65.5630    8.5820   48.7590 N.am      6 SEP2        0.0000 
     16 N          70.0570    8.1110   47.8495 N.am      2 SEC2        0.0000 
     17 N          70.3660    8.5590   46.7460 N.am     10 SEL2        0.0000 
     18 N          69.4075    7.5035   46.7270 N.am      2 SEC2        0.0000 
     19 CA         75.6295    5.1850   47.8950 C.3       4 GLC5        0.0000 
     20 CA         74.1200    5.4450   46.9410 C.3      12 GLL5        0.0000 
     21 CA         77.1390    4.9250   48.8490 C.3       8 GLP5        0.0000 
     22 CA         75.2480    4.8465   45.7970 C.3       4 GLC5        0.0000 
     23 CA         76.3760    4.2480   44.6530 C.3       8 GLP5        0.0000 
     24 CA         77.2275    7.2605   47.0330 C.3       4 GLC5        0.0000 
     25 CA         75.9450    7.6880   46.0340 C.3      12 GLL5        0.0000 
     26 CA         78.5100    6.8330   48.0320 C.3       8 GLP5        0.0000 
     27 CA         76.1605    5.9680   45.3435 C.3       4 GLC5        0.0000 
     28 CA         73.0710   11.6580   48.4965 C.3       4 GLC5        0.0000 
     29 CA         73.4100   12.2490   46.8090 C.3      12 GLL5        0.0000 
     30 CA         72.7320   11.0670   50.1840 C.3       8 GLP5        0.0000 
     31 O          71.2285   12.4370   48.2380 O.2       1 ALC1        0.0000 
     32 O          72.3680   12.7250   47.6870 O.2       9 ALL1        0.0000 
     33 O          70.0890   12.1490   48.7890 O.2       5 ALP1        0.0000 
     34 CA         74.6215   12.4960   49.6015 C.3       4 GLC5        0.0000 
     35 CA         75.0570   13.6370   47.9790 C.3      12 GLL5        0.0000 
     36 CA         74.1860   11.3550   51.2240 C.3       8 GLP5        0.0000 
     37 N          76.8270   14.1920   50.2885 N.am      2 SEC2        0.0000 
     38 N          76.6930   14.9410   49.0540 N.am     10 SEL2        0.0000 
     39 N          76.9610   13.4430   51.5230 N.am      6 SEP2        0.0000 
     40 N          75.8300   16.3475   50.7105 N.am      2 SEC2        0.0000 
     41 N          76.6780   16.7990   49.5490 N.am     10 SEL2        0.0000 
     42 N          74.9820   15.8960   51.8720 N.am      6 SEP2        0.0000 
     43 NZ         79.5220   15.0790   47.5155 N.4       3 LYC4        0.0000 
     44 NZ         78.5650   15.0690   48.5480 N.4      11 LYL4        0.0000 
     45 NZ         80.5960   13.8340   46.8960 N.4       7 LYP4        0.0000 
     46 N          79.1580   14.2170   48.1780 N.am      2 SEC2        0.0000 
     47 N          78.5650   15.0690   48.5480 N.am     10 SEL2        0.0000 
     48 N          79.7510   13.3650   47.8080 N.am      6 SEP2        0.0000 
     49 N          79.5220   15.0790   47.5155 N.am      2 SEC2        0.0000 
     50 N          80.4790   15.0890   46.4830 N.am      6 SEP2        0.0000 
     51 CA         71.0782    6.4902   47.0841 C.3       4 GLC5        0.0000 
     52 CA         71.6750    8.3600   46.5750 C.3      12 GLL5        0.0000 
     53 CA         69.3820    5.7020   47.4890 C.3       8 GLP5        0.0000 
     54 CA         71.4045    9.1397   48.1789 C.3       4 GLC5        0.0000 
     55 CA         70.5710    9.7030   49.9340 C.3       8 GLP5        0.0000 
     56 CA         75.1568   14.3123   49.8285 C.3       4 GLC5        0.0000 
     57 CA         74.7840   14.4720   51.7460 C.3       8 GLP5        0.0000 
     58 CA         77.1427   13.0192   48.7185 C.3       4 GLC5        0.0000 
     59 CA         78.7560   11.8860   49.5260 C.3       8 GLP5        0.0000 
@<TRIPOS>BOND
@<TRIPOS>SUBSTRUCTURE
     1 ALC1        6 GROUP        1 X    ALC  0     ROOT ALC X 1
     2 SEC2        1 GROUP        1 X    SEC  0     **** SEC X 2
     3 LYC4       43 GROUP        1 X    LYC  0     **** LYC X 4
     4 GLC5       19 GROUP        1 X    GLC  0     **** GLC X 6
     5 ALP1        8 GROUP        1 Y    ALP  0     ROOT ALP Y 8
     6 SEP2        3 GROUP        1 Y    SEP  0     **** SEP Y 9
     7 LYP4       45 GROUP        1 Y    LYP  0     **** LYP Y 11
     8 GLP5       21 GROUP        1 Y    GLP  0     **** GLP Y 13
     9 ALL1        7 GROUP        1 Z    ALL  0     ROOT ALL Z 15
    10 SEL2        2 GROUP        1 Z    SEL  0     **** SEL Z 16
    11 LYL4       44 GROUP        1 Z    LYL  0     **** LYL Z 18
    12 GLL5       20 GROUP        1 Z    GLL  0     **** GLL Z 20
@<TRIPOS>SET

