#    Name: 2q3o_FMN_2_ligand
#    Modification time : Mon Mar 24 20:42:26 2014

@<TRIPOS>MOLECULE
2q3o_FMN_2_ligand
   50    52     1     0     0
SMALL
NO_CHARGES


@<TRIPOS>ATOM
      1 N1         69.9540   12.0780   45.8560 N.2       1 FMN9401     0.0000 
      2 C2         68.6300   12.1970   46.0560 C.2       1 FMN9401     0.0000 
      3 O2         68.1110   13.2540   45.8530 O.2       1 FMN9401     0.0000 
      4 N3         67.8490   11.1820   46.4800 N.am      1 FMN9401     0.0000 
      5 C4         68.3470    9.9400   46.7310 C.2       1 FMN9401     0.0000 
      6 O4         67.6450    9.0320   47.1080 O.2       1 FMN9401     0.0000 
      7 C4A        69.7890    9.7290   46.5280 C.2       1 FMN9401     0.0000 
      8 N5         70.3660    8.5590   46.7460 N.2       1 FMN9401     0.0000 
      9 C5A        71.6750    8.3600   46.5750 C.ar      1 FMN9401     0.0000 
     10 C6         72.2390    7.0740   46.8240 C.ar      1 FMN9401     0.0000 
     11 C7         73.5920    6.8400   46.6590 C.ar      1 FMN9401     0.0000 
     12 C7M        74.1200    5.4450   46.9410 C.3       1 FMN9401     0.0000 
     13 C8         74.4620    7.9040   46.2310 C.ar      1 FMN9401     0.0000 
     14 C8M        75.9450    7.6880   46.0340 C.3       1 FMN9401     0.0000 
     15 C9         73.9370    9.1730   45.9840 C.ar      1 FMN9401     0.0000 
     16 C9A        72.5190    9.4360   46.1480 C.ar      1 FMN9401     0.0000 
     17 N10        71.9280   10.7290   45.9000 N.pl3     1 FMN9401     0.0000 
     18 C10        70.5800   10.9020   46.0710 C.2       1 FMN9401     0.0000 
     19 C1'        72.7530   11.8440   45.4880 C.3       1 FMN9401     0.0000 
     20 C2'        73.4100   12.2490   46.8090 C.3       1 FMN9401     0.0000 
     21 O2'        72.3680   12.7250   47.6870 O.3       1 FMN9401     0.0000 
     22 C3'        74.4130   13.3530   46.6310 C.3       1 FMN9401     0.0000 
     23 O3'        75.4040   12.8330   45.7370 O.3       1 FMN9401     0.0000 
     24 C4'        75.0570   13.6370   47.9790 C.3       1 FMN9401     0.0000 
     25 O4'        74.0900   14.1490   48.8510 O.3       1 FMN9401     0.0000 
     26 C5'        76.0020   14.6680   47.8430 C.3       1 FMN9401     0.0000 
     27 O5'        76.6930   14.9410   49.0540 O.3       1 FMN9401     0.0000 
     28 P          77.4510   16.1580   48.4590 P.3       1 FMN9401     0.0000 
     29 O1P        76.6780   16.7990   49.5490 O.co2     1 FMN9401     0.0000 
     30 O2P        78.5400   17.1780   49.0230 O.co2     1 FMN9401     0.0000 
     31 O3P        78.5650   15.0690   48.5480 O.co2     1 FMN9401     0.0000 
     32 H          66.8175   11.3509   46.6234 H         1 FMN9401     0.0000 
     33 H          71.6098    6.3156   47.1326 H         1 FMN9401     0.0000 
     34 H          74.5389    9.9440   45.6826 H         1 FMN9401     0.0000 
     35 H          72.1727   12.6599   45.1337 H         1 FMN9401     0.0000 
     36 H          73.5132   11.5477   44.8080 H         1 FMN9401     0.0000 
     37 H          73.8895   11.3891   47.2318 H         1 FMN9401     0.0000 
     38 H          73.9437   14.2098   46.2616 H         1 FMN9401     0.0000 
     39 H          75.4938   12.7459   48.3494 H         1 FMN9401     0.0000 
     40 H          75.5041   15.6040   47.4750 H         1 FMN9401     0.0000 
     41 H          76.7409   14.4127   47.0378 H         1 FMN9401     0.0000 
     42 H          75.1070    5.3844   46.7923 H         1 FMN9401     0.0000 
     43 H          73.9484    5.1670   47.8861 H         1 FMN9401     0.0000 
     44 H          73.6921    4.7598   46.3516 H         1 FMN9401     0.0000 
     45 H          76.4063    8.5249   45.7393 H         1 FMN9401     0.0000 
     46 H          76.3919    7.3883   46.8769 H         1 FMN9401     0.0000 
     47 H          76.1300    6.9916   45.3406 H         1 FMN9401     0.0000 
     48 H          71.7415   11.9521   47.7878 H         1 FMN9401     0.0000 
     49 H          75.0909   13.0937   44.8238 H         1 FMN9401     0.0000 
     50 H          73.2166   13.8242   48.4882 H         1 FMN9401     0.0000 
@<TRIPOS>BOND
     1    2    1 1    
     2   18    1 2    
     3    3    2 2    
     4    4    2 am   
     5    5    4 am   
     6   32    4 1    
     7    6    5 2    
     8    7    5 1    
     9    8    7 2    
    10   18    7 1    
    11    9    8 1    
    12   10    9 ar   
    13   16    9 ar   
    14   11   10 ar   
    15   33   10 1    
    16   12   11 1    
    17   13   11 ar   
    18   42   12 1    
    19   43   12 1    
    20   44   12 1    
    21   14   13 1    
    22   15   13 ar   
    23   45   14 1    
    24   46   14 1    
    25   47   14 1    
    26   16   15 ar   
    27   34   15 1    
    28   17   16 1    
    29   18   17 1    
    30   19   17 1    
    31   20   19 1    
    32   35   19 1    
    33   36   19 1    
    34   21   20 1    
    35   22   20 1    
    36   37   20 1    
    37   48   21 1    
    38   23   22 1    
    39   24   22 1    
    40   38   22 1    
    41   49   23 1    
    42   25   24 1    
    43   26   24 1    
    44   39   24 1    
    45   50   25 1    
    46   27   26 1    
    47   40   26 1    
    48   41   26 1    
    49   28   27 1    
    50   29   28 ar   
    51   30   28 ar   
    52   31   28 ar   
@<TRIPOS>SUBSTRUCTURE
     1 FMN9401     1 GROUP   
@<TRIPOS>SET

