#    Name: 2a8x_FAD_2_INTS_M
#    Modification time : Mon Mar 24 18:40:22 2014

@<TRIPOS>MOLECULE
2a8x_FAD_2_INTS_M
  120     0     9     0     0
SMALL
NO_CHARGES


@<TRIPOS>ATOM
      1 N          13.2615   -1.0920   54.8430 N.am      2 SEC2        0.0000 
      2 N          13.5990   -2.1670   53.9250 N.am      8 SEL2        0.0000 
      3 N          12.9240   -0.0170   55.7610 N.am      5 SEP2        0.0000 
      4 CA         18.2380   -5.0310   55.2435 C.3       3 GLC5        0.0000 
      5 CA         16.5950   -3.8100   55.6650 C.3       9 GLL5        0.0000 
      6 CA         19.8810   -6.2520   54.8220 C.3       6 GLP5        0.0000 
      7 CA         17.6445   -3.6825   54.0470 C.3       3 GLC5        0.0000 
      8 CA         18.6940   -3.5550   52.4290 C.3       6 GLP5        0.0000 
      9 CA         16.4630   -6.1545   57.5930 C.3       3 GLC5        0.0000 
     10 CA         16.4470   -4.0980   57.1680 C.3       9 GLL5        0.0000 
     11 CA         16.4790   -8.2110   58.0180 C.3       6 GLP5        0.0000 
     12 CA         14.4660   -2.4855   57.4945 C.3       3 GLC5        0.0000 
     13 CA         16.5590   -2.8840   58.0910 C.3       9 GLL5        0.0000 
     14 CA         12.3730   -2.0870   56.8980 C.3       6 GLP5        0.0000 
     15 O          15.5510   -3.2355   60.2925 O.2       1 ALC1        0.0000 
     16 O          15.4220   -2.7050   58.8900 O.2       7 ALL1        0.0000 
     17 O          15.6800   -3.7660   61.6950 O.2       4 ALP1        0.0000 
     18 O          16.7290   -3.2000   60.9650 O.2       1 ALC1        0.0000 
     19 O          17.7780   -2.6340   60.2350 O.2       7 ALL1        0.0000 
     20 CA         17.2480   -6.4135   58.4185 C.3       3 GLC5        0.0000 
     21 CA         18.0170   -4.6160   58.8190 C.3       9 GLL5        0.0000 
     22 CA         18.0125   -4.9815   61.0110 C.3       3 GLC5        0.0000 
     23 CA         18.0080   -5.3470   63.2030 C.3       6 GLP5        0.0000 
     24 O          23.9825   -8.4075   60.8080 O.2       1 ALC1        0.0000 
     25 O          23.3130   -7.3320   59.9660 O.2       7 ALL1        0.0000 
     26 O          24.6520   -9.4830   61.6500 O.2       4 ALP1        0.0000 
     27 N          21.9645   -8.5470   62.3385 N.am      2 SEC2        0.0000 
     28 N          21.3570   -7.8900   61.0870 N.am      8 SEL2        0.0000 
     29 N          22.5720   -9.2040   63.5900 N.am      5 SEP2        0.0000 
     30 CA         20.5490   -9.3525   60.6265 C.3       3 GLC5        0.0000 
     31 CA         20.0060   -7.6880   61.2900 C.3       9 GLL5        0.0000 
     32 CA         21.0920  -11.0170   59.9630 C.3       6 GLP5        0.0000 
     33 CA         19.4320   -9.2565   62.5465 C.3       3 GLC5        0.0000 
     34 CA         18.8580  -10.8250   63.8030 C.3       6 GLP5        0.0000 
     35 CA         17.9760   -7.5420   62.1615 C.3       3 GLC5        0.0000 
     36 CA         15.9460   -7.3960   63.0330 C.3       6 GLP5        0.0000 
     37 CA         19.0070   -6.5175   62.2465 C.3       3 GLC5        0.0000 
     38 CA         20.9850   -7.5590   63.2160 C.3       3 GLC5        0.0000 
     39 CA         21.9640   -7.4300   65.1420 C.3       6 GLP5        0.0000 
     40 CA         18.1890   -7.1315   58.8630 C.3       3 GLC5        0.0000 
     41 CA         19.8990   -6.0520   59.7080 C.3       9 GLL5        0.0000 
     42 CA         18.9535   -5.6995   61.4555 C.3       3 GLC5        0.0000 
     43 N          10.4325   -0.1550   46.8900 N.am      2 SEC2        0.0000 
     44 N          10.2090    1.4940   47.0030 N.am      8 SEL2        0.0000 
     45 N          10.6560   -1.8040   46.7770 N.am      5 SEP2        0.0000 
     46 N           9.7615   -0.8435   46.2405 N.am      2 SEC2        0.0000 
     47 N           8.8670    0.1170   45.7040 N.am      8 SEL2        0.0000 
     48 O           6.8815    1.6775   45.7135 O.2       1 ALC1        0.0000 
     49 O           8.0780    2.2040   46.1290 O.2       7 ALL1        0.0000 
     50 O           5.6850    1.1510   45.2980 O.2       4 ALP1        0.0000 
     51 N           6.9320    5.5730   47.1630 N.am      2 SEC2        0.0000 
     52 N           7.2030    4.2880   46.5280 N.am      8 SEL2        0.0000 
     53 N           6.6610    6.8580   47.7980 N.am      5 SEP2        0.0000 
     54 CA         13.4570    8.9850   51.8735 C.3       3 GLC5        0.0000 
     55 CA         11.8440    8.1620   51.0630 C.3       9 GLL5        0.0000 
     56 CA         15.0700    9.8080   52.6840 C.3       6 GLP5        0.0000 
     57 CA         12.0945    9.9860   50.8810 C.3       3 GLC5        0.0000 
     58 CA         12.3450   11.8100   50.6990 C.3       6 GLP5        0.0000 
     59 CA         14.7440    7.2550   52.3095 C.3       3 GLC5        0.0000 
     60 CA         14.0500    6.0560   51.3670 C.3       9 GLL5        0.0000 
     61 CA         15.4380    8.4540   53.2520 C.3       6 GLP5        0.0000 
     62 CA         15.8800    6.3555   50.4885 C.3       3 GLC5        0.0000 
     63 CA         17.7100    6.6550   49.6100 C.3       6 GLP5        0.0000 
     64 CA         10.8085    0.3270   50.9920 C.3       3 GLC5        0.0000 
     65 CA         12.1930    0.7960   49.4010 C.3       9 GLL5        0.0000 
     66 CA          9.4240   -0.1420   52.5830 C.3       6 GLP5        0.0000 
     67 CA         10.2345    1.0670   49.7440 C.3       3 GLC5        0.0000 
     68 CA          8.2760    1.3380   50.0870 C.3       6 GLP5        0.0000 
     69 CA         10.4990   -0.5380   48.8860 C.3       3 GLC5        0.0000 
     70 CA          8.8050   -1.8720   48.3710 C.3       6 GLP5        0.0000 
     71 O          15.0110   -0.6475   48.4190 O.2       1 ALC1        0.0000 
     72 O          13.4780   -0.6790   48.0640 O.2       7 ALL1        0.0000 
     73 O          16.5440   -0.6160   48.7740 O.2       4 ALP1        0.0000 
     74 O          14.6875   -1.5115   47.8205 O.2       1 ALC1        0.0000 
     75 O          15.8970   -2.3440   47.5770 O.2       4 ALP1        0.0000 
     76 CA         11.3730   -2.4580   51.2980 C.3       3 GLC5        0.0000 
     77 CA         12.9620   -1.3860   50.2960 C.3       9 GLL5        0.0000 
     78 CA          9.7840   -3.5300   52.3000 C.3       6 GLP5        0.0000 
     79 CA         11.1930   -0.7640   51.4395 C.3       3 GLC5        0.0000 
     80 CA         11.4325   -2.0320   48.9810 C.3       3 GLC5        0.0000 
     81 CA          9.9030   -2.6780   47.6660 C.3       6 GLP5        0.0000 
     82 N          11.9275    0.0335   52.8355 N.am      2 SEC2        0.0000 
     83 N          12.8100   -0.8890   51.6480 N.am      8 SEL2        0.0000 
     84 N          11.0450    0.9560   54.0230 N.am      5 SEP2        0.0000 
     85 CA         16.0485   -2.4020   49.4115 C.3       3 GLC5        0.0000 
     86 CA         14.0140   -2.4070   50.2990 C.3       9 GLL5        0.0000 
     87 CA         18.0830   -2.3970   48.5240 C.3       6 GLP5        0.0000 
     88 CA         13.2600   -4.2935   49.3910 C.3       3 GLC5        0.0000 
     89 CA         12.5060   -6.1800   48.4830 C.3       6 GLP5        0.0000 
     90 N          12.5840   -6.3975   52.1595 N.am      2 SEC2        0.0000 
     91 N          13.7380   -5.4720   52.4630 N.am      8 SEL2        0.0000 
     92 N          11.4300   -7.3230   51.8560 N.am      5 SEP2        0.0000 
     93 N          16.3705   -4.7945   49.4625 N.am      2 SEC2        0.0000 
     94 N          15.5000   -4.9150   50.6940 N.am      8 SEL2        0.0000 
     95 N          17.2410   -4.6740   48.2310 N.am      5 SEP2        0.0000 
     96 CA         21.3503   -8.5787   59.1625 C.3       3 GLC5        0.0000 
     97 CA         21.2500   -6.1720   59.4220 C.3       9 GLL5        0.0000 
     98 CA         21.0750  -10.5010   58.5320 C.3       6 GLP5        0.0000 
     99 CA         21.1411   -6.9781   57.9307 C.3       3 GLC5        0.0000 
    100 CA         22.0010   -7.1410   60.1640 C.3       9 GLL5        0.0000 
    101 CA         21.5200   -7.6020   56.1110 C.3       6 GLP5        0.0000 
    102 CA         10.3712    5.5747   51.2067 C.3       3 GLC5        0.0000 
    103 CA         10.5590    5.2440   48.8820 C.3       9 GLL5        0.0000 
    104 CA         10.1200    5.2780   53.1930 C.3       6 GLP5        0.0000 
    105 CA          8.9808    4.9472   50.0502 C.3       3 GLC5        0.0000 
    106 CA         10.6860    6.4990   49.5590 C.3       9 GLL5        0.0000 
    107 CA          7.3390    4.0230   50.8800 C.3       6 GLP5        0.0000 
    108 CA         12.0448    6.9102   48.2383 C.3       3 GLC5        0.0000 
    109 CA         13.4670    7.9490   47.2560 C.3       6 GLP5        0.0000 
    110 CA         10.9695    6.3785   51.9530 C.3       3 GLC5        0.0000 
    111 CA         11.7940    6.7960   50.3630 C.3       9 GLL5        0.0000 
    112 CA         12.6430    7.7140   48.9845 C.3       3 GLC5        0.0000 
    113 CA         13.6113    4.6502   52.5485 C.3       3 GLC5        0.0000 
    114 CA         12.8270    5.8330   50.5230 C.3       9 GLL5        0.0000 
    115 CA         13.7840    3.3560   54.1520 C.3       6 GLP5        0.0000 
    116 CA         13.9878    6.4853   49.3630 C.3       3 GLC5        0.0000 
    117 CA         14.5370    7.0260   47.7810 C.3       6 GLP5        0.0000 
    118 CA         11.5956    5.2706   51.7930 C.3       3 GLC5        0.0000 
    119 CA         13.3488    5.7225   48.6093 C.3       3 GLC5        0.0000 
    120 CA         12.7040    4.5820   49.8410 C.3       9 GLL5        0.0000 
@<TRIPOS>BOND
@<TRIPOS>SUBSTRUCTURE
     1 ALC1       15 GROUP        1 X    ALC  0     ROOT ALC X 1
     2 SEC2        1 GROUP        1 X    SEC  0     **** SEC X 2
     3 GLC5        4 GROUP        1 X    GLC  0     **** GLC X 6
     4 ALP1       17 GROUP        1 Y    ALP  0     ROOT ALP Y 8
     5 SEP2        3 GROUP        1 Y    SEP  0     **** SEP Y 9
     6 GLP5        6 GROUP        1 Y    GLP  0     **** GLP Y 13
     7 ALL1       16 GROUP        1 Z    ALL  0     ROOT ALL Z 15
     8 SEL2        2 GROUP        1 Z    SEL  0     **** SEL Z 16
     9 GLL5        5 GROUP        1 Z    GLL  0     **** GLL Z 20
@<TRIPOS>SET

