#    Name: 2a8x_FAD_2_ligand
#    Modification time : Mon Mar 24 18:40:23 2014

@<TRIPOS>MOLECULE
2a8x_FAD_2_ligand
   84    89     1     0     0
SMALL
NO_CHARGES


@<TRIPOS>ATOM
      1 PA         15.0500   -2.4920   53.8970 P.3       1 FAD580      0.0000 
      2 O1A        13.5990   -2.1670   53.9250 O.co2     1 FAD580      0.0000 
      3 O2A        16.0460   -1.3960   53.6930 O.co2     1 FAD580      0.0000 
      4 O5B        15.3280   -3.2740   55.2450 O.3       1 FAD580      0.0000 
      5 C5B        16.5950   -3.8100   55.6650 C.3       1 FAD580      0.0000 
      6 C4B        16.4470   -4.0980   57.1680 C.3       1 FAD580      0.0000 
      7 O4B        17.5280   -4.9930   57.5340 O.3       1 FAD580      0.0000 
      8 C3B        16.5590   -2.8840   58.0910 C.3       1 FAD580      0.0000 
      9 O3B        15.4220   -2.7050   58.8900 O.3       1 FAD580      0.0000 
     10 C2B        17.8090   -3.1180   58.8950 C.3       1 FAD580      0.0000 
     11 O2B        17.7780   -2.6340   60.2350 O.3       1 FAD580      0.0000 
     12 C1B        18.0170   -4.6160   58.8190 C.3       1 FAD580      0.0000 
     13 N9A        19.3970   -5.0770   58.8840 N.pl3     1 FAD580      0.0000 
     14 C8A        20.4670   -4.6390   58.1460 C.2       1 FAD580      0.0000 
     15 N7A        21.5940   -5.2590   58.4330 N.2       1 FAD580      0.0000 
     16 C5A        21.2500   -6.1720   59.4220 C.ar      1 FAD580      0.0000 
     17 C6A        22.0010   -7.1410   60.1640 C.ar      1 FAD580      0.0000 
     18 N6A        23.3130   -7.3320   59.9660 N.pl3     1 FAD580      0.0000 
     19 N1A        21.3570   -7.8900   61.0870 N.ar      1 FAD580      0.0000 
     20 C2A        20.0060   -7.6880   61.2900 C.ar      1 FAD580      0.0000 
     21 N3A        19.2120   -6.8080   60.6500 N.ar      1 FAD580      0.0000 
     22 C4A        19.8990   -6.0520   59.7080 C.ar      1 FAD580      0.0000 
     23 N1         10.2090    1.4940   47.0030 N.2       1 FAD580      0.0000 
     24 C2          9.0690    1.2340   46.2790 C.2       1 FAD580      0.0000 
     25 O2          8.8670    0.1170   45.7040 O.2       1 FAD580      0.0000 
     26 N3          8.0780    2.2040   46.1290 N.am      1 FAD580      0.0000 
     27 C4          8.1440    3.4720   46.7100 C.2       1 FAD580      0.0000 
     28 O4          7.2030    4.2880   46.5280 O.2       1 FAD580      0.0000 
     29 C4X         9.3160    3.7420   47.4860 C.2       1 FAD580      0.0000 
     30 N5          9.4310    5.0050   48.1170 N.2       1 FAD580      0.0000 
     31 C5X        10.5590    5.2440   48.8820 C.ar      1 FAD580      0.0000 
     32 C6         10.6860    6.4990   49.5590 C.ar      1 FAD580      0.0000 
     33 C7         11.7940    6.7960   50.3630 C.ar      1 FAD580      0.0000 
     34 C7M        11.8440    8.1620   51.0630 C.3       1 FAD580      0.0000 
     35 C8         12.8270    5.8330   50.5230 C.ar      1 FAD580      0.0000 
     36 C8M        14.0500    6.0560   51.3670 C.3       1 FAD580      0.0000 
     37 C9         12.7040    4.5820   49.8410 C.ar      1 FAD580      0.0000 
     38 C9A        11.6170    4.2560   49.0340 C.ar      1 FAD580      0.0000 
     39 N10        11.4890    2.9930   48.3720 N.pl3     1 FAD580      0.0000 
     40 C10        10.3050    2.7100   47.5830 C.2       1 FAD580      0.0000 
     41 C1'        12.5300    1.9430   48.4750 C.3       1 FAD580      0.0000 
     42 C2'        12.1930    0.7960   49.4010 C.3       1 FAD580      0.0000 
     43 O2'        11.9600    1.3280   50.7200 O.3       1 FAD580      0.0000 
     44 C3'        13.3210   -0.2220   49.3980 C.3       1 FAD580      0.0000 
     45 O3'        13.4780   -0.6790   48.0640 O.3       1 FAD580      0.0000 
     46 C4'        12.9620   -1.3860   50.2960 C.3       1 FAD580      0.0000 
     47 O4'        12.8100   -0.8890   51.6480 O.3       1 FAD580      0.0000 
     48 C5'        14.0140   -2.4070   50.2990 C.3       1 FAD580      0.0000 
     49 O5'        13.5340   -3.4790   51.1070 O.3       1 FAD580      0.0000 
     50 P          14.5350   -4.4710   51.7650 P.3       1 FAD580      0.0000 
     51 O1P        13.7380   -5.4720   52.4630 O.co2     1 FAD580      0.0000 
     52 O2P        15.5000   -4.9150   50.6940 O.co2     1 FAD580      0.0000 
     53 O3P        15.3840   -3.6110   52.7990 O.3       1 FAD580      0.0000 
     54 H          17.3968   -3.1013   55.5384 H         1 FAD580      0.0000 
     55 H          16.8270   -4.7379   55.1687 H         1 FAD580      0.0000 
     56 H          15.5063   -4.5887   57.3409 H         1 FAD580      0.0000 
     57 H          16.7531   -2.0247   57.4424 H         1 FAD580      0.0000 
     58 H          18.6403   -2.6726   58.3222 H         1 FAD580      0.0000 
     59 H          17.4149   -5.0884   59.5763 H         1 FAD580      0.0000 
     60 H          20.3719   -3.9154   57.4610 H         1 FAD580      0.0000 
     61 H          23.7436   -6.7484   59.2776 H         1 FAD580      0.0000 
     62 H          23.7436   -8.0410   60.5245 H         1 FAD580      0.0000 
     63 H          19.5458   -8.3125   62.0506 H         1 FAD580      0.0000 
     64 H           7.2344    1.9680   45.5464 H         1 FAD580      0.0000 
     65 H           9.9327    7.1962   49.4431 H         1 FAD580      0.0000 
     66 H          13.4759    3.8888   49.9642 H         1 FAD580      0.0000 
     67 H          13.4879    2.3991   48.8144 H         1 FAD580      0.0000 
     68 H          12.7425    1.5275   47.4636 H         1 FAD580      0.0000 
     69 H          11.2976    0.3160   49.0216 H         1 FAD580      0.0000 
     70 H          14.2054    0.2486   49.7643 H         1 FAD580      0.0000 
     71 H          12.0341   -1.8102   49.9558 H         1 FAD580      0.0000 
     72 H          14.9310   -1.9846   50.7086 H         1 FAD580      0.0000 
     73 H          14.2045   -2.7374   49.2784 H         1 FAD580      0.0000 
     74 H          12.6745    8.2690   51.6096 H         1 FAD580      0.0000 
     75 H          11.8257    8.9164   50.4069 H         1 FAD580      0.0000 
     76 H          11.0681    8.2916   51.6804 H         1 FAD580      0.0000 
     77 H          14.6613    5.2648   51.3515 H         1 FAD580      0.0000 
     78 H          14.5807    6.8426   51.0514 H         1 FAD580      0.0000 
     79 H          13.8149    6.2260   52.3240 H         1 FAD580      0.0000 
     80 H          15.7472   -2.8092   59.8298 H         1 FAD580      0.0000 
     81 H          17.0261   -3.1283   60.6712 H         1 FAD580      0.0000 
     82 H          12.6175    0.8575   51.3085 H         1 FAD580      0.0000 
     83 H          14.3353   -1.1938   48.0661 H         1 FAD580      0.0000 
     84 H          13.2434   -1.5791   52.2276 H         1 FAD580      0.0000 
@<TRIPOS>BOND
     1    2    1 ar   
     2    3    1 ar   
     3    4    1 1    
     4   53    1 1    
     5    5    4 1    
     6    6    5 1    
     7   54    5 1    
     8   55    5 1    
     9    7    6 1    
    10    8    6 1    
    11   56    6 1    
    12   12    7 1    
    13    9    8 1    
    14   10    8 1    
    15   57    8 1    
    16   80    9 1    
    17   11   10 1    
    18   12   10 1    
    19   58   10 1    
    20   81   11 1    
    21   13   12 1    
    22   59   12 1    
    23   14   13 1    
    24   22   13 1    
    25   15   14 2    
    26   60   14 1    
    27   16   15 1    
    28   17   16 ar   
    29   22   16 ar   
    30   18   17 1    
    31   19   17 ar   
    32   61   18 1    
    33   62   18 1    
    34   20   19 ar   
    35   21   20 ar   
    36   63   20 1    
    37   22   21 ar   
    38   24   23 1    
    39   40   23 2    
    40   25   24 2    
    41   26   24 am   
    42   27   26 am   
    43   64   26 1    
    44   28   27 2    
    45   29   27 1    
    46   30   29 2    
    47   40   29 1    
    48   31   30 1    
    49   32   31 ar   
    50   38   31 ar   
    51   33   32 ar   
    52   65   32 1    
    53   34   33 1    
    54   35   33 ar   
    55   74   34 1    
    56   75   34 1    
    57   76   34 1    
    58   36   35 1    
    59   37   35 ar   
    60   77   36 1    
    61   78   36 1    
    62   79   36 1    
    63   38   37 ar   
    64   66   37 1    
    65   39   38 1    
    66   40   39 1    
    67   41   39 1    
    68   42   41 1    
    69   67   41 1    
    70   68   41 1    
    71   43   42 1    
    72   44   42 1    
    73   69   42 1    
    74   82   43 1    
    75   45   44 1    
    76   46   44 1    
    77   70   44 1    
    78   83   45 1    
    79   47   46 1    
    80   48   46 1    
    81   71   46 1    
    82   84   47 1    
    83   49   48 1    
    84   72   48 1    
    85   73   48 1    
    86   50   49 1    
    87   51   50 ar   
    88   52   50 ar   
    89   53   50 1    
@<TRIPOS>SUBSTRUCTURE
     1 FAD580      1 GROUP   
@<TRIPOS>SET

