#    Name: 2yoj_8Y6_2_INTS_M
#    Modification time : Mon Apr  7 18:28:40 2014

@<TRIPOS>MOLECULE
2yoj_8Y6_2_INTS_M
   66     0     9     0     0
SMALL
NO_CHARGES


@<TRIPOS>ATOM
      1 CA         20.7055   -0.5345    4.3365 C.3       3 GLC5        0.0000 
      2 CA         20.9590    0.4220    2.7160 C.3       9 GLL5        0.0000 
      3 CA         20.4520   -1.4910    5.9570 C.3       6 GLP5        0.0000 
      4 CA         18.0650    1.9000    5.9015 C.3       3 GLC5        0.0000 
      5 CA         18.9540    1.8940    4.0190 C.3       9 GLL5        0.0000 
      6 CA         17.1760    1.9060    7.7840 C.3       6 GLP5        0.0000 
      7 CA         23.4945    3.2240    4.8780 C.3       3 GLC5        0.0000 
      8 CA         22.7890    1.4860    4.1810 C.3       9 GLL5        0.0000 
      9 CA         24.2000    4.9620    5.5750 C.3       6 GLP5        0.0000 
     10 CA         21.7080    0.7085    5.6130 C.3       3 GLC5        0.0000 
     11 CA         20.6270   -0.0690    7.0450 C.3       6 GLP5        0.0000 
     12 CA         24.8285    1.4925    4.3660 C.3       3 GLC5        0.0000 
     13 CA         26.8680    1.4990    4.5510 C.3       6 GLP5        0.0000 
     14 O          27.0720    1.3920   -2.3820 O.2       1 ALC1        0.0000 
     15 O          26.4740    0.3290   -1.6470 O.2       7 ALL1        0.0000 
     16 O          27.6700    2.4550   -3.1170 O.2       4 ALP1        0.0000 
     17 CA         27.4425   -1.1080   -3.8390 C.3       3 GLC5        0.0000 
     18 CA         26.1420   -0.7860   -2.3890 C.3       9 GLL5        0.0000 
     19 CA         28.7430   -1.4300   -5.2890 C.3       6 GLP5        0.0000 
     20 CA         27.4420   -1.4015   -1.3010 C.3       3 GLC5        0.0000 
     21 CA         28.7420   -2.0170   -0.2130 C.3       6 GLP5        0.0000 
     22 CA         26.1780   -3.2785   -3.2625 C.3       3 GLC5        0.0000 
     23 CA         25.3670   -1.7480   -1.8450 C.3       9 GLL5        0.0000 
     24 CA         26.9890   -4.8090   -4.6800 C.3       6 GLP5        0.0000 
     25 N          26.9255    2.8085    0.5860 N.am      2 SEC2        0.0000 
     26 N          26.4190    1.5470    0.2980 N.am      8 SEL2        0.0000 
     27 N          27.4320    4.0700    0.8740 N.am      5 SEP2        0.0000 
     28 CA         21.8610    4.3060    5.6735 C.3       3 GLC5        0.0000 
     29 CA         20.6110    2.9240    5.3310 C.3       9 GLL5        0.0000 
     30 CA         23.1110    5.6880    6.0160 C.3       6 GLP5        0.0000 
     31 CA         18.8935    2.4150    6.5575 C.3       3 GLC5        0.0000 
     32 CA         22.6045   -4.8505    5.5880 C.3       3 GLC5        0.0000 
     33 CA         23.8380   -3.3230    6.2340 C.3       9 GLL5        0.0000 
     34 CA         21.3710   -6.3780    4.9420 C.3       6 GLP5        0.0000 
     35 CA         27.4040   -4.8195    4.4990 C.3       3 GLC5        0.0000 
     36 CA         25.4170   -4.5860    3.8310 C.3       9 GLL5        0.0000 
     37 CA         29.3910   -5.0530    5.1670 C.3       6 GLP5        0.0000 
     38 CA         27.8265   -4.2010    3.3905 C.3       3 GLC5        0.0000 
     39 CA         25.9520   -4.5220    2.5710 C.3       9 GLL5        0.0000 
     40 CA         29.7010   -3.8800    4.2100 C.3       6 GLP5        0.0000 
     41 CA         27.0790   -3.9915    1.2400 C.3       3 GLC5        0.0000 
     42 CA         28.2060   -3.4610   -0.0910 C.3       6 GLP5        0.0000 
     43 CA         19.0468   -0.6188    4.1792 C.3       3 GLC5        0.0000 
     44 CA         18.5860    1.0010    3.0070 C.3       9 GLL5        0.0000 
     45 CA         19.0010   -1.8790    5.6860 C.3       6 GLP5        0.0000 
     46 CA         20.9143    2.9482    6.5720 C.3       3 GLC5        0.0000 
     47 CA         20.3080    2.0510    4.3670 C.3       9 GLL5        0.0000 
     48 CA         21.3690    3.4090    8.2950 C.3       6 GLP5        0.0000 
     49 CA         26.6823   -0.6813    1.6202 C.3       3 GLC5        0.0000 
     50 CA         24.6610   -0.3670    1.6160 C.3       9 GLL5        0.0000 
     51 CA         28.4420   -0.9130    2.2910 C.3       6 GLP5        0.0000 
     52 CA         26.6288   -1.4275    2.5480 C.3       3 GLC5        0.0000 
     53 CA         24.5890   -1.2830    2.7270 C.3       9 GLL5        0.0000 
     54 CA         22.1247   -1.2508    5.1665 C.3       3 GLC5        0.0000 
     55 CA         23.9200   -0.6690    3.7760 C.3       9 GLL5        0.0000 
     56 CA         24.4663   -2.9838    7.3678 C.3       3 GLC5        0.0000 
     57 CA         24.1190   -2.6820    5.0950 C.3       9 GLL5        0.0000 
     58 CA         24.9540   -2.9650    9.0710 C.3       6 GLP5        0.0000 
     59 CA         22.2153   -2.2468    5.8107 C.3       3 GLC5        0.0000 
     60 CA         24.7882   -4.5938    6.5583 C.3       3 GLC5        0.0000 
     61 CA         25.5980   -6.1850    7.4520 C.3       6 GLP5        0.0000 
     62 CA         26.6628   -2.5682   -0.6302 C.3       3 GLC5        0.0000 
     63 CA         24.8720   -1.6030   -0.4940 C.3       9 GLL5        0.0000 
     64 CA         20.4378    1.1438    5.8654 C.3       3 GLC5        0.0000 
     65 CA         25.3592   -5.0713    5.6992 C.3       3 GLC5        0.0000 
     66 CA         24.8240   -3.3290    4.0620 C.3       9 GLL5        0.0000 
@<TRIPOS>BOND
@<TRIPOS>SUBSTRUCTURE
     1 ALC1       14 GROUP        1 X    ALC  0     ROOT ALC X 1
     2 SEC2       25 GROUP        1 X    SEC  0     **** SEC X 2
     3 GLC5        1 GROUP        1 X    GLC  0     **** GLC X 6
     4 ALP1       16 GROUP        1 Y    ALP  0     ROOT ALP Y 8
     5 SEP2       27 GROUP        1 Y    SEP  0     **** SEP Y 9
     6 GLP5        3 GROUP        1 Y    GLP  0     **** GLP Y 13
     7 ALL1       15 GROUP        1 Z    ALL  0     ROOT ALL Z 15
     8 SEL2       26 GROUP        1 Z    SEL  0     **** SEL Z 16
     9 GLL5        2 GROUP        1 Z    GLL  0     **** GLL Z 20
@<TRIPOS>SET

