#    Name: 2yoj_8Y6_2_ligand
#    Modification time : Mon Apr  7 18:28:40 2014

@<TRIPOS>MOLECULE
2yoj_8Y6_2_ligand
   49    54     1     0     0
SMALL
NO_CHARGES


@<TRIPOS>ATOM
      1 C1         21.3290    1.3180    3.7580 C.ar      1 8Y61564     0.0000 
      2 C2         20.9590    0.4220    2.7160 C.ar      1 8Y61564     0.0000 
      3 C3         19.5990    0.2820    2.3380 C.ar      1 8Y61564     0.0000 
      4 C4         18.5860    1.0010    3.0070 C.ar      1 8Y61564     0.0000 
      5 C5         18.9540    1.8940    4.0190 C.ar      1 8Y61564     0.0000 
      6 C6         20.3080    2.0510    4.3670 C.ar      1 8Y61564     0.0000 
      7 C7         25.1840   -0.5320    0.2830 C.2       1 8Y61564     0.0000 
      8 C8         24.5890   -1.2830    2.7270 C.ar      1 8Y61564     0.0000 
      9 C9         23.9200   -0.6690    3.7760 C.ar      1 8Y61564     0.0000 
     10 N1         23.5890    0.5870    3.3600 N.pl3     1 8Y61564     0.0000 
     11 C10        24.0120    0.8130    2.0600 C.2       1 8Y61564     0.0000 
     12 C11        24.6610   -0.3670    1.6160 C.2       1 8Y61564     0.0000 
     13 C12        24.1190   -2.6820    5.0950 C.ar      1 8Y61564     0.0000 
     14 C13        23.6750   -1.3520    4.9760 C.ar      1 8Y61564     0.0000 
     15 C14        23.7760    2.0380    1.2940 C.2       1 8Y61564     0.0000 
     16 C15        22.7890    1.4860    4.1810 C.3       1 8Y61564     0.0000 
     17 O1         23.5300    2.0900    0.1080 O.co2     1 8Y61564     0.0000 
     18 C16        26.0740    0.5410   -0.3360 C.2       1 8Y61564     0.0000 
     19 N2         26.4740    0.3290   -1.6470 N.am      1 8Y61564     0.0000 
     20 C17        26.1420   -0.7860   -2.3890 C.2       1 8Y61564     0.0000 
     21 C18        25.3670   -1.7480   -1.8450 C.2       1 8Y61564     0.0000 
     22 C19        24.8720   -1.6030   -0.4940 C.2       1 8Y61564     0.0000 
     23 O2         26.4190    1.5470    0.2980 O.2       1 8Y61564     0.0000 
     24 O3         23.8280    3.1570    2.0590 O.co2     1 8Y61564     0.0000 
     25 F1         20.6110    2.9240    5.3310 F         1 8Y61564     0.0000 
     26 C20        19.1840   -0.6240    1.2200 C.2       1 8Y61564     0.0000 
     27 O4         19.9980   -1.2520    0.5510 O.2       1 8Y61564     0.0000 
     28 N3         17.8240   -0.6620    0.9850 N.am      1 8Y61564     0.0000 
     29 N4         17.2220    0.8660    2.6840 N.2       1 8Y61564     0.0000 
     30 C21        16.9160    0.0520    1.7220 C.2       1 8Y61564     0.0000 
     31 F2         23.8380   -3.3230    6.2340 F         1 8Y61564     0.0000 
     32 C22        24.8240   -3.3290    4.0620 C.ar      1 8Y61564     0.0000 
     33 C23        25.0420   -2.6010    2.8830 C.ar      1 8Y61564     0.0000 
     34 O5         25.7040   -3.3030    1.9840 O.3       1 8Y61564     0.0000 
     35 C25        25.4170   -4.5860    3.8310 C.2       1 8Y61564     0.0000 
     36 C24        25.9520   -4.5220    2.5710 C.2       1 8Y61564     0.0000 
     37 H          21.6789   -0.1228    2.2386 H         1 8Y61564     0.0000 
     38 H          18.2368    2.4378    4.5110 H         1 8Y61564     0.0000 
     39 H          23.1893   -0.8999    5.7416 H         1 8Y61564     0.0000 
     40 H          22.8711    1.2377    5.2321 H         1 8Y61564     0.0000 
     41 H          23.0732    2.5196    4.0254 H         1 8Y61564     0.0000 
     42 H          27.0735    1.0734   -2.1062 H         1 8Y61564     0.0000 
     43 H          26.4933   -0.8719   -3.3595 H         1 8Y61564     0.0000 
     44 H          25.1045   -2.5999   -2.3559 H         1 8Y61564     0.0000 
     45 H          24.2581   -2.3648   -0.1376 H         1 8Y61564     0.0000 
     46 H          17.4712   -1.2715    0.1990 H         1 8Y61564     0.0000 
     47 H          15.8785   -0.0941    1.4601 H         1 8Y61564     0.0000 
     48 H          25.4302   -5.3021    4.4298 H         1 8Y61564     0.0000 
     49 H          26.4457   -5.2462    2.1430 H         1 8Y61564     0.0000 
@<TRIPOS>BOND
     1    2    1 ar   
     2    6    1 ar   
     3   16    1 1    
     4    3    2 ar   
     5   37    2 1    
     6    4    3 ar   
     7   26    3 1    
     8    5    4 ar   
     9   29    4 1    
    10    6    5 ar   
    11   38    5 1    
    12   25    6 1    
    13   12    7 1    
    14   18    7 1    
    15   22    7 2    
    16    9    8 ar   
    17   12    8 1    
    18   33    8 ar   
    19   10    9 1    
    20   14    9 ar   
    21   11   10 1    
    22   16   10 1    
    23   12   11 2    
    24   15   11 1    
    25   14   13 ar   
    26   31   13 1    
    27   32   13 ar   
    28   39   14 1    
    29   17   15 ar   
    30   24   15 ar   
    31   40   16 1    
    32   41   16 1    
    33   19   18 am   
    34   23   18 2    
    35   20   19 1    
    36   42   19 1    
    37   21   20 2    
    38   43   20 1    
    39   22   21 1    
    40   44   21 1    
    41   45   22 1    
    42   27   26 2    
    43   28   26 am   
    44   30   28 1    
    45   46   28 1    
    46   30   29 2    
    47   47   30 1    
    48   33   32 ar   
    49   35   32 1    
    50   34   33 1    
    51   36   34 1    
    52   36   35 2    
    53   48   35 1    
    54   49   36 1    
@<TRIPOS>SUBSTRUCTURE
     1 8Y61564     1 GROUP   
@<TRIPOS>SET

