#    Name: 4MZU_18_CAVITY_N1_6.mol2
#    Modification time : Tue Mar 11 15:47:21 2014

@<TRIPOS>MOLECULE
4MZU_18_CAVITY_N1_6.mol2
   67     0     5     0     0
SMALL
NO_CHARGES


@<TRIPOS>ATOM
      1 CA         36.1913   -2.4205  -22.3055 C.3       4 GLY6        0.0000 
      2 O          37.1407   -3.3773  -21.6473 O.2       2 ALA2        0.0000 
      3 N          41.5614   -0.6310  -27.4494 N.2       2 ALA2        0.0000 
      4 O          42.5108   -1.5878  -26.7912 O.2       2 ALA2        0.0000 
      5 CA         38.5340    0.7225  -27.9521 C.3       4 GLY6        0.0000 
      6 CZ         39.4834   -0.2342  -27.2938 C.ar      3 PHE5        0.0000 
      7 CZ         40.4327   -1.1910  -26.6355 C.ar      3 PHE5        0.0000 
      8 CZ         38.3547   -0.7942  -26.4799 C.ar      3 PHE5        0.0000 
      9 DU         34.8394    1.5139  -21.4734 H         5 CUB7        0.0000 
     10 DU         35.7887    0.5572  -20.8151 H         5 CUB7        0.0000 
     11 CZ         36.7381   -0.3996  -20.1568 C.ar      3 PHE5        0.0000 
     12 CZ         35.6094   -0.9596  -19.3429 C.ar      3 PHE5        0.0000 
     13 N          40.8854    1.3362  -27.0333 N.2       2 ALA2        0.0000 
     14 N          41.8348    0.3794  -26.3751 N.2       2 ALA2        0.0000 
     15 N          42.7842   -0.5773  -25.7168 N.2       2 ALA2        0.0000 
     16 O          38.8074    1.7330  -26.8777 O.2       2 ALA2        0.0000 
     17 DU         39.7567    0.7762  -26.2194 H         5 CUB7        0.0000 
     18 CZ         40.7061   -0.1805  -25.5612 C.ar      3 PHE5        0.0000 
     19 CZ         41.6555   -1.1373  -24.9029 C.ar      3 PHE5        0.0000 
     20 O          37.6787    1.1730  -26.0638 O.2       2 ALA2        0.0000 
     21 CA         38.6280    0.2162  -25.4055 C.3       4 GLY6        0.0000 
     22 CZ         39.5774   -0.7405  -24.7473 C.ar      3 PHE5        0.0000 
     23 CZ         40.5268   -1.6973  -24.0890 C.ar      3 PHE5        0.0000 
     24 CA         38.4487   -1.3005  -23.9333 C.3       4 GLY6        0.0000 
     25 CZ         39.3981   -2.2573  -23.2751 C.ar      3 PHE5        0.0000 
     26 CA         37.3200   -1.8605  -23.1194 C.3       4 GLY6        0.0000 
     27 O          38.2694   -2.8173  -22.4612 O.2       2 ALA2        0.0000 
     28 O          38.4048    4.7106  -25.3873 O.2       2 ALA2        0.0000 
     29 O          39.3542    3.7539  -24.7290 O.2       2 ALA2        0.0000 
     30 O          40.3035    2.7971  -24.0707 O.2       2 ALA2        0.0000 
     31 DU         38.2255    3.1939  -23.9151 H         5 CUB7        0.0000 
     32 DU         39.1748    2.2371  -23.2568 H         5 CUB7        0.0000 
     33 OG         40.1242    1.2804  -22.5986 O.2       1 SER1        0.0000 
     34 DU         37.0968    2.6339  -23.1012 H         5 CUB7        0.0000 
     35 OG         38.0461    1.6772  -22.4429 O.2       1 SER1        0.0000 
     36 DU         35.9681    2.0739  -22.2873 H         5 CUB7        0.0000 
     37 DU         36.9174    1.1172  -21.6290 H         5 CUB7        0.0000 
     38 OG         37.8668    0.1604  -20.9707 O.2       1 SER1        0.0000 
     39 O          39.9010    5.7748  -22.5803 O.2       2 ALA2        0.0000 
     40 O          38.6782    5.7211  -24.3129 O.2       2 ALA2        0.0000 
     41 N          39.6276    4.7643  -23.6547 N.2       2 ALA2        0.0000 
     42 O          40.5769    3.8076  -22.9964 O.2       2 ALA2        0.0000 
     43 O          38.4989    4.2044  -22.8407 O.2       2 ALA2        0.0000 
     44 O          39.4482    3.2476  -22.1825 O.2       2 ALA2        0.0000 
     45 O          38.3195    2.6876  -21.3686 O.2       2 ALA2        0.0000 
     46 DU         37.1908    2.1276  -20.5546 H         5 CUB7        0.0000 
     47 OG         38.1402    1.1709  -19.8964 O.2       1 SER1        0.0000 
     48 OG         37.0115    0.6109  -19.0825 O.2       1 SER1        0.0000 
     49 O          39.0808    2.7434  -25.8034 O.2       2 ALA2        0.0000 
     50 CA         40.0301    1.7867  -25.1451 C.3       4 GLY6        0.0000 
     51 N          40.9795    0.8299  -24.4868 N.2       2 ALA2        0.0000 
     52 N          41.9289   -0.1268  -23.8285 N.2       2 ALA2        0.0000 
     53 O          37.9521    2.1834  -24.9894 O.2       2 ALA2        0.0000 
     54 DU         38.9014    1.2267  -24.3312 H         5 CUB7        0.0000 
     55 OG         39.8508    0.2699  -23.6729 O.2       1 SER1        0.0000 
     56 OG         40.8002   -0.6868  -23.0146 O.2       1 SER1        0.0000 
     57 O          36.8234    1.6234  -24.1755 O.2       2 ALA2        0.0000 
     58 CA         37.7727    0.6667  -23.5173 C.3       4 GLY6        0.0000 
     59 OG         38.7221   -0.2901  -22.8590 O.2       1 SER1        0.0000 
     60 CA         35.6947    1.0635  -23.3616 C.3       4 GLY6        0.0000 
     61 CA         36.6440    0.1067  -22.7034 C.3       4 GLY6        0.0000 
     62 CA         37.5934   -0.8501  -22.0451 C.3       4 GLY6        0.0000 
     63 OG         38.5428   -1.8068  -21.3868 O.2       1 SER1        0.0000 
     64 CA         35.5153   -0.4533  -21.8894 C.3       4 GLY6        0.0000 
     65 CA         36.4647   -1.4100  -21.2312 C.3       4 GLY6        0.0000 
     66 CZ         37.4141   -2.3668  -20.5729 C.ar      3 PHE5        0.0000 
     67 CA         35.3360   -1.9700  -20.4173 C.3       4 GLY6        0.0000 
@<TRIPOS>BOND
@<TRIPOS>SUBSTRUCTURE
     1 SER1       33 GROUP   
     2 ALA2        2 GROUP   
     3 PHE5        6 GROUP   
     4 GLY6        1 GROUP   
     5 CUB7        9 GROUP   
@<TRIPOS>SET

