#    Name: 4mzu_TYD_18_INTS_M
#    Modification time : Tue Mar 25 12:30:09 2014

@<TRIPOS>MOLECULE
4mzu_TYD_18_INTS_M
   28     0     9     0     0
SMALL
NO_CHARGES


@<TRIPOS>ATOM
      1 NZ         36.7480    4.1390  -27.0475 N.4       2 LYC4        0.0000 
      2 NZ         38.0310    4.7980  -26.2590 N.4       8 LYL4        0.0000 
      3 NZ         35.4650    3.4800  -27.8360 N.4       5 LYP4        0.0000 
      4 N          40.4900    3.7740  -26.4900 N.am      1 SEC2        0.0000 
      5 N          39.7150    3.1640  -25.3310 N.am      7 SEL2        0.0000 
      6 N          41.2650    4.3840  -27.6490 N.am      4 SEP2        0.0000 
      7 N          40.6260    4.9890  -26.1725 N.am      1 SEC2        0.0000 
      8 N          39.9870    5.5940  -24.6960 N.am      7 SEL2        0.0000 
      9 CA         37.0860    0.1560  -18.0435 C.3       3 GLC5        0.0000 
     10 CA         35.9030    1.1190  -19.2370 C.3       9 GLL5        0.0000 
     11 CA         38.2690   -0.8070  -16.8500 C.3       6 GLP5        0.0000 
     12 N          38.8155   -4.9720  -20.6590 N.am      1 SEC2        0.0000 
     13 N          37.3700   -4.6610  -20.4650 N.am      7 SEL2        0.0000 
     14 N          40.2610   -5.2830  -20.8530 N.am      4 SEP2        0.0000 
     15 CA         35.5790   -2.6690  -22.4115 C.3       3 GLC5        0.0000 
     16 CA         37.2790   -2.4600  -21.1890 C.3       9 GLL5        0.0000 
     17 CA         33.8790   -2.8780  -23.6340 C.3       6 GLP5        0.0000 
     18 CA         36.9800   -2.0125  -23.5300 C.3       3 GLC5        0.0000 
     19 CA         38.4120   -2.6310  -22.1580 C.3       9 GLL5        0.0000 
     20 CA         35.5480   -1.3940  -24.9020 C.3       6 GLP5        0.0000 
     21 CA         39.2240   -3.9430  -23.2555 C.3       3 GLC5        0.0000 
     22 CA         40.0360   -5.2550  -24.3530 C.3       6 GLP5        0.0000 
     23 CA         36.1015   -1.3100  -22.9890 C.3       3 GLC5        0.0000 
     24 CA         36.6550   -1.2260  -21.0760 C.3       9 GLL5        0.0000 
     25 CA         37.7770   -1.3165  -19.5045 C.3       3 GLC5        0.0000 
     26 CA         38.8990   -1.4070  -17.9330 C.3       6 GLP5        0.0000 
     27 CA         38.4172   -2.6653  -19.8317 C.3       3 GLC5        0.0000 
     28 CA         38.9890   -2.7850  -17.9900 C.3       6 GLP5        0.0000 
@<TRIPOS>BOND
@<TRIPOS>SUBSTRUCTURE
     1 SEC2        4 GROUP        1 X    SEC  0     ROOT SEC X 2
     2 LYC4        1 GROUP        1 X    LYC  0     **** LYC X 4
     3 GLC5        9 GROUP        1 X    GLC  0     **** GLC X 6
     4 SEP2        6 GROUP        1 Y    SEP  0     ROOT SEP Y 9
     5 LYP4        3 GROUP        1 Y    LYP  0     **** LYP Y 11
     6 GLP5       11 GROUP        1 Y    GLP  0     **** GLP Y 13
     7 SEL2        5 GROUP        1 Z    SEL  0     ROOT SEL Z 16
     8 LYL4        2 GROUP        1 Z    LYL  0     **** LYL Z 18
     9 GLL5       10 GROUP        1 Z    GLL  0     **** GLL Z 20
@<TRIPOS>SET

