#    Name: 4mzu_TYD_18_ligand
#    Modification time : Tue Mar 25 12:30:09 2014

@<TRIPOS>MOLECULE
4mzu_TYD_18_ligand
   38    39     1     0     0
SMALL
NO_CHARGES


@<TRIPOS>ATOM
      1 PA         38.1230    3.9330  -22.4270 P.3       1 TYD402      0.0000 
      2 O1A        37.5130    5.1240  -21.7130 O.co2     1 TYD402      0.0000 
      3 O2A        39.5050    3.4670  -22.0200 O.co2     1 TYD402      0.0000 
      4 O3A        37.9290    4.3140  -23.9940 O.3       1 TYD402      0.0000 
      5 PB         39.0330    4.5050  -25.1640 P.3       1 TYD402      0.0000 
      6 O1B        38.0310    4.7980  -26.2590 O.co2     1 TYD402      0.0000 
      7 O2B        39.7150    3.1640  -25.3310 O.co2     1 TYD402      0.0000 
      8 O3B        39.9870    5.5940  -24.6960 O.co2     1 TYD402      0.0000 
      9 O5'        37.1520    2.6330  -22.3270 O.3       1 TYD402      0.0000 
     10 C5'        35.7420    2.7870  -22.4440 C.3       1 TYD402      0.0000 
     11 C4'        35.0920    2.3380  -21.1560 C.3       1 TYD402      0.0000 
     12 O4'        34.7890    0.9630  -21.3120 O.3       1 TYD402      0.0000 
     13 C3'        36.1070    2.3990  -20.0240 C.3       1 TYD402      0.0000 
     14 O3'        35.9070    3.5410  -19.1920 O.3       1 TYD402      0.0000 
     15 C2'        35.9030    1.1190  -19.2370 C.3       1 TYD402      0.0000 
     16 C1'        34.9740    0.2610  -20.0930 C.3       1 TYD402      0.0000 
     17 N1         35.6260   -1.0540  -20.2330 N.am      1 TYD402      0.0000 
     18 C2         35.2140   -2.1020  -19.4860 C.2       1 TYD402      0.0000 
     19 O2         34.2280   -2.0230  -18.7210 O.2       1 TYD402      0.0000 
     20 N3         35.8100   -3.3230  -19.5840 N.am      1 TYD402      0.0000 
     21 C4         36.8400   -3.5310  -20.4240 C.2       1 TYD402      0.0000 
     22 O4         37.3700   -4.6610  -20.4650 O.2       1 TYD402      0.0000 
     23 C5         37.2790   -2.4600  -21.1890 C.2       1 TYD402      0.0000 
     24 C5M        38.4120   -2.6310  -22.1580 C.3       1 TYD402      0.0000 
     25 C6         36.6550   -1.2260  -21.0760 C.2       1 TYD402      0.0000 
     26 H          35.3346    2.1823  -23.2609 H         1 TYD402      0.0000 
     27 H          35.4617    3.8303  -22.6223 H         1 TYD402      0.0000 
     28 H          34.2634    2.9180  -20.9317 H         1 TYD402      0.0000 
     29 H          37.0882    2.3672  -20.4562 H         1 TYD402      0.0000 
     30 H          35.4309    1.3354  -18.3040 H         1 TYD402      0.0000 
     31 H          36.8365    0.6165  -19.1088 H         1 TYD402      0.0000 
     32 H          34.0556    0.1627  -19.5404 H         1 TYD402      0.0000 
     33 H          35.4538   -4.1110  -18.9902 H         1 TYD402      0.0000 
     34 H          37.0045   -0.4376  -21.6608 H         1 TYD402      0.0000 
     35 H          39.2509   -2.9254  -21.7003 H         1 TYD402      0.0000 
     36 H          38.2034   -3.3158  -22.8563 H         1 TYD402      0.0000 
     37 H          38.6229   -1.7789  -22.6369 H         1 TYD402      0.0000 
     38 H          36.2795    4.3090  -19.7129 H         1 TYD402      0.0000 
@<TRIPOS>BOND
     1    2    1 ar   
     2    3    1 ar   
     3    4    1 1    
     4    9    1 1    
     5    5    4 1    
     6    6    5 ar   
     7    7    5 ar   
     8    8    5 ar   
     9   10    9 1    
    10   11   10 1    
    11   26   10 1    
    12   27   10 1    
    13   12   11 1    
    14   13   11 1    
    15   28   11 1    
    16   16   12 1    
    17   14   13 1    
    18   15   13 1    
    19   29   13 1    
    20   38   14 1    
    21   16   15 1    
    22   30   15 1    
    23   31   15 1    
    24   17   16 1    
    25   32   16 1    
    26   18   17 1    
    27   25   17 1    
    28   19   18 2    
    29   20   18 1    
    30   21   20 1    
    31   33   20 1    
    32   22   21 2    
    33   23   21 1    
    34   24   23 1    
    35   25   23 2    
    36   35   24 1    
    37   36   24 1    
    38   37   24 1    
    39   34   25 1    
@<TRIPOS>SUBSTRUCTURE
     1 TYD402      1 GROUP   
@<TRIPOS>SET

