#    Name: 2xeg_CI9_1_INTS_M
#    Modification time : Tue Mar 25 05:56:02 2014

@<TRIPOS>MOLECULE
2xeg_CI9_1_INTS_M
  119     0    15     0     0
SMALL
NO_CHARGES


@<TRIPOS>ATOM
      1 NZ         13.1040   49.5195   39.8665 N.4       3 LYC4        0.0000 
      2 NZ         13.7020   48.5580   40.5760 N.4      13 LYL4        0.0000 
      3 NZ         12.5060   50.4810   39.1570 N.4       8 LYP4        0.0000 
      4 N          13.1040   49.5195   39.8665 N.am      2 SEC2        0.0000 
      5 N          13.7020   48.5580   40.5760 N.am     12 SEL2        0.0000 
      6 N          12.5060   50.4810   39.1570 N.am      7 SEP2        0.0000 
      7 NZ         12.7105   48.6130   39.3720 N.4       3 LYC4        0.0000 
      8 NZ         12.9150   46.7450   39.5870 N.4      13 LYL4        0.0000 
      9 N          12.8435   45.5540   38.7745 N.am      2 SEC2        0.0000 
     10 N          12.9150   46.7450   39.5870 N.am     12 SEL2        0.0000 
     11 N          12.7720   44.3630   37.9620 N.am      7 SEP2        0.0000 
     12 CA         15.8085   46.9295   39.0270 C.3       5 GLC5        0.0000 
     13 CA         14.9080   46.5360   41.0030 C.3      15 GLL5        0.0000 
     14 CA         16.7090   47.3230   37.0510 C.3      10 GLP5        0.0000 
     15 CA         13.4605   47.0410   42.4840 C.3       5 GLC5        0.0000 
     16 CA         12.0130   47.5460   43.9650 C.3      10 GLP5        0.0000 
     17 CA         15.5425   48.0320   41.8210 C.3       5 GLC5        0.0000 
     18 CA         16.1770   49.5280   42.6390 C.3      10 GLP5        0.0000 
     19 CA         13.5020   43.1500   41.3760 C.3       5 GLC5        0.0000 
     20 CA         14.6520   45.0170   41.0800 C.3      15 GLL5        0.0000 
     21 CA         12.3520   41.2830   41.6720 C.3      10 GLP5        0.0000 
     22 NZ         18.1400   43.1905   38.4335 N.4       3 LYC4        0.0000 
     23 NZ         16.8180   43.6460   39.3350 N.4      13 LYL4        0.0000 
     24 NZ         18.7290   43.1280   36.4850 N.4       8 LYP4        0.0000 
     25 N          17.1875   43.7085   38.0095 N.am      2 SEC2        0.0000 
     26 N          16.8180   43.6460   39.3350 N.am     12 SEL2        0.0000 
     27 N          17.5570   43.7710   36.6840 N.am      7 SEP2        0.0000 
     28 N          18.1400   43.1905   38.4335 N.am      2 SEC2        0.0000 
     29 N          19.4620   42.7350   37.5320 N.am      7 SEP2        0.0000 
     30 N          18.8820   45.7140   39.7110 N.am      2 SEC2        0.0000 
     31 N          17.8070   45.3580   40.3270 N.am     12 SEL2        0.0000 
     32 N          19.9570   46.0700   39.0950 N.am      7 SEP2        0.0000 
     33 O          15.5100   44.9300   43.7265 O.2       1 ALC1        0.0000 
     34 O          16.5940   44.8950   42.6820 O.2      11 ALL1        0.0000 
     35 O          14.4260   44.9650   44.7710 O.2       6 ALP1        0.0000 
     36 O          16.5420   46.2295   43.3420 O.2       1 ALC1        0.0000 
     37 O          16.4900   47.5640   44.0020 O.2       6 ALP1        0.0000 
     38 Zn         17.8645   42.2885   42.9190 Zn        4 ZIC7        0.0000 
     39 Zn         18.2660   43.4480   42.5360 Zn       14 ZIL7        0.0000 
     40 Zn         17.4630   41.1290   43.3020 Zn        9 ZIP7        0.0000 
     41 N          19.1615   43.3490   41.5190 N.am      2 SEC2        0.0000 
     42 N          18.2660   43.4480   42.5360 N.am     12 SEL2        0.0000 
     43 N          20.0570   43.2500   40.5020 N.am      7 SEP2        0.0000 
     44 O          17.5080   46.4200   43.9460 O.2       1 ALC1        0.0000 
     45 O          18.5260   45.2760   43.8900 O.2      11 ALL1        0.0000 
     46 NZ         19.5865   47.3675   47.1420 N.4       3 LYC4        0.0000 
     47 NZ         19.5420   46.7030   45.8650 N.4      13 LYL4        0.0000 
     48 NZ         19.8370   49.3240   48.7340 N.4       8 LYP4        0.0000 
     49 N          18.3040   46.3530   46.5040 N.am      2 SEC2        0.0000 
     50 N          19.5420   46.7030   45.8650 N.am     12 SEL2        0.0000 
     51 N          17.0660   46.0030   47.1430 N.am      7 SEP2        0.0000 
     52 N          19.5865   47.3675   47.1420 N.am      2 SEC2        0.0000 
     53 N          19.6310   48.0320   48.4190 N.am      7 SEP2        0.0000 
     54 NZ         21.9540   45.2310   47.4055 N.4       3 LYC4        0.0000 
     55 NZ         20.7180   44.9100   46.5530 N.4      13 LYL4        0.0000 
     56 NZ         22.5050   45.4590   49.3880 N.4       8 LYP4        0.0000 
     57 N          21.9540   45.2310   47.4055 N.am      2 SEC2        0.0000 
     58 N          20.7180   44.9100   46.5530 N.am     12 SEL2        0.0000 
     59 N          23.1900   45.5520   48.2580 N.am      7 SEP2        0.0000 
     60 N          20.9450   45.0825   47.9470 N.am      2 SEC2        0.0000 
     61 N          21.1720   45.2550   49.3410 N.am      7 SEP2        0.0000 
     62 CA         20.1165   46.7940   41.9000 C.3       5 GLC5        0.0000 
     63 CA         20.6780   45.5800   43.3050 C.3      15 GLL5        0.0000 
     64 CA         19.5550   48.0080   40.4950 C.3      10 GLP5        0.0000 
     65 CA         21.9100   44.2110   41.4475 C.3       5 GLC5        0.0000 
     66 CA         22.7260   46.0410   42.0950 C.3      15 GLL5        0.0000 
     67 CA         21.0940   42.3810   40.8000 C.3      10 GLP5        0.0000 
     68 CA         21.5235   46.6865   40.8095 C.3       5 GLC5        0.0000 
     69 CA         20.3210   47.3320   39.5240 C.3      10 GLP5        0.0000 
     70 CA         25.9950   45.0060   42.4575 C.3       5 GLC5        0.0000 
     71 CA         24.1740   45.7140   41.8460 C.3      15 GLL5        0.0000 
     72 CA         27.8160   44.2980   43.0690 C.3      10 GLP5        0.0000 
     73 CA         26.6595   49.7705   37.3505 C.3       5 GLC5        0.0000 
     74 CA         25.6370   49.3390   38.9910 C.3      15 GLL5        0.0000 
     75 CA         27.6820   50.2020   35.7100 C.3      10 GLP5        0.0000 
     76 CA         24.7785   50.1315   37.1870 C.3       5 GLC5        0.0000 
     77 CA         23.9200   50.9240   35.3830 C.3      10 GLP5        0.0000 
     78 CA         23.7460   49.2825   39.2060 C.3       5 GLC5        0.0000 
     79 CA         21.8550   49.2260   39.4210 C.3      10 GLP5        0.0000 
     80 CA         24.4460   51.2005   37.5155 C.3       5 GLC5        0.0000 
     81 CA         24.9720   51.4770   39.6480 C.3      15 GLL5        0.0000 
     82 CA         24.2565   54.4635   40.4040 C.3       5 GLC5        0.0000 
     83 CA         25.4190   52.6820   40.4430 C.3      15 GLL5        0.0000 
     84 CA         23.0940   56.2450   40.3650 C.3      10 GLP5        0.0000 
     85 CA         23.1890   52.3945   41.6995 C.3       5 GLC5        0.0000 
     86 CA         24.8250   53.4820   42.5480 C.3      15 GLL5        0.0000 
     87 CA         21.5530   51.3070   40.8510 C.3      10 GLP5        0.0000 
     88 CA         23.5020   54.5875   41.9965 C.3       5 GLC5        0.0000 
     89 CA         22.1790   55.6930   41.4450 C.3      10 GLP5        0.0000 
     90 CA         29.1785   53.4710   44.5575 C.3       5 GLC5        0.0000 
     91 CA         27.8120   55.0360   44.0710 C.3      15 GLL5        0.0000 
     92 CA         30.5450   51.9060   45.0440 C.3      10 GLP5        0.0000 
     93 CA         26.6400   55.8600   47.5335 C.3       5 GLC5        0.0000 
     94 CA         27.3410   55.1320   45.5460 C.3      15 GLL5        0.0000 
     95 CA         25.9390   56.5880   49.5210 C.3      10 GLP5        0.0000 
     96 CA         28.3980   53.1670   45.5790 C.3       5 GLC5        0.0000 
     97 CA         29.4550   51.2020   45.6120 C.3      10 GLP5        0.0000 
     98 CA         26.7025   55.1055   48.4480 C.3       5 GLC5        0.0000 
     99 CA         27.4660   53.6230   47.3750 C.3      15 GLL5        0.0000 
    100 CA         27.7980   51.2435   48.9275 C.3       5 GLC5        0.0000 
    101 CA         28.5610   52.8010   48.0570 C.3      15 GLL5        0.0000 
    102 CA         27.0350   49.6860   49.7980 C.3      10 GLP5        0.0000 
    103 O          28.4675   53.8810   49.7330 O.2       1 ALC1        0.0000 
    104 O          29.6050   53.6830   48.6110 O.2      11 ALL1        0.0000 
    105 O          27.3300   54.0790   50.8550 O.2       6 ALP1        0.0000 
    106 CA         21.2271   43.5286   42.8331 C.3       5 GLC5        0.0000 
    107 CA         21.2310   41.7820   42.0690 C.3      10 GLP5        0.0000 
    108 CA         23.3743   51.6932   40.4483 C.3       5 GLC5        0.0000 
    109 CA         28.7342   52.2070   46.6640 C.3       5 GLC5        0.0000 
    110 CA         31.2845   55.2020   49.1440 C.3       5 GLC5        0.0000 
    111 CA         30.9170   53.7030   48.3080 C.3      15 GLL5        0.0000 
    112 CA         31.4350   56.2540   50.4750 C.3      10 GLP5        0.0000 
    113 CA         32.3040   55.2747   48.9040 C.3       5 GLC5        0.0000 
    114 CA         32.7060   54.6920   46.9960 C.3      15 GLL5        0.0000 
    115 CA         31.9827   54.6102   49.6557 C.3       5 GLC5        0.0000 
    116 CA         33.2050   53.0240   48.6670 C.3      15 GLL5        0.0000 
    117 CA         33.6556   51.8676   47.6726 C.3       5 GLC5        0.0000 
    118 CA         31.8560   52.9090   49.0060 C.3      15 GLL5        0.0000 
    119 CA         34.6720   50.5500   46.7580 C.3      10 GLP5        0.0000 
@<TRIPOS>BOND
@<TRIPOS>SUBSTRUCTURE
     1 ALC1       33 GROUP        1 X    ALC  0     ROOT ALC X 1
     2 SEC2        4 GROUP        1 X    SEC  0     **** SEC X 2
     3 LYC4        1 GROUP        1 X    LYC  0     **** LYC X 4
     4 ZIC7       38 GROUP        1 X    ZIC  0     **** ZIC X 5
     5 GLC5       12 GROUP        1 X    GLC  0     **** GLC X 6
     6 ALP1       35 GROUP        1 Y    ALP  0     ROOT ALP Y 8
     7 SEP2        6 GROUP        1 Y    SEP  0     **** SEP Y 9
     8 LYP4        3 GROUP        1 Y    LYP  0     **** LYP Y 11
     9 ZIP7       40 GROUP        1 Y    ZIP  0     **** ZIP Y 12
    10 GLP5       14 GROUP        1 Y    GLP  0     **** GLP Y 13
    11 ALL1       34 GROUP        1 Z    ALL  0     ROOT ALL Z 15
    12 SEL2        5 GROUP        1 Z    SEL  0     **** SEL Z 16
    13 LYL4        2 GROUP        1 Z    LYL  0     **** LYL Z 18
    14 ZIL7       39 GROUP        1 Z    ZIL  0     **** ZIL Z 19
    15 GLL5       13 GROUP        1 Z    GLL  0     **** GLL Z 20
@<TRIPOS>SET

