#    Name: 2xeg_CI9_1_ligand
#    Modification time : Tue Mar 25 05:56:03 2014

@<TRIPOS>MOLECULE
2xeg_CI9_1_ligand
   91    92     1     0     0
SMALL
NO_CHARGES


@<TRIPOS>ATOM
      1 OAA        13.7020   48.5580   40.5760 O.co2     1 CI91768     0.0000 
      2 CBN        13.7120   47.3160   40.3690 C.2       1 CI91768     0.0000 
      3 OAG        12.9150   46.7450   39.5870 O.co2     1 CI91768     0.0000 
      4 CAZ        14.9080   46.5360   41.0030 C.3       1 CI91768     0.0000 
      5 CBB        14.6520   45.0170   41.0800 C.3       1 CI91768     0.0000 
      6 CBW        15.9460   44.2760   41.5020 C.3       1 CI91768     0.0000 
      7 CBP        16.9300   44.4460   40.3110 C.2       1 CI91768     0.0000 
      8 OAI        16.8180   43.6460   39.3350 O.co2     1 CI91768     0.0000 
      9 OAC        17.8070   45.3580   40.3270 O.co2     1 CI91768     0.0000 
     10 NBI        16.5940   44.8950   42.6820 N.am      1 CI91768     0.0000 
     11 CBQ        17.8440   44.5010   43.0280 C.2       1 CI91768     0.0000 
     12 OAD        18.2660   43.4480   42.5360 O.2       1 CI91768     0.0000 
     13 N          18.5260   45.2760   43.8900 N.am      1 CI91768     0.0000 
     14 CA         19.8490   44.8910   44.3680 C.3       1 CI91768     0.0000 
     15 C          20.1030   45.5920   45.6950 C.2       1 CI91768     0.0000 
     16 OXT        19.5420   46.7030   45.8650 O.co2     1 CI91768     0.0000 
     17 O          20.7180   44.9100   46.5530 O.co2     1 CI91768     0.0000 
     18 CB         20.6780   45.5800   43.3050 C.3       1 CI91768     0.0000 
     19 CAP        22.1830   45.3150   43.3580 C.3       1 CI91768     0.0000 
     20 CAQ        22.7260   46.0410   42.0950 C.3       1 CI91768     0.0000 
     21 CBC        24.1740   45.7140   41.8460 C.3       1 CI91768     0.0000 
     22 NBX        24.6550   46.5480   40.7160 N.pl3     1 CI91768     0.0000 
     23 CAO        24.8670   47.8620   40.7470 C.2       1 CI91768     0.0000 
     24 NBF        24.9060   46.0780   39.5870 N.2       1 CI91768     0.0000 
     25 NBE        25.2900   46.9640   38.8100 N.2       1 CI91768     0.0000 
     26 CBR        25.2820   48.1010   39.5020 C.2       1 CI91768     0.0000 
     27 CBD        25.6370   49.3390   38.9910 C.3       1 CI91768     0.0000 
     28 OBM        25.8740   50.4140   39.9140 O.3       1 CI91768     0.0000 
     29 CAY        24.9720   51.4770   39.6480 C.3       1 CI91768     0.0000 
     30 CAX        25.4190   52.6820   40.4430 C.3       1 CI91768     0.0000 
     31 OBL        25.3230   52.3510   41.8400 O.3       1 CI91768     0.0000 
     32 CAW        24.8250   53.4820   42.5480 C.3       1 CI91768     0.0000 
     33 CAV        25.8450   53.8020   43.5980 C.3       1 CI91768     0.0000 
     34 OBK        26.6950   54.8880   43.1500 O.3       1 CI91768     0.0000 
     35 CAU        27.8120   55.0360   44.0710 C.3       1 CI91768     0.0000 
     36 CAT        27.3410   55.1320   45.5460 C.3       1 CI91768     0.0000 
     37 OBJ        28.2090   54.4100   46.4380 O.3       1 CI91768     0.0000 
     38 CAS        27.4660   53.6230   47.3750 C.3       1 CI91768     0.0000 
     39 CAR        28.5610   52.8010   48.0570 C.3       1 CI91768     0.0000 
     40 NBG        29.6050   53.6830   48.6110 N.pl3     1 CI91768     0.0000 
     41 CBT        30.9170   53.7030   48.3080 C.ar      1 CI91768     0.0000 
     42 CAM        31.3510   54.5970   47.3180 C.ar      1 CI91768     0.0000 
     43 CAL        32.7060   54.6920   46.9960 C.ar      1 CI91768     0.0000 
     44 CBS        33.6400   53.8990   47.6700 C.ar      1 CI91768     0.0000 
     45 NBY        34.9550   53.9560   47.3790 N.pl3     1 CI91768     0.0000 
     46 OAJ        35.4390   53.7840   46.0280 O.co2     1 CI91768     0.0000 
     47 OAE        35.9210   54.1390   48.4280 O.co2     1 CI91768     0.0000 
     48 CAN        33.2050   53.0240   48.6670 C.ar      1 CI91768     0.0000 
     49 CBU        31.8560   52.9090   49.0060 C.ar      1 CI91768     0.0000 
     50 NBZ        31.5270   52.0240   49.9740 N.3       1 CI91768     0.0000 
     51 OAK        30.2060   51.6440   50.2310 O.co2     1 CI91768     0.0000 
     52 OAF        32.5280   51.3920   50.7440 O.co2     1 CI91768     0.0000 
     53 H          15.0802   46.9238   42.0084 H         1 CI91768     0.0000 
     54 H          15.7997   46.7212   40.4017 H         1 CI91768     0.0000 
     55 H          14.3401   44.6567   40.1083 H         1 CI91768     0.0000 
     56 H          13.8787   44.8208   41.8113 H         1 CI91768     0.0000 
     57 H          15.7539   43.2585   41.6295 H         1 CI91768     0.0000 
     58 H          16.0634   45.5969   43.1850 H         1 CI91768     0.0000 
     59 H          18.1484   46.1694   44.2490 H         1 CI91768     0.0000 
     60 H          20.0052   43.9062   44.3811 H         1 CI91768     0.0000 
     61 H          20.5118   46.6777   43.3706 H         1 CI91768     0.0000 
     62 H          20.3033   45.2797   42.3019 H         1 CI91768     0.0000 
     63 H          22.3744   44.2797   43.2719 H         1 CI91768     0.0000 
     64 H          22.6015   45.7594   44.2201 H         1 CI91768     0.0000 
     65 H          22.6029   47.1162   42.2408 H         1 CI91768     0.0000 
     66 H          22.1192   45.7364   41.2397 H         1 CI91768     0.0000 
     67 H          24.2679   44.6603   41.6006 H         1 CI91768     0.0000 
     68 H          24.7503   45.9276   42.7413 H         1 CI91768     0.0000 
     69 H          24.7553   48.4597   41.4527 H         1 CI91768     0.0000 
     70 H          24.8519   49.6899   38.2317 H         1 CI91768     0.0000 
     71 H          26.5625   49.2362   38.3209 H         1 CI91768     0.0000 
     72 H          23.9513   51.2303   39.9482 H         1 CI91768     0.0000 
     73 H          24.9644   51.7502   38.5906 H         1 CI91768     0.0000 
     74 H          24.7756   53.5227   40.1878 H         1 CI91768     0.0000 
     75 H          26.4427   52.9225   40.1602 H         1 CI91768     0.0000 
     76 H          23.8787   53.2678   43.0348 H         1 CI91768     0.0000 
     77 H          24.7099   54.3446   41.8992 H         1 CI91768     0.0000 
     78 H          26.4389   52.9015   43.8001 H         1 CI91768     0.0000 
     79 H          25.3246   54.0729   44.5256 H         1 CI91768     0.0000 
     80 H          28.3920   55.9444   43.8511 H         1 CI91768     0.0000 
     81 H          28.5020   54.1822   44.0009 H         1 CI91768     0.0000 
     82 H          26.3092   54.7465   45.5831 H         1 CI91768     0.0000 
     83 H          27.2945   56.2027   45.8030 H         1 CI91768     0.0000 
     84 H          26.7907   52.9504   46.8956 H         1 CI91768     0.0000 
     85 H          26.9841   54.2206   48.1159 H         1 CI91768     0.0000 
     86 H          28.9883   52.1159   47.3189 H         1 CI91768     0.0000 
     87 H          28.1010   52.2044   48.8502 H         1 CI91768     0.0000 
     88 H          29.2250   54.3797   49.3436 H         1 CI91768     0.0000 
     89 H          30.6642   55.1850   46.8279 H         1 CI91768     0.0000 
     90 H          33.0171   55.3420   46.2665 H         1 CI91768     0.0000 
     91 H          33.9042   52.4430   49.1700 H         1 CI91768     0.0000 
@<TRIPOS>BOND
     1    2    1 ar   
     2    3    2 ar   
     3    4    2 1    
     4    5    4 1    
     5   53    4 1    
     6   54    4 1    
     7    6    5 1    
     8   55    5 1    
     9   56    5 1    
    10    7    6 1    
    11   10    6 1    
    12   57    6 1    
    13    8    7 ar   
    14    9    7 ar   
    15   11   10 am   
    16   58   10 1    
    17   12   11 2    
    18   13   11 am   
    19   14   13 1    
    20   59   13 1    
    21   15   14 1    
    22   18   14 1    
    23   60   14 1    
    24   16   15 ar   
    25   17   15 ar   
    26   19   18 1    
    27   61   18 1    
    28   62   18 1    
    29   20   19 1    
    30   63   19 1    
    31   64   19 1    
    32   21   20 1    
    33   65   20 1    
    34   66   20 1    
    35   22   21 1    
    36   67   21 1    
    37   68   21 1    
    38   23   22 1    
    39   24   22 1    
    40   26   23 2    
    41   69   23 1    
    42   25   24 2    
    43   26   25 1    
    44   27   26 1    
    45   28   27 1    
    46   70   27 1    
    47   71   27 1    
    48   29   28 1    
    49   30   29 1    
    50   72   29 1    
    51   73   29 1    
    52   31   30 1    
    53   74   30 1    
    54   75   30 1    
    55   32   31 1    
    56   33   32 1    
    57   76   32 1    
    58   77   32 1    
    59   34   33 1    
    60   78   33 1    
    61   79   33 1    
    62   35   34 1    
    63   36   35 1    
    64   80   35 1    
    65   81   35 1    
    66   37   36 1    
    67   82   36 1    
    68   83   36 1    
    69   38   37 1    
    70   39   38 1    
    71   84   38 1    
    72   85   38 1    
    73   40   39 1    
    74   86   39 1    
    75   87   39 1    
    76   41   40 1    
    77   88   40 1    
    78   42   41 ar   
    79   49   41 ar   
    80   43   42 ar   
    81   89   42 1    
    82   44   43 ar   
    83   90   43 1    
    84   45   44 1    
    85   48   44 ar   
    86   46   45 1    
    87   47   45 1    
    88   49   48 ar   
    89   91   48 1    
    90   50   49 1    
    91   51   50 1    
    92   52   50 1    
@<TRIPOS>SUBSTRUCTURE
     1 CI91768     1 GROUP   
@<TRIPOS>SET

