#    Name: 1q13_TES_1_INTS_M
#    Modification time : Mon Mar 24 22:38:35 2014

@<TRIPOS>MOLECULE
1q13_TES_1_INTS_M
   43     0     6     0     0
SMALL
NO_CHARGES


@<TRIPOS>ATOM
      1 CA         23.8525    1.3425   32.0275 C.3       2 GLC5        0.0000 
      2 CA         24.8670   -0.5500   32.0490 C.3       6 GLL5        0.0000 
      3 CA         22.8380    3.2350   32.0060 C.3       4 GLP5        0.0000 
      4 CA         23.2555   -1.3185   32.4680 C.3       2 GLC5        0.0000 
      5 CA         21.6440   -2.0870   32.8870 C.3       4 GLP5        0.0000 
      6 N          22.8590    0.6325   30.9235 N.am      1 SEC2        0.0000 
      7 N          22.8930   -0.8540   30.6550 N.am      5 SEL2        0.0000 
      8 N          22.8250    2.1190   31.1920 N.am      3 SEP2        0.0000 
      9 CA         25.0140   -3.6375   28.7005 C.3       2 GLC5        0.0000 
     10 CA         24.5240   -2.5140   30.3960 C.3       6 GLL5        0.0000 
     11 CA         25.5040   -4.7610   27.0050 C.3       4 GLP5        0.0000 
     12 CA         23.6755   -1.6680   29.0360 C.3       2 GLC5        0.0000 
     13 CA         22.8270   -0.8220   27.6760 C.3       4 GLP5        0.0000 
     14 CA         23.0840   -2.3005   31.6415 C.3       2 GLC5        0.0000 
     15 CA         26.4775   -5.4930   29.4355 C.3       2 GLC5        0.0000 
     16 CA         27.2710   -5.1140   30.8470 C.3       6 GLL5        0.0000 
     17 CA         25.6840   -5.8720   28.0240 C.3       4 GLP5        0.0000 
     18 CA         29.6575   -0.4785   33.6965 C.3       2 GLC5        0.0000 
     19 CA         29.1330   -2.0700   32.4290 C.3       6 GLL5        0.0000 
     20 CA         30.1820    1.1130   34.9640 C.3       4 GLP5        0.0000 
     21 CA         31.6050   -0.6310   31.5640 C.3       2 GLC5        0.0000 
     22 CA         30.5720   -2.4600   32.0500 C.3       6 GLL5        0.0000 
     23 CA         32.6380    1.1980   31.0780 C.3       4 GLP5        0.0000 
     24 CA         29.5090   -8.1930   31.3725 C.3       2 GLC5        0.0000 
     25 CA         30.0720   -6.0980   31.1660 C.3       6 GLL5        0.0000 
     26 CA         28.9460  -10.2880   31.5790 C.3       4 GLP5        0.0000 
     27 CA         25.2660   -3.7145   34.5980 C.3       2 GLC5        0.0000 
     28 CA         26.2370   -2.9870   33.1140 C.3       6 GLL5        0.0000 
     29 CA         24.2950   -4.4420   36.0820 C.3       4 GLP5        0.0000 
     30 CA         25.7608    0.8287   33.1205 C.3       2 GLC5        0.0000 
     31 CA         26.3740   -0.8370   31.8490 C.3       6 GLL5        0.0000 
     32 CA         25.9010    2.3510   34.2920 C.3       4 GLP5        0.0000 
     33 CA         25.8225   -4.7513   29.2025 C.3       2 GLC5        0.0000 
     34 CA         25.7450   -2.9960   30.7260 C.3       6 GLL5        0.0000 
     35 CA         26.6784   -2.1540   29.3163 C.3       2 GLC5        0.0000 
     36 CA         26.1770   -4.2650   30.0360 C.3       6 GLL5        0.0000 
     37 CA         27.7010   -0.7980   28.3340 C.3       4 GLP5        0.0000 
     38 CA         27.5021   -1.4883   30.0019 C.3       2 GLC5        0.0000 
     39 CA         26.6430   -2.3470   31.7800 C.3       6 GLL5        0.0000 
     40 CA         29.4232   -1.3005   30.3463 C.3       2 GLC5        0.0000 
     41 CA         28.9940   -0.3360   28.4530 C.3       4 GLP5        0.0000 
     42 CA         31.2402   -7.5040   32.7020 C.3       2 GLC5        0.0000 
     43 CA         31.6800   -8.8870   34.0010 C.3       4 GLP5        0.0000 
@<TRIPOS>BOND
@<TRIPOS>SUBSTRUCTURE
     1 SEC2        6 GROUP        1 X    SEC  0     ROOT SEC X 2
     2 GLC5        1 GROUP        1 X    GLC  0     **** GLC X 6
     3 SEP2        8 GROUP        1 Y    SEP  0     ROOT SEP Y 9
     4 GLP5        3 GROUP        1 Y    GLP  0     **** GLP Y 13
     5 SEL2        7 GROUP        1 Z    SEL  0     ROOT SEL Z 16
     6 GLL5        2 GROUP        1 Z    GLL  0     **** GLL Z 20
@<TRIPOS>SET

