#    Name: 1q13_TES_1_ligand
#    Modification time : Mon Mar 24 22:38:36 2014

@<TRIPOS>MOLECULE
1q13_TES_1_ligand
   49    52     1     0     0
SMALL
NO_CHARGES


@<TRIPOS>ATOM
      1 C1         26.3740   -0.8370   31.8490 C.3       1 TES501      0.0000 
      2 C2         24.8670   -0.5500   32.0490 C.3       1 TES501      0.0000 
      3 C3         24.0040   -1.2690   31.0040 C.2       1 TES501      0.0000 
      4 O3         22.8930   -0.8540   30.6550 O.2       1 TES501      0.0000 
      5 C4         24.5240   -2.5140   30.3960 C.2       1 TES501      0.0000 
      6 C5         25.7450   -2.9960   30.7260 C.2       1 TES501      0.0000 
      7 C6         26.1770   -4.2650   30.0360 C.3       1 TES501      0.0000 
      8 C7         27.2710   -5.1140   30.8470 C.3       1 TES501      0.0000 
      9 C8         28.2580   -4.2820   31.6700 C.3       1 TES501      0.0000 
     10 C9         28.0980   -2.7650   31.5250 C.3       1 TES501      0.0000 
     11 C10        26.6430   -2.3470   31.7800 C.3       1 TES501      0.0000 
     12 C11        29.1330   -2.0700   32.4290 C.3       1 TES501      0.0000 
     13 C12        30.5720   -2.4600   32.0500 C.3       1 TES501      0.0000 
     14 C13        30.7040   -3.9760   32.1640 C.3       1 TES501      0.0000 
     15 C14        29.6830   -4.6210   31.2480 C.3       1 TES501      0.0000 
     16 C15        30.0720   -6.0980   31.1660 C.3       1 TES501      0.0000 
     17 C16        31.5290   -6.1440   31.6400 C.3       1 TES501      0.0000 
     18 C17        31.9670   -4.6500   31.6500 C.3       1 TES501      0.0000 
     19 O17        33.0610   -4.4390   32.5360 O.3       1 TES501      0.0000 
     20 C18        30.4610   -4.4030   33.6200 C.3       1 TES501      0.0000 
     21 C19        26.2370   -2.9870   33.1140 C.3       1 TES501      0.0000 
     22 H          26.9272   -0.4100   32.6812 H         1 TES501      0.0000 
     23 H          26.7016   -0.3699   30.9241 H         1 TES501      0.0000 
     24 H          24.7013    0.5254   31.9754 H         1 TES501      0.0000 
     25 H          24.5756   -0.8807   33.0465 H         1 TES501      0.0000 
     26 H          23.9064   -2.9802   29.7179 H         1 TES501      0.0000 
     27 H          26.6137   -4.0412   29.0539 H         1 TES501      0.0000 
     28 H          25.3174   -4.9284   29.8739 H         1 TES501      0.0000 
     29 H          27.8157   -5.7236   30.1123 H         1 TES501      0.0000 
     30 H          26.7221   -5.8031   31.5042 H         1 TES501      0.0000 
     31 H          28.1604   -4.5412   32.7170 H         1 TES501      0.0000 
     32 H          28.3492   -2.5187   30.4830 H         1 TES501      0.0000 
     33 H          28.9476   -2.3531   33.4651 H         1 TES501      0.0000 
     34 H          29.0193   -0.9900   32.3351 H         1 TES501      0.0000 
     35 H          31.2590   -1.9835   32.7294 H         1 TES501      0.0000 
     36 H          30.7668   -2.1537   31.0357 H         1 TES501      0.0000 
     37 H          29.8670   -4.1842   30.2417 H         1 TES501      0.0000 
     38 H          30.0133   -6.4303   30.1579 H         1 TES501      0.0000 
     39 H          29.4632   -6.6677   31.8255 H         1 TES501      0.0000 
     40 H          32.1214   -6.6742   30.9435 H         1 TES501      0.0000 
     41 H          31.5794   -6.5265   32.6241 H         1 TES501      0.0000 
     42 H          32.1277   -4.3573   30.6572 H         1 TES501      0.0000 
     43 H          30.5393   -5.3933   33.7346 H         1 TES501      0.0000 
     44 H          31.1188   -3.9827   34.2450 H         1 TES501      0.0000 
     45 H          29.5487   -4.1426   33.9361 H         1 TES501      0.0000 
     46 H          26.3948   -3.9745   33.1154 H         1 TES501      0.0000 
     47 H          26.7537   -2.6065   33.8810 H         1 TES501      0.0000 
     48 H          25.2677   -2.8448   33.3144 H         1 TES501      0.0000 
     49 H          33.6384   -3.8616   33.1134 H         1 TES501      0.0000 
@<TRIPOS>BOND
     1    2    1 1    
     2   11    1 1    
     3   22    1 1    
     4   23    1 1    
     5    3    2 1    
     6   24    2 1    
     7   25    2 1    
     8    4    3 2    
     9    5    3 1    
    10    6    5 2    
    11   26    5 1    
    12    7    6 1    
    13   11    6 1    
    14    8    7 1    
    15   27    7 1    
    16   28    7 1    
    17    9    8 1    
    18   29    8 1    
    19   30    8 1    
    20   10    9 1    
    21   15    9 1    
    22   31    9 1    
    23   11   10 1    
    24   12   10 1    
    25   32   10 1    
    26   21   11 1    
    27   13   12 1    
    28   33   12 1    
    29   34   12 1    
    30   14   13 1    
    31   35   13 1    
    32   36   13 1    
    33   15   14 1    
    34   18   14 1    
    35   20   14 1    
    36   16   15 1    
    37   37   15 1    
    38   17   16 1    
    39   38   16 1    
    40   39   16 1    
    41   18   17 1    
    42   40   17 1    
    43   41   17 1    
    44   19   18 1    
    45   42   18 1    
    46   49   19 1    
    47   43   20 1    
    48   44   20 1    
    49   45   20 1    
    50   46   21 1    
    51   47   21 1    
    52   48   21 1    
@<TRIPOS>SUBSTRUCTURE
     1 TES501      1 GROUP   
@<TRIPOS>SET

