#    Name: 4E84_1_CAVITY_N1_6.mol2
#    Modification time : Mon Mar 10 16:26:18 2014

@<TRIPOS>MOLECULE
4E84_1_CAVITY_N1_6.mol2
  102     0     7     0     0
SMALL
NO_CHARGES


@<TRIPOS>ATOM
      1 O          26.7231  -48.9782   16.5598 O.2       2 ALA2        0.0000 
      2 OD1        27.3329  -51.0093   16.5057 O.3       3 ASP3        0.0000 
      3 O          26.1457  -50.2724   17.0513 O.2       2 ALA2        0.0000 
      4 O          24.9586  -49.5355   17.5970 O.2       2 ALA2        0.0000 
      5 O          23.7715  -48.7987   18.1426 O.2       2 ALA2        0.0000 
      6 CA         26.7555  -52.3035   16.9973 C.3       6 GLY6        0.0000 
      7 CZ         25.5683  -51.5666   17.5429 C.ar      5 PHE5        0.0000 
      8 O          24.3812  -50.8298   18.0885 O.2       2 ALA2        0.0000 
      9 CA         23.1941  -50.0929   18.6342 C.3       6 GLY6        0.0000 
     10 CZ         26.1781  -53.5977   17.4888 C.ar      5 PHE5        0.0000 
     11 CZ         24.9909  -52.8608   18.0345 C.ar      5 PHE5        0.0000 
     12 CZ         23.8038  -52.1240   18.5801 C.ar      5 PHE5        0.0000 
     13 O          22.6167  -51.3871   19.1257 O.2       2 ALA2        0.0000 
     14 CA         21.4295  -50.6502   19.6714 C.3       6 GLY6        0.0000 
     15 CA         24.4135  -54.1550   18.5260 C.3       6 GLY6        0.0000 
     16 CZ         23.2264  -53.4182   19.0717 C.ar      5 PHE5        0.0000 
     17 NZ         22.0393  -52.6813   19.6173 N.2       4 LYS4        0.0000 
     18 NZ         20.8521  -51.9444   20.1629 N.2       4 LYS4        0.0000 
     19 NZ         19.6650  -51.2075   20.7086 N.2       4 LYS4        0.0000 
     20 CA         23.8361  -55.4492   19.0176 C.3       6 GLY6        0.0000 
     21 CA         22.6490  -54.7124   19.5632 C.3       6 GLY6        0.0000 
     22 OG         21.4618  -53.9755   20.1089 O.2       1 SER1        0.0000 
     23 CA         22.0716  -56.0066   20.0548 C.3       6 GLY6        0.0000 
     24 OG         20.8844  -55.2697   20.6004 O.2       1 SER1        0.0000 
     25 O          26.8580  -50.0934   18.3592 O.2       2 ALA2        0.0000 
     26 OD1        26.2806  -51.3876   18.8508 O.3       3 ASP3        0.0000 
     27 O          25.0934  -50.6507   19.3964 O.2       2 ALA2        0.0000 
     28 CA         25.7032  -52.6818   19.3424 C.3       6 GLY6        0.0000 
     29 O          24.5160  -51.9450   19.8880 O.2       2 ALA2        0.0000 
     30 CA         25.1258  -53.9760   19.8339 C.3       6 GLY6        0.0000 
     31 O          23.9386  -53.2392   20.3796 O.2       2 ALA2        0.0000 
     32 O          22.7515  -52.5023   20.9252 O.2       2 ALA2        0.0000 
     33 O          23.3612  -54.5334   20.8712 O.2       2 ALA2        0.0000 
     34 OD1        21.6347  -49.3357   14.2188 O.3       3 ASP3        0.0000 
     35 O          20.4475  -48.5988   14.7645 O.2       2 ALA2        0.0000 
     36 OD1        21.0573  -50.6299   14.7104 O.3       3 ASP3        0.0000 
     37 O          19.8701  -49.8930   15.2560 O.2       2 ALA2        0.0000 
     38 NZ         18.6830  -49.1561   15.8017 N.2       4 LYS4        0.0000 
     39 OD1        20.4799  -51.9241   15.2020 O.3       3 ASP3        0.0000 
     40 OD1        19.2927  -51.1872   15.7476 O.3       3 ASP3        0.0000 
     41 OD1        19.9025  -53.2183   15.6936 O.3       3 ASP3        0.0000 
     42 OD1        18.7153  -52.4814   16.2392 O.3       3 ASP3        0.0000 
     43 CA         26.4534  -46.7478   12.9608 C.3       6 GLY6        0.0000 
     44 CA         24.6889  -47.3051   13.9980 C.3       6 GLY6        0.0000 
     45 OD1        22.9243  -47.8625   15.0352 O.3       3 ASP3        0.0000 
     46 DU         21.7372  -47.1256   15.5808 H         7 CUB7        0.0000 
     47 OD1        22.3469  -49.1567   15.5268 O.3       3 ASP3        0.0000 
     48 DU         21.1598  -48.4198   16.0724 H         7 CUB7        0.0000 
     49 CA         19.9727  -47.6829   16.6180 C.3       6 GLY6        0.0000 
     50 OD1        22.9567  -51.1878   15.4727 O.3       3 ASP3        0.0000 
     51 OD1        21.7695  -50.4509   16.0183 O.3       3 ASP3        0.0000 
     52 DU         20.5824  -49.7140   16.5640 H         7 CUB7        0.0000 
     53 CA         19.3953  -48.9771   17.1096 C.3       6 GLY6        0.0000 
     54 CZ         21.1921  -51.7451   16.5099 C.ar      5 PHE5        0.0000 
     55 DU         20.0050  -51.0082   17.0555 H         7 CUB7        0.0000 
     56 NZ         18.8179  -50.2713   17.6012 N.2       4 LYS4        0.0000 
     57 NZ         17.6307  -49.5345   18.1468 N.2       4 LYS4        0.0000 
     58 OG         20.6147  -53.0393   17.0015 O.2       1 SER1        0.0000 
     59 O          19.4276  -52.3024   17.5471 O.2       2 ALA2        0.0000 
     60 OD1        18.2405  -51.5656   18.0927 O.3       3 ASP3        0.0000 
     61 OD1        17.0533  -50.8287   18.6384 O.3       3 ASP3        0.0000 
     62 OG         20.0373  -54.3335   17.4930 O.2       1 SER1        0.0000 
     63 O          18.8502  -53.5966   18.0387 O.2       2 ALA2        0.0000 
     64 O          25.9785  -45.8319   14.8143 O.2       2 ALA2        0.0000 
     65 CA         27.7754  -48.5999   14.2146 C.3       6 GLY6        0.0000 
     66 CA         26.5883  -47.8630   14.7603 C.3       6 GLY6        0.0000 
     67 CA         25.4011  -47.1261   15.3059 C.3       6 GLY6        0.0000 
     68 O          24.2140  -46.3893   15.8515 O.2       2 ALA2        0.0000 
     69 CA         27.1980  -49.8941   14.7062 C.3       6 GLY6        0.0000 
     70 CA         26.0109  -49.1572   15.2518 C.3       6 GLY6        0.0000 
     71 CA         24.8237  -48.4203   15.7975 C.3       6 GLY6        0.0000 
     72 O          23.6366  -47.6835   16.3431 O.2       2 ALA2        0.0000 
     73 CA         22.4495  -46.9466   16.8887 C.3       6 GLY6        0.0000 
     74 N          26.6206  -51.1883   15.1978 N.2       2 ALA2        0.0000 
     75 CA         25.4335  -50.4514   15.7434 C.3       6 GLY6        0.0000 
     76 CA         24.2463  -49.7146   16.2890 C.3       6 GLY6        0.0000 
     77 O          23.0592  -48.9777   16.8347 O.2       2 ALA2        0.0000 
     78 CA         21.8721  -48.2408   17.3803 C.3       6 GLY6        0.0000 
     79 CZ         24.8561  -51.7456   16.2350 C.ar      5 PHE5        0.0000 
     80 CZ         23.6689  -51.0088   16.7806 C.ar      5 PHE5        0.0000 
     81 DU         22.4818  -50.2719   17.3262 H         7 CUB7        0.0000 
     82 CA         21.2947  -49.5350   17.8719 C.3       6 GLY6        0.0000 
     83 CZ         23.0915  -52.3030   17.2722 C.ar      5 PHE5        0.0000 
     84 DU         21.9044  -51.5661   17.8178 H         7 CUB7        0.0000 
     85 CA         20.7173  -50.8292   18.3634 C.3       6 GLY6        0.0000 
     86 CA         19.5301  -50.0923   18.9091 C.3       6 GLY6        0.0000 
     87 N          18.3430  -49.3555   19.4547 N.2       2 ALA2        0.0000 
     88 CZ         22.5141  -53.5972   17.7638 C.ar      5 PHE5        0.0000 
     89 DU         21.3270  -52.8603   18.3094 H         7 CUB7        0.0000 
     90 DU         20.1399  -52.1234   18.8550 H         7 CUB7        0.0000 
     91 O          18.9527  -51.3865   19.4007 O.2       2 ALA2        0.0000 
     92 CA         17.7656  -50.6497   19.9463 C.3       6 GLY6        0.0000 
     93 CZ         23.1239  -55.6283   17.7097 C.ar      5 PHE5        0.0000 
     94 OG         21.9367  -54.8914   18.2553 O.2       1 SER1        0.0000 
     95 O          20.7496  -54.1545   18.8010 O.2       2 ALA2        0.0000 
     96 O          19.5625  -53.4176   19.3466 O.2       2 ALA2        0.0000 
     97 NZ         21.3593  -56.1856   18.7469 N.2       4 LYS4        0.0000 
     98 CA         20.1722  -55.4487   19.2925 C.3       6 GLY6        0.0000 
     99 O          26.6908  -45.6529   16.1223 O.2       2 ALA2        0.0000 
    100 OD1        28.4877  -48.4209   15.5226 O.3       3 ASP3        0.0000 
    101 OD1        27.3005  -47.6840   16.0682 O.3       3 ASP3        0.0000 
    102 OD1        26.1134  -46.9471   16.6138 O.3       3 ASP3        0.0000 
@<TRIPOS>BOND
@<TRIPOS>SUBSTRUCTURE
     1 SER1       22 GROUP   
     2 ALA2        1 GROUP   
     3 ASP3        2 GROUP   
     4 LYS4       17 GROUP   
     5 PHE5        7 GROUP   
     6 GLY6        6 GROUP   
     7 CUB7       46 GROUP   
@<TRIPOS>SET

