#    Name: 4e84_M7B_1_INTS_M
#    Modification time : Tue Mar 25 10:44:25 2014

@<TRIPOS>MOLECULE
4e84_M7B_1_INTS_M
   57     0    12     0     0
SMALL
NO_CHARGES


@<TRIPOS>ATOM
      1 CA         22.1925  -54.3665   16.9265 C.3       4 GLC5        0.0000 
      2 CA         20.7650  -54.3660   18.5330 C.3      12 GLL5        0.0000 
      3 CA         23.6200  -54.3670   15.3200 C.3       8 GLP5        0.0000 
      4 N          22.7840  -57.7720   18.4770 N.am      2 SEC2        0.0000 
      5 N          21.7190  -56.5140   18.1690 N.am     10 SEL2        0.0000 
      6 N          23.8490  -59.0300   18.7850 N.am      6 SEP2        0.0000 
      7 O          21.0195  -57.4675   17.4625 O.2       1 ALC1        0.0000 
      8 O          21.7190  -56.5140   18.1690 O.2       9 ALL1        0.0000 
      9 O          20.3200  -58.4210   16.7560 O.2       5 ALP1        0.0000 
     10 N          22.9645  -58.0325   19.7580 N.am      2 SEC2        0.0000 
     11 N          22.0800  -57.0350   20.7310 N.am     10 SEL2        0.0000 
     12 O          22.2650  -57.4555   21.9490 O.2       1 ALC1        0.0000 
     13 O          22.0800  -57.0350   20.7310 O.2       9 ALL1        0.0000 
     14 O          22.4500  -57.8760   23.1670 O.2       5 ALP1        0.0000 
     15 N          22.9455  -54.0945   22.7265 N.am      2 SEC2        0.0000 
     16 N          23.4210  -54.7390   21.6760 N.am     10 SEL2        0.0000 
     17 N          22.4700  -53.4500   23.7770 N.am      6 SEP2        0.0000 
     18 O          23.8715  -55.7600   22.5930 O.2       1 ALC1        0.0000 
     19 O          23.4210  -54.7390   21.6760 O.2       9 ALL1        0.0000 
     20 O          24.3220  -56.7810   23.5100 O.2       5 ALP1        0.0000 
     21 N          23.4275  -50.6155   20.8915 N.am      2 SEC2        0.0000 
     22 N          23.1010  -51.2280   19.5350 N.am     10 SEL2        0.0000 
     23 N          23.7540  -50.0030   22.2480 N.am      6 SEP2        0.0000 
     24 CA         25.7450  -54.4455   19.3160 C.3       4 GLC5        0.0000 
     25 CA         24.7940  -52.8110   19.3870 C.3      12 GLL5        0.0000 
     26 CA         26.6960  -56.0800   19.2450 C.3       8 GLP5        0.0000 
     27 CA         26.4590  -52.8485   20.1430 C.3       4 GLC5        0.0000 
     28 CA         28.1240  -52.8860   20.8990 C.3       8 GLP5        0.0000 
     29 NZ         25.4605  -49.6620   20.1185 N.4       3 LYC4        0.0000 
     30 NZ         25.0430  -49.7850   18.7210 N.4      11 LYL4        0.0000 
     31 NZ         25.0280  -49.7440   22.5110 N.4       7 LYP4        0.0000 
     32 NZ         25.8815  -48.1785   18.8700 N.4       3 LYC4        0.0000 
     33 NZ         26.7200  -46.5720   19.0190 N.4       7 LYP4        0.0000 
     34 N          25.4605  -49.6620   20.1185 N.am      2 SEC2        0.0000 
     35 N          25.0430  -49.7850   18.7210 N.am     10 SEL2        0.0000 
     36 N          25.8780  -49.5390   21.5160 N.am      6 SEP2        0.0000 
     37 NZ         28.0075  -51.3635   19.4080 N.4       3 LYC4        0.0000 
     38 NZ         27.1520  -51.0470   18.3820 N.4      11 LYL4        0.0000 
     39 NZ         28.8630  -51.6800   20.4340 N.4       7 LYP4        0.0000 
     40 NZ         28.4835  -50.9860   17.7040 N.4       3 LYC4        0.0000 
     41 NZ         29.8150  -50.9250   17.0260 N.4       7 LYP4        0.0000 
     42 N          28.0075  -51.3635   19.4080 N.am      2 SEC2        0.0000 
     43 N          27.1520  -51.0470   18.3820 N.am     10 SEL2        0.0000 
     44 N          28.8630  -51.6800   20.4340 N.am      6 SEP2        0.0000 
     45 N          28.4835  -50.9860   17.7040 N.am      2 SEC2        0.0000 
     46 N          29.8150  -50.9250   17.0260 N.am      6 SEP2        0.0000 
     47 O          21.0810  -55.1770   16.2635 O.2       1 ALC1        0.0000 
     48 O          20.3190  -54.4000   17.2370 O.2       9 ALL1        0.0000 
     49 O          21.8430  -55.9540   15.2900 O.2       5 ALP1        0.0000 
     50 CA         19.0553  -55.4108   18.7855 C.3       4 GLC5        0.0000 
     51 CA         17.2390  -55.7560   18.7730 C.3       8 GLP5        0.0000 
     52 CA         20.2368  -57.0703   20.7647 C.3       4 GLC5        0.0000 
     53 CA         20.9780  -55.7650   19.0630 C.3      12 GLL5        0.0000 
     54 CA         19.1460  -58.3750   21.7970 C.3       8 GLP5        0.0000 
     55 CA         23.9097  -56.1028   20.4885 C.3       4 GLC5        0.0000 
     56 CA         21.6770  -55.7660   20.4020 C.3      12 GLL5        0.0000 
     57 CA         25.5480  -56.9160   20.5730 C.3       8 GLP5        0.0000 
@<TRIPOS>BOND
@<TRIPOS>SUBSTRUCTURE
     1 ALC1        7 GROUP        1 X    ALC  0     ROOT ALC X 1
     2 SEC2        4 GROUP        1 X    SEC  0     **** SEC X 2
     3 LYC4       29 GROUP        1 X    LYC  0     **** LYC X 4
     4 GLC5        1 GROUP        1 X    GLC  0     **** GLC X 6
     5 ALP1        9 GROUP        1 Y    ALP  0     ROOT ALP Y 8
     6 SEP2        6 GROUP        1 Y    SEP  0     **** SEP Y 9
     7 LYP4       31 GROUP        1 Y    LYP  0     **** LYP Y 11
     8 GLP5        3 GROUP        1 Y    GLP  0     **** GLP Y 13
     9 ALL1        8 GROUP        1 Z    ALL  0     ROOT ALL Z 15
    10 SEL2        5 GROUP        1 Z    SEL  0     **** SEL Z 16
    11 LYL4       30 GROUP        1 Z    LYL  0     **** LYL Z 18
    12 GLL5        2 GROUP        1 Z    GLL  0     **** GLL Z 20
@<TRIPOS>SET

