#    Name: 4e84_M7B_1_ligand
#    Modification time : Tue Mar 25 10:44:25 2014

@<TRIPOS>MOLECULE
4e84_M7B_1_ligand
   31    31     1     0     0
SMALL
NO_CHARGES


@<TRIPOS>ATOM
      1 P          25.7110  -50.8940   17.9270 P.3       1 M7B502      0.0000 
      2 C1         20.7650  -54.3660   18.5330 C.3       1 M7B502      0.0000 
      3 C2         20.9780  -55.7650   19.0630 C.3       1 M7B502      0.0000 
      4 O2         21.7190  -56.5140   18.1690 O.3       1 M7B502      0.0000 
      5 C3         21.6770  -55.7660   20.4020 C.3       1 M7B502      0.0000 
      6 O3         22.0800  -57.0350   20.7310 O.3       1 M7B502      0.0000 
      7 C4         22.8660  -54.8130   20.4060 C.3       1 M7B502      0.0000 
      8 O4         23.4210  -54.7390   21.6760 O.3       1 M7B502      0.0000 
      9 C5         22.3980  -53.4780   19.8960 C.3       1 M7B502      0.0000 
     10 C6         23.4860  -52.4460   20.0470 C.3       1 M7B502      0.0000 
     11 O6         23.1010  -51.2280   19.5350 O.3       1 M7B502      0.0000 
     12 C7         24.7940  -52.8110   19.3870 C.3       1 M7B502      0.0000 
     13 O7         24.9050  -52.2310   18.1320 O.3       1 M7B502      0.0000 
     14 O8         25.0430  -49.7850   18.7210 O.co2     1 M7B502      0.0000 
     15 O9         27.1520  -51.0470   18.3820 O.co2     1 M7B502      0.0000 
     16 O10        25.7030  -50.5300   16.4620 O.co2     1 M7B502      0.0000 
     17 O1         20.3190  -54.4000   17.2370 O.3       1 M7B502      0.0000 
     18 O5         21.9570  -53.6790   18.5840 O.3       1 M7B502      0.0000 
     19 H          20.0251  -53.8940   19.1902 H         1 M7B502      0.0000 
     20 H          19.9856  -56.2142   19.2162 H         1 M7B502      0.0000 
     21 H          20.9573  -55.3742   21.1412 H         1 M7B502      0.0000 
     22 H          23.5804  -55.2117   19.6734 H         1 M7B502      0.0000 
     23 H          21.5557  -53.1815   20.5437 H         1 M7B502      0.0000 
     24 H          23.7009  -52.3424   21.1320 H         1 M7B502      0.0000 
     25 H          24.8452  -53.9188   19.3444 H         1 M7B502      0.0000 
     26 H          25.6090  -52.4942   20.0704 H         1 M7B502      0.0000 
     27 H          21.0607  -57.1355   17.7442 H         1 M7B502      0.0000 
     28 H          22.1021  -57.0484   21.7307 H         1 M7B502      0.0000 
     29 H          23.6128  -55.6870   21.9301 H         1 M7B502      0.0000 
     30 H          23.9483  -50.8002   19.2202 H         1 M7B502      0.0000 
     31 H          20.9733  -54.9814   16.7534 H         1 M7B502      0.0000 
@<TRIPOS>BOND
     1   13    1 1    
     2   14    1 ar   
     3   15    1 ar   
     4   16    1 ar   
     5    3    2 1    
     6   17    2 1    
     7   18    2 1    
     8   19    2 1    
     9    4    3 1    
    10    5    3 1    
    11   20    3 1    
    12   27    4 1    
    13    6    5 1    
    14    7    5 1    
    15   21    5 1    
    16   28    6 1    
    17    8    7 1    
    18    9    7 1    
    19   22    7 1    
    20   29    8 1    
    21   10    9 1    
    22   18    9 1    
    23   23    9 1    
    24   11   10 1    
    25   12   10 1    
    26   24   10 1    
    27   30   11 1    
    28   13   12 1    
    29   25   12 1    
    30   26   12 1    
    31   31   17 1    
@<TRIPOS>SUBSTRUCTURE
     1 M7B502      1 GROUP   
@<TRIPOS>SET

