#    Name: 1jqi_FAD_4_INTS_M
#    Modification time : Tue Mar 25 09:17:42 2014

@<TRIPOS>MOLECULE
1jqi_FAD_4_INTS_M
  122     0    12     0     0
SMALL
NO_CHARGES


@<TRIPOS>ATOM
      1 N         -58.1135   62.5465   22.6720 N.am      2 SEC2        0.0000 
      2 N         -58.5620   63.9970   22.7290 N.am     10 SEL2        0.0000 
      3 N         -57.6650   61.0960   22.6150 N.am      6 SEP2        0.0000 
      4 N         -57.7300   63.4760   23.7285 N.am      2 SEC2        0.0000 
      5 N         -56.8980   62.9550   24.7280 N.am      6 SEP2        0.0000 
      6 NZ        -60.1875   65.3790   20.2415 N.4       3 LYC4        0.0000 
      7 NZ        -59.6560   66.0280   21.6530 N.4      11 LYL4        0.0000 
      8 NZ        -61.6470   65.6800   18.8000 N.4       7 LYP4        0.0000 
      9 N         -60.7810   66.2105   20.7720 N.am      2 SEC2        0.0000 
     10 N         -59.6560   66.0280   21.6530 N.am     10 SEL2        0.0000 
     11 N         -61.9060   66.3930   19.8910 N.am      6 SEP2        0.0000 
     12 N         -60.1875   65.3790   20.2415 N.am      2 SEC2        0.0000 
     13 N         -60.7190   64.7300   18.8300 N.am      6 SEP2        0.0000 
     14 CA        -56.4160   68.1615   22.4970 C.3       4 GLC5        0.0000 
     15 CA        -58.0980   67.6820   23.7290 C.3      12 GLL5        0.0000 
     16 CA        -54.7340   68.6410   21.2650 C.3       8 GLP5        0.0000 
     17 O         -55.1730   69.4430   25.4830 O.2       1 ALC1        0.0000 
     18 O         -55.7500   68.6270   26.4810 O.2       9 ALL1        0.0000 
     19 O         -54.5960   70.2590   24.4850 O.2       5 ALP1        0.0000 
     20 N         -54.6365   65.2735   27.2010 N.am      2 SEC2        0.0000 
     21 N         -55.6400   66.1100   27.3400 N.am     10 SEL2        0.0000 
     22 N         -53.6330   64.4370   27.0620 N.am      6 SEP2        0.0000 
     23 O         -54.4705   66.8180   27.9735 O.2       1 ALC1        0.0000 
     24 O         -55.6400   66.1100   27.3400 O.2       9 ALL1        0.0000 
     25 O         -53.3010   67.5260   28.6070 O.2       5 ALP1        0.0000 
     26 CA        -58.5865   68.1965   28.3970 C.3       4 GLC5        0.0000 
     27 CA        -57.9480   66.8040   27.0570 C.3      12 GLL5        0.0000 
     28 CA        -59.2250   69.5890   29.7370 C.3       8 GLP5        0.0000 
     29 CA        -58.7425   62.2310   31.2735 C.3       4 GLC5        0.0000 
     30 CA        -59.7400   63.3760   30.0470 C.3      12 GLL5        0.0000 
     31 CA        -57.7450   61.0860   32.5000 C.3       8 GLP5        0.0000 
     32 CA        -60.3345   65.8015   30.1670 C.3       4 GLC5        0.0000 
     33 CA        -58.5660   65.0950   31.0400 C.3      12 GLL5        0.0000 
     34 CA        -62.1030   66.5080   29.2940 C.3       8 GLP5        0.0000 
     35 CA        -56.6160   65.4930   30.8325 C.3       4 GLC5        0.0000 
     36 CA        -54.6660   65.8910   30.6250 C.3       8 GLP5        0.0000 
     37 CA        -58.1555   63.0905   31.7700 C.3       4 GLC5        0.0000 
     38 N         -53.5480   58.9815   17.1990 N.am      2 SEC2        0.0000 
     39 N         -52.2390   58.9760   16.5920 N.am     10 SEL2        0.0000 
     40 N         -54.8570   58.9870   17.8060 N.am      6 SEP2        0.0000 
     41 N         -53.5220   55.5835   15.8720 N.am      2 SEC2        0.0000 
     42 N         -52.7850   56.7660   16.3710 N.am     10 SEL2        0.0000 
     43 N         -54.2590   54.4010   15.3730 N.am      6 SEP2        0.0000 
     44 N         -54.2715   56.7060   16.4020 N.am      2 SEC2        0.0000 
     45 N         -55.7580   56.6460   16.4330 N.am      6 SEP2        0.0000 
     46 N         -53.8210   57.8765   17.0885 N.am      2 SEC2        0.0000 
     47 O         -50.7935   56.2310   14.7270 O.2       1 ALC1        0.0000 
     48 O         -50.8500   57.4620   15.4250 O.2       9 ALL1        0.0000 
     49 O         -50.7370   55.0000   14.0290 O.2       5 ALP1        0.0000 
     50 N         -48.6645   58.5640   13.0775 N.am      2 SEC2        0.0000 
     51 N         -48.9170   58.0190   14.4310 N.am     10 SEL2        0.0000 
     52 N         -48.4120   59.1090   11.7240 N.am      6 SEP2        0.0000 
     53 N         -47.8185   59.2785   14.0430 N.am      2 SEC2        0.0000 
     54 N         -46.7200   60.5380   13.6550 N.am      6 SEP2        0.0000 
     55 N         -47.9750   60.6370   14.4305 N.am      2 SEC2        0.0000 
     56 N         -49.2300   60.7360   15.2060 N.am     10 SEL2        0.0000 
     57 CA        -47.5355   67.3650   15.4235 C.3       4 GLC5        0.0000 
     58 CA        -47.6860   65.3430   15.0410 C.3      12 GLL5        0.0000 
     59 CA        -47.3850   69.3870   15.8060 C.3       8 GLP5        0.0000 
     60 CA        -47.1460   66.4815   13.5620 C.3       4 GLC5        0.0000 
     61 CA        -46.6060   67.6200   12.0830 C.3       8 GLP5        0.0000 
     62 CA        -45.6845   65.2670   15.1905 C.3       4 GLC5        0.0000 
     63 CA        -43.6830   65.1910   15.3400 C.3       8 GLP5        0.0000 
     64 CA        -46.9700   63.9825   16.6280 C.3       4 GLC5        0.0000 
     65 CA        -46.2540   62.6220   18.2150 C.3       8 GLP5        0.0000 
     66 CA        -51.8405   66.8675   17.2550 C.3       4 GLC5        0.0000 
     67 CA        -50.1190   66.2180   16.6670 C.3      12 GLL5        0.0000 
     68 CA        -53.5620   67.5170   17.8430 C.3       8 GLP5        0.0000 
     69 CA        -49.8345   68.2335   16.7200 C.3       4 GLC5        0.0000 
     70 CA        -49.5500   70.2490   16.7730 C.3       8 GLP5        0.0000 
     71 CA        -51.6010   65.8400   15.0200 C.3       4 GLC5        0.0000 
     72 CA        -53.0830   65.4620   13.3730 C.3       8 GLP5        0.0000 
     73 CA        -54.2275   60.3905   17.0830 C.3       4 GLC5        0.0000 
     74 CA        -52.7710   61.6820   17.5070 C.3      12 GLL5        0.0000 
     75 CA        -55.6840   59.0990   16.6590 C.3       8 GLP5        0.0000 
     76 CA        -52.8515   61.9500   15.7265 C.3       4 GLC5        0.0000 
     77 CA        -52.9320   62.2180   13.9460 C.3       8 GLP5        0.0000 
     78 CA        -50.7025   62.2515   20.0805 C.3       4 GLC5        0.0000 
     79 CA        -52.5680   61.8170   19.0300 C.3      12 GLL5        0.0000 
     80 CA        -48.8370   62.6860   21.1310 C.3       8 GLP5        0.0000 
     81 CA        -55.6450   61.7205   19.9100 C.3       4 GLC5        0.0000 
     82 CA        -53.6970   62.6820   19.6020 C.3      12 GLL5        0.0000 
     83 CA        -57.5930   60.7590   20.2180 C.3       8 GLP5        0.0000 
     84 CA        -52.3280   64.6800   21.1885 C.3       4 GLC5        0.0000 
     85 CA        -53.6530   62.8660   21.1500 C.3      12 GLL5        0.0000 
     86 CA        -51.0030   66.4940   21.2270 C.3       8 GLP5        0.0000 
     87 CA        -56.1800   62.2805   20.9325 C.3       4 GLC5        0.0000 
     88 CA        -54.7670   63.8020   21.6470 C.3      12 GLL5        0.0000 
     89 N         -55.0615   66.4850   19.2550 N.am      2 SEC2        0.0000 
     90 N         -55.9120   65.3720   19.3710 N.am     10 SEL2        0.0000 
     91 N         -54.2110   67.5980   19.1390 N.am      6 SEP2        0.0000 
     92 N         -59.3725   64.3675   19.2460 N.am      2 SEC2        0.0000 
     93 N         -58.0260   64.0050   19.6620 N.am     10 SEL2        0.0000 
     94 N         -58.1045   63.8270   18.2845 N.am      2 SEC2        0.0000 
     95 N         -58.1830   63.6490   16.9070 N.am      6 SEP2        0.0000 
     96 CA        -59.6847   68.8162   24.4207 C.3       4 GLC5        0.0000 
     97 CA        -61.4520   69.7140   24.4030 C.3       8 GLP5        0.0000 
     98 CA        -56.7975   70.0220   25.1867 C.3       4 GLC5        0.0000 
     99 CA        -57.7370   68.1550   25.1480 C.3      12 GLL5        0.0000 
    100 CA        -56.5730   72.1200   25.0130 C.3       8 GLP5        0.0000 
    101 CA        -54.7675   66.0965   25.3878 C.3       4 GLC5        0.0000 
    102 CA        -56.3070   67.6930   25.5730 C.3      12 GLL5        0.0000 
    103 CA        -53.0670   65.1350   24.8090 C.3       8 GLP5        0.0000 
    104 CA        -60.6514   65.4616   29.2061 C.3       4 GLC5        0.0000 
    105 CA        -59.4990   63.9910   28.7900 C.3      12 GLL5        0.0000 
    106 CA        -57.6509   63.2871   28.7211 C.3       4 GLC5        0.0000 
    107 CA        -56.1020   62.1590   28.3240 C.3       8 GLP5        0.0000 
    108 CA        -49.3255   63.0778   13.4900 C.3       4 GLC5        0.0000 
    109 CA        -49.5220   62.0120   15.6180 C.3      12 GLL5        0.0000 
    110 CA        -49.5970   63.6360   11.5600 C.3       8 GLP5        0.0000 
    111 CA        -49.1782   62.3895   17.8518 C.3       4 GLC5        0.0000 
    112 CA        -48.2690   62.5620   19.7080 C.3       8 GLP5        0.0000 
    113 CA        -48.9032   64.2420   13.4223 C.3       4 GLC5        0.0000 
    114 CA        -48.7330   64.3530   15.5280 C.3      12 GLL5        0.0000 
    115 CA        -47.8377   65.8235   16.8993 C.3       4 GLC5        0.0000 
    116 CA        -47.4660   66.7990   18.5140 C.3       8 GLP5        0.0000 
    117 CA        -48.7345   66.1440   17.4988 C.3       4 GLC5        0.0000 
    118 CA        -49.3062   63.4232   18.1040 C.3       4 GLC5        0.0000 
    119 CA        -49.8870   64.7600   16.3000 C.3      12 GLL5        0.0000 
    120 CA        -51.6879   62.6155   15.1469 C.3       4 GLC5        0.0000 
    121 CA        -50.8000   63.8090   16.7000 C.3      12 GLL5        0.0000 
    122 CA        -53.6385   64.2345   23.1038 C.3       4 GLC5        0.0000 
@<TRIPOS>BOND
@<TRIPOS>SUBSTRUCTURE
     1 ALC1       17 GROUP        1 X    ALC  0     ROOT ALC X 1
     2 SEC2        1 GROUP        1 X    SEC  0     **** SEC X 2
     3 LYC4        6 GROUP        1 X    LYC  0     **** LYC X 4
     4 GLC5       14 GROUP        1 X    GLC  0     **** GLC X 6
     5 ALP1       19 GROUP        1 Y    ALP  0     ROOT ALP Y 8
     6 SEP2        3 GROUP        1 Y    SEP  0     **** SEP Y 9
     7 LYP4        8 GROUP        1 Y    LYP  0     **** LYP Y 11
     8 GLP5       16 GROUP        1 Y    GLP  0     **** GLP Y 13
     9 ALL1       18 GROUP        1 Z    ALL  0     ROOT ALL Z 15
    10 SEL2        2 GROUP        1 Z    SEL  0     **** SEL Z 16
    11 LYL4        7 GROUP        1 Z    LYL  0     **** LYL Z 18
    12 GLL5       15 GROUP        1 Z    GLL  0     **** GLL Z 20
@<TRIPOS>SET

