#    Name: 1jqi_FAD_4_ligand
#    Modification time : Tue Mar 25 09:17:42 2014

@<TRIPOS>MOLECULE
1jqi_FAD_4_ligand
   84    89     1     0     0
SMALL
NO_CHARGES


@<TRIPOS>ATOM
      1 PA        -58.4940   65.4050   22.3190 P.3       1 FAD799      0.0000 
      2 O1A       -58.5620   63.9970   22.7290 O.co2     1 FAD799      0.0000 
      3 O2A       -59.6560   66.0280   21.6530 O.co2     1 FAD799      0.0000 
      4 O5B       -58.1430   66.2670   23.5940 O.3       1 FAD799      0.0000 
      5 C5B       -58.0980   67.6820   23.7290 C.3       1 FAD799      0.0000 
      6 C4B       -57.7370   68.1550   25.1480 C.3       1 FAD799      0.0000 
      7 O4B       -58.6710   67.5860   26.1050 O.3       1 FAD799      0.0000 
      8 C3B       -56.3070   67.6930   25.5730 C.3       1 FAD799      0.0000 
      9 O3B       -55.7500   68.6270   26.4810 O.3       1 FAD799      0.0000 
     10 C2B       -56.6290   66.4230   26.3600 C.3       1 FAD799      0.0000 
     11 O2B       -55.6400   66.1100   27.3400 O.3       1 FAD799      0.0000 
     12 C1B       -57.9480   66.8040   27.0570 C.3       1 FAD799      0.0000 
     13 N9A       -58.6600   65.5750   27.5170 N.pl3     1 FAD799      0.0000 
     14 C8A       -59.3270   64.6290   26.7850 C.2       1 FAD799      0.0000 
     15 N7A       -59.8450   63.6660   27.4870 N.2       1 FAD799      0.0000 
     16 C5A       -59.4990   63.9910   28.7900 C.ar      1 FAD799      0.0000 
     17 C6A       -59.7400   63.3760   30.0470 C.ar      1 FAD799      0.0000 
     18 N6A       -60.4190   62.2510   30.2000 N.pl3     1 FAD799      0.0000 
     19 N1A       -59.2480   63.9720   31.1520 N.ar      1 FAD799      0.0000 
     20 C2A       -58.5660   65.0950   31.0400 C.ar      1 FAD799      0.0000 
     21 N3A       -58.2810   65.7550   29.9270 N.ar      1 FAD799      0.0000 
     22 C4A       -58.7800   65.1470   28.8180 C.ar      1 FAD799      0.0000 
     23 N1        -52.2390   58.9760   16.5920 N.2       1 FAD799      0.0000 
     24 C2        -52.0160   57.6940   16.1540 C.2       1 FAD799      0.0000 
     25 O2        -52.7850   56.7660   16.3710 O.2       1 FAD799      0.0000 
     26 N3        -50.8500   57.4620   15.4250 N.am      1 FAD799      0.0000 
     27 C4        -49.8840   58.4220   15.0890 C.2       1 FAD799      0.0000 
     28 O4        -48.9170   58.0190   14.4310 O.2       1 FAD799      0.0000 
     29 C4X       -50.1590   59.7880   15.5580 C.2       1 FAD799      0.0000 
     30 N5        -49.2300   60.7360   15.2060 N.2       1 FAD799      0.0000 
     31 C5X       -49.5220   62.0120   15.6180 C.ar      1 FAD799      0.0000 
     32 C6        -48.5860   63.0270   15.2220 C.ar      1 FAD799      0.0000 
     33 C7        -48.7330   64.3530   15.5280 C.ar      1 FAD799      0.0000 
     34 C7M       -47.6860   65.3430   15.0410 C.3       1 FAD799      0.0000 
     35 C8        -49.8870   64.7600   16.3000 C.ar      1 FAD799      0.0000 
     36 C8M       -50.1190   66.2180   16.6670 C.3       1 FAD799      0.0000 
     37 C9        -50.8000   63.8090   16.7000 C.ar      1 FAD799      0.0000 
     38 C9A       -50.6530   62.4220   16.3730 C.ar      1 FAD799      0.0000 
     39 N10       -51.5850   61.3540   16.7310 N.pl3     1 FAD799      0.0000 
     40 C10       -51.3450   59.9890   16.2990 C.2       1 FAD799      0.0000 
     41 C1'       -52.7710   61.6820   17.5070 C.3       1 FAD799      0.0000 
     42 C2'       -52.5680   61.8170   19.0300 C.3       1 FAD799      0.0000 
     43 O2'       -52.4910   60.5710   19.7000 O.3       1 FAD799      0.0000 
     44 C3'       -53.6970   62.6820   19.6020 C.3       1 FAD799      0.0000 
     45 O3'       -53.5010   63.9560   18.9660 O.3       1 FAD799      0.0000 
     46 C4'       -53.6530   62.8660   21.1500 C.3       1 FAD799      0.0000 
     47 O4'       -53.8540   61.6120   21.7780 O.3       1 FAD799      0.0000 
     48 C5'       -54.7670   63.8020   21.6470 C.3       1 FAD799      0.0000 
     49 O5'       -56.0020   63.4530   21.0070 O.3       1 FAD799      0.0000 
     50 P         -56.7870   64.5790   20.2560 P.3       1 FAD799      0.0000 
     51 O1P       -55.9120   65.3720   19.3710 O.co2     1 FAD799      0.0000 
     52 O2P       -58.0260   64.0050   19.6620 O.co2     1 FAD799      0.0000 
     53 O3P       -57.2110   65.5600   21.3910 O.3       1 FAD799      0.0000 
     54 H         -59.0734   68.1492   23.4693 H         1 FAD799      0.0000 
     55 H         -57.3551   68.1359   23.0366 H         1 FAD799      0.0000 
     56 H         -57.7624   69.2235   25.1834 H         1 FAD799      0.0000 
     57 H         -55.7603   67.4647   24.7460 H         1 FAD799      0.0000 
     58 H         -56.8393   65.6459   25.6809 H         1 FAD799      0.0000 
     59 H         -57.6691   67.4102   27.9156 H         1 FAD799      0.0000 
     60 H         -59.3912   64.7062   25.7779 H         1 FAD799      0.0000 
     61 H         -60.5361   61.9322   31.1405 H         1 FAD799      0.0000 
     62 H         -60.7536   61.8215   29.3612 H         1 FAD799      0.0000 
     63 H         -58.1897   65.5361   31.9760 H         1 FAD799      0.0000 
     64 H         -50.6735   56.4630   15.0905 H         1 FAD799      0.0000 
     65 H         -47.7530   62.7065   14.6687 H         1 FAD799      0.0000 
     66 H         -51.6324   64.0841   17.2594 H         1 FAD799      0.0000 
     67 H         -53.5691   60.9146   17.3478 H         1 FAD799      0.0000 
     68 H         -53.2221   62.6408   17.1486 H         1 FAD799      0.0000 
     69 H         -51.6385   62.3969   19.1694 H         1 FAD799      0.0000 
     70 H         -54.6326   62.2624   19.3172 H         1 FAD799      0.0000 
     71 H         -52.7080   63.2933   21.4129 H         1 FAD799      0.0000 
     72 H         -54.4657   64.8271   21.4172 H         1 FAD799      0.0000 
     73 H         -54.8283   63.6969   22.7331 H         1 FAD799      0.0000 
     74 H         -46.7763   65.1255   15.3947 H         1 FAD799      0.0000 
     75 H         -47.6183   65.3512   14.0433 H         1 FAD799      0.0000 
     76 H         -47.8965   66.2775   15.3282 H         1 FAD799      0.0000 
     77 H         -49.3663   66.5882   17.2115 H         1 FAD799      0.0000 
     78 H         -50.2057   66.7960   15.8556 H         1 FAD799      0.0000 
     79 H         -50.9548   66.3376   17.2028 H         1 FAD799      0.0000 
     80 H         -55.2687   69.2899   25.9075 H         1 FAD799      0.0000 
     81 H         -55.1017   66.9467   27.4407 H         1 FAD799      0.0000 
     82 H         -52.9880   60.7070   20.5570 H         1 FAD799      0.0000 
     83 H         -54.3517   64.4575   19.1237 H         1 FAD799      0.0000 
     84 H         -54.7838   61.6520   22.1438 H         1 FAD799      0.0000 
@<TRIPOS>BOND
     1    2    1 ar   
     2    3    1 ar   
     3    4    1 1    
     4   53    1 1    
     5    5    4 1    
     6    6    5 1    
     7   54    5 1    
     8   55    5 1    
     9    7    6 1    
    10    8    6 1    
    11   56    6 1    
    12   12    7 1    
    13    9    8 1    
    14   10    8 1    
    15   57    8 1    
    16   80    9 1    
    17   11   10 1    
    18   12   10 1    
    19   58   10 1    
    20   81   11 1    
    21   13   12 1    
    22   59   12 1    
    23   14   13 1    
    24   22   13 1    
    25   15   14 2    
    26   60   14 1    
    27   16   15 1    
    28   17   16 ar   
    29   22   16 ar   
    30   18   17 1    
    31   19   17 ar   
    32   61   18 1    
    33   62   18 1    
    34   20   19 ar   
    35   21   20 ar   
    36   63   20 1    
    37   22   21 ar   
    38   24   23 1    
    39   40   23 2    
    40   25   24 2    
    41   26   24 am   
    42   27   26 am   
    43   64   26 1    
    44   28   27 2    
    45   29   27 1    
    46   30   29 2    
    47   40   29 1    
    48   31   30 1    
    49   32   31 ar   
    50   38   31 ar   
    51   33   32 ar   
    52   65   32 1    
    53   34   33 1    
    54   35   33 ar   
    55   74   34 1    
    56   75   34 1    
    57   76   34 1    
    58   36   35 1    
    59   37   35 ar   
    60   77   36 1    
    61   78   36 1    
    62   79   36 1    
    63   38   37 ar   
    64   66   37 1    
    65   39   38 1    
    66   40   39 1    
    67   41   39 1    
    68   42   41 1    
    69   67   41 1    
    70   68   41 1    
    71   43   42 1    
    72   44   42 1    
    73   69   42 1    
    74   82   43 1    
    75   45   44 1    
    76   46   44 1    
    77   70   44 1    
    78   83   45 1    
    79   47   46 1    
    80   48   46 1    
    81   71   46 1    
    82   84   47 1    
    83   49   48 1    
    84   72   48 1    
    85   73   48 1    
    86   50   49 1    
    87   51   50 ar   
    88   52   50 ar   
    89   53   50 1    
@<TRIPOS>SUBSTRUCTURE
     1 FAD799      1 GROUP   
@<TRIPOS>SET

