#    Name: 2oxx_K22_1_INTS_M
#    Modification time : Mon Mar 24 18:00:08 2014

@<TRIPOS>MOLECULE
2oxx_K22_1_INTS_M
   55     0     3     0     0
SMALL
NO_CHARGES


@<TRIPOS>ATOM
      1 CA         21.3055    9.4540   15.3740 C.3       1 GLC5        0.0000 
      2 CA         22.5810    8.4420   16.7820 C.3       3 GLL5        0.0000 
      3 CA         20.0300   10.4660   13.9660 C.3       2 GLP5        0.0000 
      4 CA         23.7115    9.8550   15.8685 C.3       1 GLC5        0.0000 
      5 CA         24.8420   11.2680   14.9550 C.3       2 GLP5        0.0000 
      6 CA         20.9210    7.7340   16.1135 C.3       1 GLC5        0.0000 
      7 CA         19.2610    7.0260   15.4450 C.3       2 GLP5        0.0000 
      8 CA         21.2710   11.0800   19.3695 C.3       1 GLC5        0.0000 
      9 CA         20.3270   10.0520   18.2530 C.3       3 GLL5        0.0000 
     10 CA         22.2150   12.1080   20.4860 C.3       2 GLP5        0.0000 
     11 CA         20.1785   10.2590   16.1095 C.3       1 GLC5        0.0000 
     12 CA         18.4690   10.7915   18.3385 C.3       1 GLC5        0.0000 
     13 CA         16.6110   11.5310   18.4240 C.3       2 GLP5        0.0000 
     14 CA         19.1960    8.1830   18.4930 C.3       1 GLC5        0.0000 
     15 CA         18.0650    6.3140   18.7330 C.3       2 GLP5        0.0000 
     16 CA         23.4665    8.8980   19.2310 C.3       1 GLC5        0.0000 
     17 CA         22.8050    6.7860   19.2230 C.3       3 GLL5        0.0000 
     18 CA         24.1280   11.0100   19.2390 C.3       2 GLP5        0.0000 
     19 CA         22.5925    4.8830   18.4615 C.3       1 GLC5        0.0000 
     20 CA         23.9310    5.0750   20.0330 C.3       3 GLL5        0.0000 
     21 CA         21.2540    4.6910   16.8900 C.3       2 GLP5        0.0000 
     22 CA         25.4715    3.9290   22.1820 C.3       1 GLC5        0.0000 
     23 CA         24.9650    3.7980   20.2190 C.3       3 GLL5        0.0000 
     24 CA         25.9780    4.0600   24.1450 C.3       2 GLP5        0.0000 
     25 CA         22.5705    7.7260   23.4980 C.3       1 GLC5        0.0000 
     26 CA         20.8900    6.8860   22.9370 C.3       3 GLL5        0.0000 
     27 CA         24.2510    8.5660   24.0590 C.3       2 GLP5        0.0000 
     28 CA         18.8365    6.8375   22.9600 C.3       1 GLC5        0.0000 
     29 CA         16.7830    6.7890   22.9830 C.3       2 GLP5        0.0000 
     30 CA         19.7225    6.2150   21.6140 C.3       1 GLC5        0.0000 
     31 CA         18.5550    5.5440   20.2910 C.3       2 GLP5        0.0000 
     32 CA         21.0795   10.4020   21.5730 C.3       1 GLC5        0.0000 
     33 CA         19.5750    9.2700   21.2980 C.3       3 GLL5        0.0000 
     34 CA         22.5840   11.5340   21.8480 C.3       2 GLP5        0.0000 
     35 CA         18.0435   10.1215   20.5745 C.3       1 GLC5        0.0000 
     36 CA         16.5120   10.9730   19.8510 C.3       2 GLP5        0.0000 
     37 CA         18.1790    8.0295   22.1405 C.3       1 GLC5        0.0000 
     38 CA         24.1320    7.7010   19.8612 C.3       1 GLC5        0.0000 
     39 CA         22.1910    7.8580   18.5320 C.3       3 GLL5        0.0000 
     40 CA         25.7660    8.0800   20.8450 C.3       2 GLP5        0.0000 
     41 CA         19.8835    7.2745   18.7868 C.3       1 GLC5        0.0000 
     42 CA         22.9638    9.6955   18.8210 C.3       1 GLC5        0.0000 
     43 CA         20.0155    8.1790   17.0730 C.3       1 GLC5        0.0000 
     44 CA         21.2130    8.6120   19.1490 C.3       3 GLL5        0.0000 
     45 CA         25.8055    5.4343   19.8735 C.3       1 GLC5        0.0000 
     46 CA         27.1630    6.4320   19.6210 C.3       2 GLP5        0.0000 
     47 CA         23.0900    7.7208   22.4530 C.3       1 GLC5        0.0000 
     48 CA         22.4130    6.4980   20.5400 C.3       3 GLL5        0.0000 
     49 CA         23.8475    7.4778   20.8460 C.3       1 GLC5        0.0000 
     50 CA         21.4450    7.2530   21.1540 C.3       3 GLL5        0.0000 
     51 CA         20.2420    6.2097   20.5690 C.3       1 GLC5        0.0000 
     52 CA         21.8547    5.8005   18.2994 C.3       1 GLC5        0.0000 
     53 CA         21.8717    9.6498   21.3227 C.3       1 GLC5        0.0000 
     54 CA         19.3897    7.1590   20.5802 C.3       1 GLC5        0.0000 
     55 CA         20.8740    8.2780   20.4410 C.3       3 GLL5        0.0000 
@<TRIPOS>BOND
@<TRIPOS>SUBSTRUCTURE
     1 GLC5        1 GROUP        1 X    GLC  0     ROOT GLC X 6
     2 GLP5        3 GROUP        1 Y    GLP  0     ROOT GLP Y 13
     3 GLL5        2 GROUP        1 Z    GLL  0     ROOT GLL Z 20
@<TRIPOS>SET

