#    Name: 2oxx_K22_1_ligand
#    Modification time : Mon Mar 24 18:00:08 2014

@<TRIPOS>MOLECULE
2oxx_K22_1_ligand
   16    17     1     0     0
SMALL
NO_CHARGES


@<TRIPOS>ATOM
      1 BR1        22.5810    8.4420   16.7820 Br        1 K22501      0.0000 
      2 C5         22.1910    7.8580   18.5320 C.ar      1 K22501      0.0000 
      3 C2         21.2130    8.6120   19.1490 C.ar      1 K22501      0.0000 
      4 BR2        20.3270   10.0520   18.2530 Br        1 K22501      0.0000 
      5 C7         22.8050    6.7860   19.2230 C.ar      1 K22501      0.0000 
      6 N14        23.7590    5.8770   18.9430 N.am      1 K22501      0.0000 
      7 C13        23.9310    5.0750   20.0330 C.2       1 K22501      0.0000 
      8 S10        24.9650    3.7980   20.2190 S.2       1 K22501      0.0000 
      9 N6         23.1030    5.4640   21.0070 N.am      1 K22501      0.0000 
     10 C8         22.4130    6.4980   20.5400 C.ar      1 K22501      0.0000 
     11 C4         21.4450    7.2530   21.1540 C.ar      1 K22501      0.0000 
     12 BR4        20.8900    6.8860   22.9370 Br        1 K22501      0.0000 
     13 C3         20.8740    8.2780   20.4410 C.ar      1 K22501      0.0000 
     14 BR3        19.5750    9.2700   21.2980 Br        1 K22501      0.0000 
     15 H          24.2451    5.7982   18.1133 H         1 K22501      0.0000 
     16 H          23.0251    5.0662   21.8811 H         1 K22501      0.0000 
@<TRIPOS>BOND
     1    2    1 1    
     2    3    2 ar   
     3    5    2 ar   
     4    4    3 1    
     5   13    3 ar   
     6    6    5 1    
     7   10    5 ar   
     8    7    6 am   
     9   15    6 1    
    10    8    7 2    
    11    9    7 am   
    12   10    9 1    
    13   16    9 1    
    14   11   10 ar   
    15   12   11 1    
    16   13   11 ar   
    17   14   13 1    
@<TRIPOS>SUBSTRUCTURE
     1 K22501      1 GROUP   
@<TRIPOS>SET

