#    Name: 2ido_TMP_2_INTS_M
#    Modification time : Tue Mar 25 17:39:06 2014

@<TRIPOS>MOLECULE
2ido_TMP_2_INTS_M
   43     0    12     0     0
SMALL
NO_CHARGES


@<TRIPOS>ATOM
      1 Zn         14.1320   55.5820    7.9315 Zn        3 ZIC7        0.0000 
      2 Zn         15.1930   55.0570    7.9830 Zn       11 ZIL7        0.0000 
      3 Zn         13.0710   56.1070    7.8800 Zn        7 ZIP7        0.0000 
      4 Zn         14.6125   57.9175    6.0620 Zn        3 ZIC7        0.0000 
      5 Zn         14.7910   57.2090    6.7280 Zn       11 ZIL7        0.0000 
      6 Zn         14.4340   58.6260    5.3960 Zn        7 ZIP7        0.0000 
      7 Zn         13.9310   56.6580    7.3040 Zn        3 ZIC7        0.0000 
      8 CA         15.9180   57.3415   10.8145 C.3       4 GLC5        0.0000 
      9 CA         16.5550   57.8070    9.0440 C.3      12 GLL5        0.0000 
     10 CA         15.2810   56.8760   12.5850 C.3       8 GLP5        0.0000 
     11 CA         17.1545   57.4720   11.4795 C.3       4 GLC5        0.0000 
     12 CA         17.7520   58.2480    9.8560 C.3      12 GLL5        0.0000 
     13 CA         16.5570   56.6960   13.1030 C.3       8 GLP5        0.0000 
     14 CA         19.4740   58.3765    7.1600 C.3       4 GLC5        0.0000 
     15 CA         18.8350   58.9860    9.0830 C.3      12 GLL5        0.0000 
     16 CA         20.1130   57.7670    5.2370 C.3       8 GLP5        0.0000 
     17 N          18.0015   61.1915    9.9855 N.am      2 SEC2        0.0000 
     18 N          18.5210   60.3720    8.9190 N.am     10 SEL2        0.0000 
     19 N          17.4820   62.0110   11.0520 N.am      6 SEP2        0.0000 
     20 O          17.7320   60.4625    7.8135 O.2       1 ALC1        0.0000 
     21 O          18.5210   60.3720    8.9190 O.2       9 ALL1        0.0000 
     22 O          16.9430   60.5530    6.7080 O.2       5 ALP1        0.0000 
     23 CA         21.1480   59.2160   11.8680 C.3       4 GLC5        0.0000 
     24 CA         20.0340   58.8230    9.9950 C.3      12 GLL5        0.0000 
     25 CA         22.2620   59.6090   13.7410 C.3       8 GLP5        0.0000 
     26 CA         21.6985   59.9325   10.0885 C.3       4 GLC5        0.0000 
     27 CA         23.3630   61.0420   10.1820 C.3       8 GLP5        0.0000 
     28 CA         20.1245   55.7495   11.9175 C.3       4 GLC5        0.0000 
     29 CA         19.8150   57.4320   10.5910 C.3      12 GLL5        0.0000 
     30 CA         20.4340   54.0670   13.2440 C.3       8 GLP5        0.0000 
     31 CA         18.1860   57.0640   11.8470 C.3       4 GLC5        0.0000 
     32 O          24.0185   54.9240   10.0215 O.2       1 ALC1        0.0000 
     33 O          22.6900   55.3790    9.5650 O.2       9 ALL1        0.0000 
     34 O          25.3470   54.4690   10.4780 O.2       5 ALP1        0.0000 
     35 CA         20.2555   54.7775   11.1355 C.3       4 GLC5        0.0000 
     36 CA         20.0770   55.4880    9.0270 C.3      12 GLL5        0.0000 
     37 CA         16.8976   60.3059    9.2792 C.3       4 GLC5        0.0000 
     38 CA         15.8010   62.1050    9.2920 C.3       8 GLP5        0.0000 
     39 CA         19.9078   60.6907    8.7200 C.3       4 GLC5        0.0000 
     40 CA         20.3810   62.4770    7.9010 C.3       8 GLP5        0.0000 
     41 CA         21.3309   55.8990    7.2179 C.3       4 GLC5        0.0000 
     42 CA         20.7840   54.5460    8.3870 C.3      12 GLL5        0.0000 
     43 CA         22.3840   57.0170    5.9760 C.3       8 GLP5        0.0000 
@<TRIPOS>BOND
@<TRIPOS>SUBSTRUCTURE
     1 ALC1       20 GROUP        1 X    ALC  0     ROOT ALC X 1
     2 SEC2       17 GROUP        1 X    SEC  0     **** SEC X 2
     3 ZIC7        1 GROUP        1 X    ZIC  0     **** ZIC X 5
     4 GLC5        8 GROUP        1 X    GLC  0     **** GLC X 6
     5 ALP1       22 GROUP        1 Y    ALP  0     ROOT ALP Y 8
     6 SEP2       19 GROUP        1 Y    SEP  0     **** SEP Y 9
     7 ZIP7        3 GROUP        1 Y    ZIP  0     **** ZIP Y 12
     8 GLP5       10 GROUP        1 Y    GLP  0     **** GLP Y 13
     9 ALL1       21 GROUP        1 Z    ALL  0     ROOT ALL Z 15
    10 SEL2       18 GROUP        1 Z    SEL  0     **** SEL Z 16
    11 ZIL7        2 GROUP        1 Z    ZIL  0     **** ZIL Z 19
    12 GLL5        9 GROUP        1 Z    GLL  0     **** GLL Z 20
@<TRIPOS>SET

