#    Name: 2ido_TMP_2_ligand
#    Modification time : Tue Mar 25 17:39:06 2014

@<TRIPOS>MOLECULE
2ido_TMP_2_ligand
   34    35     1     0     0
SMALL
NO_CHARGES


@<TRIPOS>ATOM
      1 P          15.8050   56.1330    7.1060 P.3       1 TMP2002     0.0000 
      2 O1P        15.1930   55.0570    7.9830 O.co2     1 TMP2002     0.0000 
      3 O2P        16.5380   55.5780    5.9070 O.co2     1 TMP2002     0.0000 
      4 O3P        14.7910   57.2090    6.7280 O.co2     1 TMP2002     0.0000 
      5 O5'        16.9400   56.8700    8.0160 O.3       1 TMP2002     0.0000 
      6 C5'        16.5550   57.8070    9.0440 C.3       1 TMP2002     0.0000 
      7 C4'        17.7520   58.2480    9.8560 C.3       1 TMP2002     0.0000 
      8 O4'        18.4320   57.1120   10.4270 O.3       1 TMP2002     0.0000 
      9 C3'        18.8350   58.9860    9.0830 C.3       1 TMP2002     0.0000 
     10 O3'        18.5210   60.3720    8.9190 O.3       1 TMP2002     0.0000 
     11 C2'        20.0340   58.8230    9.9950 C.3       1 TMP2002     0.0000 
     12 C1'        19.8150   57.4320   10.5910 C.3       1 TMP2002     0.0000 
     13 N1         20.6320   56.3890    9.9200 N.am      1 TMP2002     0.0000 
     14 C2         21.9880   56.3590   10.2170 C.2       1 TMP2002     0.0000 
     15 O2         22.5360   57.1330   10.9880 O.2       1 TMP2002     0.0000 
     16 N3         22.6900   55.3790    9.5650 N.am      1 TMP2002     0.0000 
     17 C4         22.2010   54.4540    8.6580 C.2       1 TMP2002     0.0000 
     18 O4         22.9640   53.6350    8.1450 O.2       1 TMP2002     0.0000 
     19 C5         20.7840   54.5460    8.3870 C.2       1 TMP2002     0.0000 
     20 C5M        20.1730   53.6020    7.3980 C.3       1 TMP2002     0.0000 
     21 C6         20.0770   55.4880    9.0270 C.2       1 TMP2002     0.0000 
     22 H          15.8188   57.3594    9.7304 H         1 TMP2002     0.0000 
     23 H          16.0865   58.7028    8.6063 H         1 TMP2002     0.0000 
     24 H          17.4238   58.9006   10.6645 H         1 TMP2002     0.0000 
     25 H          19.0226   58.4710    8.1861 H         1 TMP2002     0.0000 
     26 H          20.0089   59.5475   10.7646 H         1 TMP2002     0.0000 
     27 H          20.9271   58.8308    9.4293 H         1 TMP2002     0.0000 
     28 H          20.0654   57.4751   11.6393 H         1 TMP2002     0.0000 
     29 H          23.7519   55.3164    9.7809 H         1 TMP2002     0.0000 
     30 H          19.0313   55.5623    8.8516 H         1 TMP2002     0.0000 
     31 H          20.5868   53.6939    6.4923 H         1 TMP2002     0.0000 
     32 H          20.2859   52.6482    7.6763 H         1 TMP2002     0.0000 
     33 H          19.1918   53.7615    7.2896 H         1 TMP2002     0.0000 
     34 H          17.9649   60.4148    8.0890 H         1 TMP2002     0.0000 
@<TRIPOS>BOND
     1    2    1 ar   
     2    3    1 ar   
     3    4    1 ar   
     4    5    1 1    
     5    6    5 1    
     6    7    6 1    
     7   22    6 1    
     8   23    6 1    
     9    8    7 1    
    10    9    7 1    
    11   24    7 1    
    12   12    8 1    
    13   10    9 1    
    14   11    9 1    
    15   25    9 1    
    16   34   10 1    
    17   12   11 1    
    18   26   11 1    
    19   27   11 1    
    20   13   12 1    
    21   28   12 1    
    22   14   13 am   
    23   21   13 1    
    24   15   14 2    
    25   16   14 1    
    26   17   16 am   
    27   29   16 1    
    28   18   17 2    
    29   19   17 1    
    30   20   19 1    
    31   21   19 2    
    32   31   20 1    
    33   32   20 1    
    34   33   20 1    
    35   30   21 1    
@<TRIPOS>SUBSTRUCTURE
     1 TMP2002     1 GROUP   
@<TRIPOS>SET

