#    Name: 3zhs_TD6_2_INTS_M
#    Modification time : Tue Mar 25 03:06:21 2014

@<TRIPOS>MOLECULE
3zhs_TD6_2_INTS_M
  103     0    15     0     0
SMALL
NO_CHARGES


@<TRIPOS>ATOM
      1 CA          2.8495  -17.9385  -41.9855 C.3       5 GLC5        0.0000 
      2 CA          3.6880  -16.3650  -42.9920 C.3      15 GLL5        0.0000 
      3 CA          2.0110  -19.5120  -40.9790 C.3      10 GLP5        0.0000 
      4 CA          5.9085  -19.4255  -38.6040 C.3       5 GLC5        0.0000 
      5 CA          7.4260  -18.6290  -39.1340 C.3      15 GLL5        0.0000 
      6 CA          4.3910  -20.2220  -38.0740 C.3      10 GLP5        0.0000 
      7 CA          6.6375  -20.0320  -40.4010 C.3       5 GLC5        0.0000 
      8 CA          5.8490  -21.4350  -41.6680 C.3      10 GLP5        0.0000 
      9 N           2.3705  -12.9380  -46.9350 N.am      2 SEC2        0.0000 
     10 N           3.2430  -14.1450  -47.0710 N.am     12 SEL2        0.0000 
     11 N           1.4980  -11.7310  -46.7990 N.am      7 SEP2        0.0000 
     12 Zn          2.1340  -18.2260  -48.2070 Zn        4 ZIC7        0.0000 
     13 Zn          2.9080  -18.6920  -47.7140 Zn       14 ZIL7        0.0000 
     14 Zn          1.3600  -17.7600  -48.7000 Zn        9 ZIP7        0.0000 
     15 N           2.9070  -19.6410  -48.9075 N.am      2 SEC2        0.0000 
     16 N           2.9080  -18.6920  -47.7140 N.am     12 SEL2        0.0000 
     17 N           2.9060  -20.5900  -50.1010 N.am      7 SEP2        0.0000 
     18 CA          7.1655   -9.7625  -38.4555 C.3       5 GLC5        0.0000 
     19 CA          6.7340  -10.0380  -40.5640 C.3      15 GLL5        0.0000 
     20 CA          7.5970   -9.4870  -36.3470 C.3      10 GLP5        0.0000 
     21 CA          6.9480  -10.4080  -42.7545 C.3       5 GLC5        0.0000 
     22 CA          7.1620  -10.7780  -44.9450 C.3      10 GLP5        0.0000 
     23 Zn          1.4945  -16.9225  -48.0555 Zn        4 ZIC7        0.0000 
     24 Zn          1.6290  -16.0850  -47.4110 Zn       14 ZIL7        0.0000 
     25 N           0.7530  -14.8835  -47.7255 N.am      2 SEC2        0.0000 
     26 N           1.6290  -16.0850  -47.4110 N.am     12 SEL2        0.0000 
     27 N          -0.1230  -13.6820  -48.0400 N.am      7 SEP2        0.0000 
     28 NZ          5.8100  -19.4035  -49.0080 N.4       3 LYC4        0.0000 
     29 NZ          5.1620  -18.2000  -48.8650 N.4      13 LYL4        0.0000 
     30 NZ          6.4970  -21.5010  -48.1670 N.4       8 LYP4        0.0000 
     31 N           5.8100  -19.4035  -49.0080 N.am      2 SEC2        0.0000 
     32 N           5.1620  -18.2000  -48.8650 N.am     12 SEL2        0.0000 
     33 N           6.4580  -20.6070  -49.1510 N.am      7 SEP2        0.0000 
     34 N           3.9650  -17.7125  -49.4825 N.am      2 SEC2        0.0000 
     35 N           2.7680  -17.2250  -50.1000 N.am      7 SEP2        0.0000 
     36 N           8.3265  -10.2765  -42.3750 N.am      2 SEC2        0.0000 
     37 N           7.6660  -10.8340  -41.0880 N.am     12 SEL2        0.0000 
     38 N           8.9870   -9.7190  -43.6620 N.am      7 SEP2        0.0000 
     39 NZ          5.4715  -19.8665  -46.6215 N.4       3 LYC4        0.0000 
     40 NZ          4.9560  -18.5210  -46.2660 N.4      13 LYL4        0.0000 
     41 N           5.4715  -19.8665  -46.6215 N.am      2 SEC2        0.0000 
     42 N           4.9560  -18.5210  -46.2660 N.am     12 SEL2        0.0000 
     43 N           5.9870  -21.2120  -46.9770 N.am      7 SEP2        0.0000 
     44 CA          9.1245  -10.5970  -41.3770 C.3       5 GLC5        0.0000 
     45 CA          7.6650  -12.1290  -40.7220 C.3      15 GLL5        0.0000 
     46 CA         10.5840   -9.0650  -42.0320 C.3      10 GLP5        0.0000 
     47 CA          7.5595  -12.1765  -42.6070 C.3       5 GLC5        0.0000 
     48 CA          7.4540  -12.2240  -44.4920 C.3      10 GLP5        0.0000 
     49 O           9.6825  -12.3960  -41.8635 O.2       1 ALC1        0.0000 
     50 O           8.6980  -12.8630  -41.1350 O.2      11 ALL1        0.0000 
     51 O          10.6670  -11.9290  -42.5920 O.2       6 ALP1        0.0000 
     52 CA          6.4280  -12.7995  -42.0105 C.3       5 GLC5        0.0000 
     53 CA          6.6700  -12.6390  -39.8320 C.3      15 GLL5        0.0000 
     54 CA          6.1860  -12.9600  -44.1890 C.3      10 GLP5        0.0000 
     55 CA          4.4155  -11.2655  -40.6875 C.3       5 GLC5        0.0000 
     56 CA          5.7640  -11.7120  -39.3710 C.3      15 GLL5        0.0000 
     57 CA          3.0670  -10.8190  -42.0040 C.3      10 GLP5        0.0000 
     58 CA          6.6805  -10.5995  -37.8590 C.3       5 GLC5        0.0000 
     59 CA          5.9230  -14.9895  -37.7730 C.3       5 GLC5        0.0000 
     60 CA          6.5390  -14.0740  -39.3850 C.3      15 GLL5        0.0000 
     61 CA          5.3070  -15.9050  -36.1610 C.3      10 GLP5        0.0000 
     62 CA          7.8155  -13.4960  -38.2505 C.3       5 GLC5        0.0000 
     63 CA          9.0920  -12.9180  -37.1160 C.3      10 GLP5        0.0000 
     64 N          10.3535  -15.7455  -39.1340 N.am      2 SEC2        0.0000 
     65 N           9.2780  -15.4750  -40.0280 N.am     12 SEL2        0.0000 
     66 N          11.4290  -16.0160  -38.2400 N.am      7 SEP2        0.0000 
     67 N           7.2855  -20.0085  -41.5930 N.am      2 SEC2        0.0000 
     68 N           8.4940  -19.8010  -40.9240 N.am     12 SEL2        0.0000 
     69 N           6.0770  -20.2160  -42.2620 N.am      7 SEP2        0.0000 
     70 N           8.5835  -19.8240  -42.1925 N.am      2 SEC2        0.0000 
     71 N           8.6730  -19.8470  -43.4610 N.am      7 SEP2        0.0000 
     72 NZ         10.4965  -21.5385  -38.9495 N.4       3 LYC4        0.0000 
     73 NZ          8.9060  -20.4220  -38.8420 N.4      13 LYL4        0.0000 
     74 NZ         12.0870  -22.6550  -39.0570 N.4       8 LYP4        0.0000 
     75 N           8.2180  -21.8495  -38.6505 N.am      2 SEC2        0.0000 
     76 N           8.9060  -20.4220  -38.8420 N.am     12 SEL2        0.0000 
     77 N           7.5300  -23.2770  -38.4590 N.am      7 SEP2        0.0000 
     78 CA          6.6900  -16.5765  -37.6035 C.3       5 GLC5        0.0000 
     79 CA          8.0730  -17.2480  -39.0460 C.3      15 GLL5        0.0000 
     80 CA          9.8460  -16.7465  -37.9735 C.3       5 GLC5        0.0000 
     81 CA         11.6190  -16.2450  -36.9010 C.3      10 GLP5        0.0000 
     82 CA          8.0245   -9.4580  -39.5080 C.3       5 GLC5        0.0000 
     83 CA          6.7380   -8.6100  -41.0000 C.3      15 GLL5        0.0000 
     84 CA          9.3110  -10.3060  -38.0160 C.3      10 GLP5        0.0000 
     85 CA          7.5555   -9.2205  -42.9910 C.3       5 GLC5        0.0000 
     86 CA          8.3730   -9.8310  -44.9820 C.3      10 GLP5        0.0000 
     87 CA          2.2175  -13.4970  -39.1985 C.3       5 GLC5        0.0000 
     88 CA          3.7110  -14.2920  -40.6810 C.3      15 GLL5        0.0000 
     89 CA          0.7240  -12.7020  -37.7160 C.3      10 GLP5        0.0000 
     90 CA          5.9108  -14.6750  -43.2188 C.3       5 GLC5        0.0000 
     91 CA          4.9020  -16.0030  -42.1700 C.3      15 GLL5        0.0000 
     92 CA          5.2492  -13.8178  -42.5470 C.3       5 GLC5        0.0000 
     93 CA          3.0488  -14.4817  -43.5212 C.3       5 GLC5        0.0000 
     94 CA          2.2790  -12.8140  -43.3380 C.3      10 GLP5        0.0000 
     95 CA          5.0023  -14.5547  -43.9467 C.3       5 GLC5        0.0000 
     96 CA          3.9490  -15.9340  -44.4170 C.3      15 GLL5        0.0000 
     97 CA          1.8702  -16.9712  -44.1492 C.3       5 GLC5        0.0000 
     98 CA         -0.0780  -17.7930  -44.5940 C.3      10 GLP5        0.0000 
     99 CA          8.3042  -17.8143  -37.1420 C.3       5 GLC5        0.0000 
    100 CA          8.8590  -17.6900  -35.1940 C.3      10 GLP5        0.0000 
    101 CA          4.9015  -10.0715  -41.3930 C.3       5 GLC5        0.0000 
    102 CA          8.6600   -9.1945  -41.4070 C.3       5 GLC5        0.0000 
    103 CA          3.2942  -13.8628  -42.2516 C.3       5 GLC5        0.0000 
@<TRIPOS>BOND
@<TRIPOS>SUBSTRUCTURE
     1 ALC1       49 GROUP        1 X    ALC  0     ROOT ALC X 1
     2 SEC2        9 GROUP        1 X    SEC  0     **** SEC X 2
     3 LYC4       28 GROUP        1 X    LYC  0     **** LYC X 4
     4 ZIC7       12 GROUP        1 X    ZIC  0     **** ZIC X 5
     5 GLC5        1 GROUP        1 X    GLC  0     **** GLC X 6
     6 ALP1       51 GROUP        1 Y    ALP  0     ROOT ALP Y 8
     7 SEP2       11 GROUP        1 Y    SEP  0     **** SEP Y 9
     8 LYP4       30 GROUP        1 Y    LYP  0     **** LYP Y 11
     9 ZIP7       14 GROUP        1 Y    ZIP  0     **** ZIP Y 12
    10 GLP5        3 GROUP        1 Y    GLP  0     **** GLP Y 13
    11 ALL1       50 GROUP        1 Z    ALL  0     ROOT ALL Z 15
    12 SEL2       10 GROUP        1 Z    SEL  0     **** SEL Z 16
    13 LYL4       29 GROUP        1 Z    LYL  0     **** LYL Z 18
    14 ZIL7       13 GROUP        1 Z    ZIL  0     **** ZIL Z 19
    15 GLL5        2 GROUP        1 Z    GLL  0     **** GLL Z 20
@<TRIPOS>SET

