#    Name: 3zhs_TD6_2_ligand
#    Modification time : Tue Mar 25 03:06:21 2014

@<TRIPOS>MOLECULE
3zhs_TD6_2_ligand
   54    55     1     0     0
SMALL
NO_CHARGES


@<TRIPOS>ATOM
      1 S1          6.3690  -16.7770  -42.3270 S.3       1 TD62001     0.0000 
      2 C2          7.0680  -16.0060  -41.0390 C.2       1 TD62001     0.0000 
      3 N3          6.1360  -14.9940  -40.4600 N.2       1 TD62001     0.0000 
      4 C4          4.9140  -15.0590  -41.1290 C.2       1 TD62001     0.0000 
      5 C5          4.9020  -16.0030  -42.1700 C.2       1 TD62001     0.0000 
      6 C6          3.6880  -16.3650  -42.9920 C.3       1 TD62001     0.0000 
      7 C7          3.9490  -15.9340  -44.4170 C.3       1 TD62001     0.0000 
      8 O7          2.7700  -16.0250  -45.2600 O.3       1 TD62001     0.0000 
      9 PA          2.9120  -15.5580  -46.7630 P.3       1 TD62001     0.0000 
     10 PB          4.3220  -18.0580  -47.6710 P.3       1 TD62001     0.0000 
     11 N1'         5.7690  -10.4150  -39.7110 N.ar      1 TD62001     0.0000 
     12 C11         8.3640  -16.5150  -40.3550 C.3       1 TD62001     0.0000 
     13 C13         7.4260  -18.6290  -39.1340 C.3       1 TD62001     0.0000 
     14 O1A         3.2430  -14.1450  -47.0710 O.co2     1 TD62001     0.0000 
     15 O1B         2.9080  -18.6920  -47.7140 O.co2     1 TD62001     0.0000 
     16 C2'         6.7340  -10.0380  -40.5640 C.ar      1 TD62001     0.0000 
     17 O2A         1.6290  -16.0850  -47.4110 O.co2     1 TD62001     0.0000 
     18 O2B         5.1620  -18.2000  -48.8650 O.co2     1 TD62001     0.0000 
     19 N3'         7.6660  -10.8340  -41.0880 N.ar      1 TD62001     0.0000 
     20 O3A         3.8640  -16.6460  -47.3060 O.3       1 TD62001     0.0000 
     21 O3B         4.9560  -18.5210  -46.2660 O.co2     1 TD62001     0.0000 
     22 C4'         7.6650  -12.1290  -40.7220 C.ar      1 TD62001     0.0000 
     23 N4'         8.6980  -12.8630  -41.1350 N.pl3     1 TD62001     0.0000 
     24 C5'         6.6700  -12.6390  -39.8320 C.ar      1 TD62001     0.0000 
     25 C6'         5.7640  -11.7120  -39.3710 C.ar      1 TD62001     0.0000 
     26 C7'         6.5390  -14.0740  -39.3850 C.3       1 TD62001     0.0000 
     27 OL1         9.2780  -15.4750  -40.0280 O.3       1 TD62001     0.0000 
     28 OL2         8.4940  -19.8010  -40.9240 O.co2     1 TD62001     0.0000 
     29 OL3         8.9060  -20.4220  -38.8420 O.co2     1 TD62001     0.0000 
     30 CLB         8.0730  -17.2480  -39.0460 C.3       1 TD62001     0.0000 
     31 CLC         8.3270  -19.6730  -39.7290 C.2       1 TD62001     0.0000 
     32 CM2         6.7380   -8.6100  -41.0000 C.3       1 TD62001     0.0000 
     33 CM4         3.7110  -14.2920  -40.6810 C.3       1 TD62001     0.0000 
     34 H           2.8210  -15.8473  -42.6088 H         1 TD62001     0.0000 
     35 H           3.5306  -17.4330  -42.9585 H         1 TD62001     0.0000 
     36 H           4.7672  -16.5608  -44.8237 H         1 TD62001     0.0000 
     37 H           4.3352  -14.8956  -44.3992 H         1 TD62001     0.0000 
     38 H           8.8357  -17.2390  -41.0233 H         1 TD62001     0.0000 
     39 H           6.5059  -18.5480  -39.7364 H         1 TD62001     0.0000 
     40 H           7.1200  -18.9387  -38.1208 H         1 TD62001     0.0000 
     41 H           8.9910  -13.5954  -40.5204 H         1 TD62001     0.0000 
     42 H           9.0871  -12.6152  -42.0223 H         1 TD62001     0.0000 
     43 H           5.0114  -12.0632  -38.6975 H         1 TD62001     0.0000 
     44 H           7.5086  -14.3976  -38.9532 H         1 TD62001     0.0000 
     45 H           5.8049  -14.1177  -38.5541 H         1 TD62001     0.0000 
     46 H           7.4247  -16.5931  -38.4106 H         1 TD62001     0.0000 
     47 H           9.0298  -17.3412  -38.4727 H         1 TD62001     0.0000 
     48 H           6.8409   -7.9856  -40.2257 H         1 TD62001     0.0000 
     49 H           7.4873   -8.4172  -41.6336 H         1 TD62001     0.0000 
     50 H           5.8888   -8.3616  -41.4660 H         1 TD62001     0.0000 
     51 H           3.4343  -14.5436  -39.7536 H         1 TD62001     0.0000 
     52 H           3.8784  -13.3061  -40.6796 H         1 TD62001     0.0000 
     53 H           2.9240  -14.4548  -41.2760 H         1 TD62001     0.0000 
     54 H           9.9723  -15.5052  -40.7470 H         1 TD62001     0.0000 
@<TRIPOS>BOND
     1    2    1 1    
     2    5    1 1    
     3    3    2 2    
     4   12    2 1    
     5    4    3 1    
     6   26    3 1    
     7    5    4 2    
     8   33    4 1    
     9    6    5 1    
    10    7    6 1    
    11   34    6 1    
    12   35    6 1    
    13    8    7 1    
    14   36    7 1    
    15   37    7 1    
    16    9    8 1    
    17   14    9 ar   
    18   17    9 ar   
    19   20    9 1    
    20   15   10 ar   
    21   18   10 ar   
    22   20   10 1    
    23   21   10 ar   
    24   16   11 ar   
    25   25   11 ar   
    26   27   12 1    
    27   30   12 1    
    28   38   12 1    
    29   30   13 1    
    30   31   13 1    
    31   39   13 1    
    32   40   13 1    
    33   19   16 ar   
    34   32   16 1    
    35   22   19 ar   
    36   23   22 1    
    37   24   22 ar   
    38   41   23 1    
    39   42   23 1    
    40   25   24 ar   
    41   26   24 1    
    42   43   25 1    
    43   44   26 1    
    44   45   26 1    
    45   54   27 1    
    46   31   28 ar   
    47   31   29 ar   
    48   46   30 1    
    49   47   30 1    
    50   48   32 1    
    51   49   32 1    
    52   50   32 1    
    53   51   33 1    
    54   52   33 1    
    55   53   33 1    
@<TRIPOS>SUBSTRUCTURE
     1 TD62001     1 GROUP   
@<TRIPOS>SET

