#    Name: 1A9S_1_CAVITY_N1_6.mol2
#    Modification time : Mon Mar 10 12:50:58 2014

@<TRIPOS>MOLECULE
1A9S_1_CAVITY_N1_6.mol2
   75     0     5     0     0
SMALL
NO_CHARGES


@<TRIPOS>ATOM
      1 CZ         25.4658   88.9214   81.5746 C.ar      3 PHE5        0.0000 
      2 CZ         23.9730   90.2397   80.8440 C.ar      3 PHE5        0.0000 
      3 CA         23.4306   88.6050   82.0824 C.3       4 GLY6        0.0000 
      4 CZ         24.1924   88.7565   80.7992 C.ar      3 PHE5        0.0000 
      5 N          24.4118   87.2733   80.7544 N.2       2 ALA2        0.0000 
      6 CA         22.6996   90.0747   80.0686 C.3       4 GLY6        0.0000 
      7 CA         21.3954   88.2885   82.5902 C.3       4 GLY6        0.0000 
      8 CA         22.1572   88.4400   81.3070 C.3       4 GLY6        0.0000 
      9 CZ         22.9190   88.5915   80.0237 C.ar      3 PHE5        0.0000 
     10 CZ         23.6808   88.7430   78.7405 C.ar      3 PHE5        0.0000 
     11 N          22.3766   86.9568   81.2621 N.2       2 ALA2        0.0000 
     12 N          23.1385   87.1083   79.9789 N.2       2 ALA2        0.0000 
     13 O          21.9686   91.5444   78.0547 O.2       2 ALA2        0.0000 
     14 CA         22.7304   91.6959   76.7715 C.3       4 GLY6        0.0000 
     15 CZ         23.4922   91.8474   75.4883 C.ar      3 PHE5        0.0000 
     16 CZ         24.2540   91.9989   74.2050 C.ar      3 PHE5        0.0000 
     17 O          21.4262   89.9097   79.2931 O.2       2 ALA2        0.0000 
     18 CZ         22.1880   90.0612   78.0099 C.ar      3 PHE5        0.0000 
     19 CZ         22.9498   90.2127   76.7267 C.ar      3 PHE5        0.0000 
     20 CZ         24.4735   90.5157   74.1602 C.ar      3 PHE5        0.0000 
     21 N          25.2353   90.6672   72.8770 N.2       2 ALA2        0.0000 
     22 CA         20.1220   88.1236   81.8148 C.3       4 GLY6        0.0000 
     23 O          20.8838   88.2751   80.5315 O.2       2 ALA2        0.0000 
     24 O          21.6456   88.4265   79.2483 O.2       2 ALA2        0.0000 
     25 CZ         22.4075   88.5780   77.9651 C.ar      3 PHE5        0.0000 
     26 CA         23.1693   88.7295   76.6818 C.3       4 GLY6        0.0000 
     27 CA         23.9311   88.8810   75.3986 C.3       4 GLY6        0.0000 
     28 CA         24.6929   89.0325   74.1154 C.3       4 GLY6        0.0000 
     29 DU         20.3415   86.6404   81.7699 H         5 CUB7        0.0000 
     30 DU         21.1033   86.7919   80.4867 H         5 CUB7        0.0000 
     31 N          21.8651   86.9434   79.2035 N.2       2 ALA2        0.0000 
     32 CA         22.6269   87.0949   77.9202 C.3       4 GLY6        0.0000 
     33 CA         21.3227   85.3087   80.4419 C.3       4 GLY6        0.0000 
     34 N          22.0845   85.4602   79.1587 N.2       2 ALA2        0.0000 
     35 O          20.6952   91.3795   77.2793 O.2       2 ALA2        0.0000 
     36 CA         21.4570   91.5310   75.9961 C.3       4 GLY6        0.0000 
     37 N          22.2188   91.6824   74.7128 N.2       2 ALA2        0.0000 
     38 O          22.9806   91.8339   73.4296 O.2       2 ALA2        0.0000 
     39 O          20.1528   89.7448   78.5177 O.2       2 ALA2        0.0000 
     40 O          20.9146   89.8963   77.2345 O.2       2 ALA2        0.0000 
     41 CZ         21.6765   90.0478   75.9512 C.ar      3 PHE5        0.0000 
     42 CZ         22.4383   90.1993   74.6680 C.ar      3 PHE5        0.0000 
     43 N          23.2001   90.3508   73.3848 N.2       2 ALA2        0.0000 
     44 OG         19.6105   88.1101   79.7561 O.2       1 SER1        0.0000 
     45 OG         20.3723   88.2616   78.4729 O.2       1 SER1        0.0000 
     46 CA         21.1341   88.4131   77.1896 C.3       4 GLY6        0.0000 
     47 CA         21.8959   88.5646   75.9064 C.3       4 GLY6        0.0000 
     48 CA         22.6577   88.7161   74.6232 C.3       4 GLY6        0.0000 
     49 CA         23.4195   88.8676   73.3399 C.3       4 GLY6        0.0000 
     50 CZ         19.0681   86.4754   80.9945 C.ar      3 PHE5        0.0000 
     51 OG         19.8299   86.6269   79.7113 O.2       1 SER1        0.0000 
     52 OG         20.5917   86.7784   78.4280 O.2       1 SER1        0.0000 
     53 OG         19.4218   91.2145   76.5039 O.2       1 SER1        0.0000 
     54 N          20.1836   91.3660   75.2206 N.2       2 ALA2        0.0000 
     55 OG         18.8794   89.5798   77.7423 O.2       1 SER1        0.0000 
     56 OG         19.6413   89.7313   76.4590 O.2       1 SER1        0.0000 
     57 N          20.4031   89.8828   75.1758 N.2       2 ALA2        0.0000 
     58 N          21.1649   90.0343   73.8926 N.2       2 ALA2        0.0000 
     59 N          21.9267   90.1858   72.6093 N.2       2 ALA2        0.0000 
     60 OG         19.8607   88.2481   76.4142 O.2       1 SER1        0.0000 
     61 CA         20.6225   88.3996   75.1310 C.3       4 GLY6        0.0000 
     62 O          21.3843   88.5511   73.8477 O.2       2 ALA2        0.0000 
     63 CZ         20.0801   86.7649   76.3694 C.ar      3 PHE5        0.0000 
     64 N          18.9103   91.2010   74.4452 N.2       2 ALA2        0.0000 
     65 OG         18.3679   89.5663   75.6836 O.2       1 SER1        0.0000 
     66 N          19.1297   89.7178   74.4004 N.2       2 ALA2        0.0000 
     67 OG         18.5873   88.0832   75.6388 O.2       1 SER1        0.0000 
     68 CA         19.3491   88.2347   74.3555 C.3       4 GLY6        0.0000 
     69 O          20.1109   88.3862   73.0723 O.2       2 ALA2        0.0000 
     70 O          17.6369   91.0361   73.6698 O.2       2 ALA2        0.0000 
     71 OG         17.0945   89.4014   74.9082 O.2       1 SER1        0.0000 
     72 N          17.8563   89.5529   73.6249 N.2       2 ALA2        0.0000 
     73 N          18.6181   89.7044   72.3417 N.2       2 ALA2        0.0000 
     74 OG         18.0758   88.0697   73.5801 O.2       1 SER1        0.0000 
     75 O          18.8376   88.2212   72.2969 O.2       2 ALA2        0.0000 
@<TRIPOS>BOND
@<TRIPOS>SUBSTRUCTURE
     1 SER1       44 GROUP   
     2 ALA2        5 GROUP   
     3 PHE5        1 GROUP   
     4 GLY6        3 GROUP   
     5 CUB7       29 GROUP   
@<TRIPOS>SET

