#    Name: 1a9s_NOS_1_INTS_M
#    Modification time : Mon Mar 24 18:08:41 2014

@<TRIPOS>MOLECULE
1a9s_NOS_1_INTS_M
   48     0     9     0     0
SMALL
NO_CHARGES


@<TRIPOS>ATOM
      1 CA         22.7175   89.2540   71.9410 C.3       3 GLC5        0.0000 
      2 CA         23.3300   90.3440   73.7130 C.3       9 GLL5        0.0000 
      3 CA         22.1050   88.1640   70.1690 C.3       6 GLP5        0.0000 
      4 CA         25.5525   88.2470   71.1680 C.3       3 GLC5        0.0000 
      5 CA         24.8640   88.8270   73.1390 C.3       9 GLL5        0.0000 
      6 CA         26.2410   87.6670   69.1970 C.3       6 GLP5        0.0000 
      7 CA         23.4845   88.4955   71.6540 C.3       3 GLC5        0.0000 
      8 CA         24.6120   87.5440   74.3810 C.3       3 GLC5        0.0000 
      9 CA         24.3600   86.2610   75.6230 C.3       6 GLP5        0.0000 
     10 N          27.1295   89.3105   72.9450 N.am      2 SEC2        0.0000 
     11 N          25.8020   89.8220   73.0980 N.am      8 SEL2        0.0000 
     12 N          28.4570   88.7990   72.7920 N.am      5 SEP2        0.0000 
     13 CA         26.2300   90.6220   71.3400 C.3       3 GLC5        0.0000 
     14 CA         25.5650   91.1560   73.3690 C.3       9 GLL5        0.0000 
     15 CA         26.8950   90.0880   69.3110 C.3       6 GLP5        0.0000 
     16 N          27.0865   93.5360   73.6885 N.am      2 SEC2        0.0000 
     17 N          26.5000   91.9550   73.3550 N.am      8 SEL2        0.0000 
     18 N          27.6730   95.1170   74.0220 N.am      5 SEP2        0.0000 
     19 CA         23.0030   92.2575   72.0355 C.3       3 GLC5        0.0000 
     20 CA         24.2160   91.3990   73.6920 C.3       9 GLL5        0.0000 
     21 CA         21.7900   93.1160   70.3790 C.3       6 GLP5        0.0000 
     22 CA         23.3860   90.4555   77.8880 C.3       3 GLC5        0.0000 
     23 CA         21.5930   90.0910   77.4790 C.3       9 GLL5        0.0000 
     24 CA         25.1790   90.8200   78.2970 C.3       6 GLP5        0.0000 
     25 CA         21.9555   92.3030   77.3850 C.3       3 GLC5        0.0000 
     26 CA         22.3180   94.5150   77.2910 C.3       6 GLP5        0.0000 
     27 N          20.7550   91.6475   79.1080 N.am      2 SEC2        0.0000 
     28 N          21.5000   91.4610   77.9320 N.am      8 SEL2        0.0000 
     29 N          20.0100   91.8340   80.2840 N.am      5 SEP2        0.0000 
     30 CA         19.6785   92.1135   74.0340 C.3       3 GLC5        0.0000 
     31 CA         20.8120   90.2520   74.4110 C.3       9 GLL5        0.0000 
     32 CA         18.5450   93.9750   73.6570 C.3       6 GLP5        0.0000 
     33 CA         21.6060   87.0550   74.1980 C.3       3 GLC5        0.0000 
     34 CA         20.7970   88.7070   74.6090 C.3       9 GLL5        0.0000 
     35 CA         22.4150   85.4030   73.7870 C.3       6 GLP5        0.0000 
     36 N          20.4380   87.2870   72.5705 N.am      2 SEC2        0.0000 
     37 N          19.9180   88.0800   73.6400 N.am      8 SEL2        0.0000 
     38 N          20.9580   86.4940   71.5010 N.am      5 SEP2        0.0000 
     39 CA         19.7700   86.4175   76.4495 C.3       3 GLC5        0.0000 
     40 CA         20.2770   88.4220   76.0610 C.3       9 GLL5        0.0000 
     41 CA         19.2630   84.4130   76.8380 C.3       6 GLP5        0.0000 
     42 CA         21.4795   87.0010   75.8125 C.3       3 GLC5        0.0000 
     43 CA         22.6820   85.5800   75.5640 C.3       6 GLP5        0.0000 
     44 O          18.4380   86.9290   77.0355 O.2       1 ALC1        0.0000 
     45 O          18.9290   87.8290   76.0690 O.2       7 ALL1        0.0000 
     46 O          17.9470   86.0290   78.0020 O.2       4 ALP1        0.0000 
     47 CA         25.1998   92.5152   72.0602 C.3       3 GLC5        0.0000 
     48 CA         25.5090   93.7530   70.5900 C.3       6 GLP5        0.0000 
@<TRIPOS>BOND
@<TRIPOS>SUBSTRUCTURE
     1 ALC1       44 GROUP        1 X    ALC  0     ROOT ALC X 1
     2 SEC2       10 GROUP        1 X    SEC  0     **** SEC X 2
     3 GLC5        1 GROUP        1 X    GLC  0     **** GLC X 6
     4 ALP1       46 GROUP        1 Y    ALP  0     ROOT ALP Y 8
     5 SEP2       12 GROUP        1 Y    SEP  0     **** SEP Y 9
     6 GLP5        3 GROUP        1 Y    GLP  0     **** GLP Y 13
     7 ALL1       45 GROUP        1 Z    ALL  0     ROOT ALL Z 15
     8 SEL2       11 GROUP        1 Z    SEL  0     **** SEL Z 16
     9 GLL5        2 GROUP        1 Z    GLL  0     **** GLL Z 20
@<TRIPOS>SET

