#    Name: 1a9s_NOS_1_ligand
#    Modification time : Mon Mar 24 18:08:41 2014

@<TRIPOS>MOLECULE
1a9s_NOS_1_ligand
   31    33     1     0     0
SMALL
NO_CHARGES


@<TRIPOS>ATOM
      1 N9         22.1510   90.9510   74.0840 N.pl3     1 NOS290      0.0000 
      2 C4         23.3300   90.3440   73.7130 C.ar      1 NOS290      0.0000 
      3 N3         23.5890   89.0300   73.4490 N.ar      1 NOS290      0.0000 
      4 C2         24.8640   88.8270   73.1390 C.ar      1 NOS290      0.0000 
      5 N1         25.8020   89.8220   73.0980 N.ar      1 NOS290      0.0000 
      6 C6         25.5650   91.1560   73.3690 C.ar      1 NOS290      0.0000 
      7 O6         26.5000   91.9550   73.3550 O.3       1 NOS290      0.0000 
      8 C5         24.2160   91.3990   73.6920 C.ar      1 NOS290      0.0000 
      9 N7         23.5970   92.5830   74.0180 N.2       1 NOS290      0.0000 
     10 C8         22.2920   92.2910   74.2590 C.2       1 NOS290      0.0000 
     11 C5'        21.5930   90.0910   77.4790 C.3       1 NOS290      0.0000 
     12 O5'        21.5000   91.4610   77.9320 O.3       1 NOS290      0.0000 
     13 C4'        20.3340   89.7990   76.6860 C.3       1 NOS290      0.0000 
     14 O4'        20.2610   90.7870   75.6290 O.3       1 NOS290      0.0000 
     15 C1'        20.8120   90.2520   74.4110 C.3       1 NOS290      0.0000 
     16 C2'        20.7970   88.7070   74.6090 C.3       1 NOS290      0.0000 
     17 O2'        19.9180   88.0800   73.6400 O.3       1 NOS290      0.0000 
     18 C3'        20.2770   88.4220   76.0610 C.3       1 NOS290      0.0000 
     19 O3'        18.9290   87.8290   76.0690 O.3       1 NOS290      0.0000 
     20 H          25.1920   87.8380   72.9061 H         1 NOS290      0.0000 
     21 H          21.6086   92.9065   74.5033 H         1 NOS290      0.0000 
     22 H          21.6439   89.4004   78.3130 H         1 NOS290      0.0000 
     23 H          22.4504   89.9448   76.8320 H         1 NOS290      0.0000 
     24 H          19.4772   89.9245   77.3425 H         1 NOS290      0.0000 
     25 H          20.0984   90.4719   73.5965 H         1 NOS290      0.0000 
     26 H          21.7962   88.3513   74.5448 H         1 NOS290      0.0000 
     27 H          21.0090   87.8055   76.5314 H         1 NOS290      0.0000 
     28 H          27.3014   91.4201   73.6228 H         1 NOS290      0.0000 
     29 H          21.2423   91.9850   77.1202 H         1 NOS290      0.0000 
     30 H          19.2525   87.5709   74.1858 H         1 NOS290      0.0000 
     31 H          18.8927   87.2803   76.9042 H         1 NOS290      0.0000 
@<TRIPOS>BOND
     1    2    1 1    
     2   10    1 1    
     3   15    1 1    
     4    3    2 ar   
     5    8    2 ar   
     6    4    3 ar   
     7    5    4 ar   
     8   20    4 1    
     9    6    5 ar   
    10    7    6 1    
    11    8    6 ar   
    12   28    7 1    
    13    9    8 1    
    14   10    9 2    
    15   21   10 1    
    16   12   11 1    
    17   13   11 1    
    18   22   11 1    
    19   23   11 1    
    20   29   12 1    
    21   14   13 1    
    22   18   13 1    
    23   24   13 1    
    24   15   14 1    
    25   16   15 1    
    26   25   15 1    
    27   17   16 1    
    28   18   16 1    
    29   26   16 1    
    30   30   17 1    
    31   19   18 1    
    32   27   18 1    
    33   31   19 1    
@<TRIPOS>SUBSTRUCTURE
     1 NOS290      1 GROUP   
@<TRIPOS>SET

