#    Name: 2b54_D05_1_INTS_M
#    Modification time : Mon Mar 24 20:04:43 2014

@<TRIPOS>MOLECULE
2b54_D05_1_INTS_M
   76     0     9     0     0
SMALL
NO_CHARGES


@<TRIPOS>ATOM
      1 O         121.0830  -85.7290   90.9280 O.2       1 ALC1        0.0000 
      2 O         120.4880  -84.9370   91.8640 O.2       7 ALL1        0.0000 
      3 O         121.6780  -86.5210   89.9920 O.2       4 ALP1        0.0000 
      4 CA        117.6140  -84.8245   92.3590 C.3       3 GLC5        0.0000 
      5 CA        118.9100  -83.9470   93.8720 C.3       9 GLL5        0.0000 
      6 CA        116.3180  -85.7020   90.8460 C.3       6 GLP5        0.0000 
      7 CA        118.3185  -86.3795   93.2055 C.3       3 GLC5        0.0000 
      8 CA        119.5950  -85.1780   94.0530 C.3       9 GLL5        0.0000 
      9 CA        117.0420  -87.5810   92.3580 C.3       6 GLP5        0.0000 
     10 N         117.6645  -84.6735   97.2060 N.am      2 SEC2        0.0000 
     11 N         118.3150  -84.6860   95.9240 N.am      8 SEL2        0.0000 
     12 N         117.0140  -84.6610   98.4880 N.am      5 SEP2        0.0000 
     13 N         121.4045  -87.8915   92.2540 N.am      2 SEC2        0.0000 
     14 N         120.9500  -86.7440   93.1570 N.am      8 SEL2        0.0000 
     15 N         121.8590  -89.0390   91.3510 N.am      5 SEP2        0.0000 
     16 CA        111.8515  -79.7005   95.7175 C.3       3 GLC5        0.0000 
     17 CA        113.8350  -79.4270   95.8390 C.3       9 GLL5        0.0000 
     18 CA        109.8680  -79.9740   95.5960 C.3       6 GLP5        0.0000 
     19 CA        113.1315  -79.7380   93.8365 C.3       3 GLC5        0.0000 
     20 CA        112.4280  -80.0490   91.8340 C.3       6 GLP5        0.0000 
     21 CA        120.3630  -85.0800   96.9040 C.3       3 GLC5        0.0000 
     22 CA        119.4830  -86.8030   96.2130 C.3       9 GLL5        0.0000 
     23 CA        121.2430  -83.3570   97.5950 C.3       6 GLP5        0.0000 
     24 CA        118.6200  -86.0340   97.9250 C.3       3 GLC5        0.0000 
     25 CA        117.7570  -85.2650   99.6370 C.3       6 GLP5        0.0000 
     26 CA        118.0555  -89.7230   95.6730 C.3       3 GLC5        0.0000 
     27 CA        118.5470  -87.9520   95.8440 C.3       9 GLL5        0.0000 
     28 CA        117.5640  -91.4940   95.5020 C.3       6 GLP5        0.0000 
     29 CA        117.7945  -87.7665   94.1010 C.3       3 GLC5        0.0000 
     30 CA        116.4810  -87.9020   95.3195 C.3       3 GLC5        0.0000 
     31 CA        114.4150  -87.8520   94.7950 C.3       6 GLP5        0.0000 
     32 CA        119.7145  -83.8115   88.4700 C.3       3 GLC5        0.0000 
     33 CA        119.8960  -82.9560   90.4600 C.3       9 GLL5        0.0000 
     34 CA        119.5330  -84.6670   86.4800 C.3       6 GLP5        0.0000 
     35 CA        117.8085  -82.9605   89.6885 C.3       3 GLC5        0.0000 
     36 CA        115.7210  -82.9650   88.9170 C.3       6 GLP5        0.0000 
     37 CA        113.8660  -84.6435   93.7960 C.3       3 GLC5        0.0000 
     38 CA        115.4420  -84.6380   94.6820 C.3       9 GLL5        0.0000 
     39 CA        112.2900  -84.6490   92.9100 C.3       6 GLP5        0.0000 
     40 CA        115.8800  -85.1700   92.7640 C.3       3 GLC5        0.0000 
     41 CA        114.9285  -86.2450   94.7385 C.3       3 GLC5        0.0000 
     42 CA        120.9045  -81.3160   95.0945 C.3       3 GLC5        0.0000 
     43 CA        119.0390  -80.6500   95.3620 C.3       9 GLL5        0.0000 
     44 CA        122.7700  -81.9820   94.8270 C.3       6 GLP5        0.0000 
     45 CA        119.8515  -79.1425   95.5070 C.3       3 GLC5        0.0000 
     46 CA        120.6640  -77.6350   95.6520 C.3       6 GLP5        0.0000 
     47 CA        119.3680  -81.0855   96.9865 C.3       3 GLC5        0.0000 
     48 CA        119.6970  -81.5210   98.6110 C.3       6 GLP5        0.0000 
     49 CA        122.5620  -84.5980   88.6275 C.3       3 GLC5        0.0000 
     50 CA        122.3090  -82.8190   89.7670 C.3       9 GLL5        0.0000 
     51 CA        122.8150  -86.3770   87.4880 C.3       6 GLP5        0.0000 
     52 O         122.0175  -79.0495   92.2315 O.2       1 ALC1        0.0000 
     53 O         122.6550  -78.7760   90.8720 O.2       7 ALL1        0.0000 
     54 O         121.3800  -79.3230   93.5910 O.2       4 ALP1        0.0000 
     55 CA        121.1977  -83.9993   94.2673 C.3       3 GLC5        0.0000 
     56 CA        123.1430  -83.4360   94.5720 C.3       6 GLP5        0.0000 
     57 CA        120.2477  -83.9597   95.7788 C.3       3 GLC5        0.0000 
     58 CA        118.4980  -81.7347   96.9123 C.3       3 GLC5        0.0000 
     59 CA        117.1590  -82.6290   95.1030 C.3       9 GLL5        0.0000 
     60 CA        113.7960  -83.5753   94.0410 C.3       3 GLC5        0.0000 
     61 CA        115.8170  -82.9780   95.0730 C.3       9 GLL5        0.0000 
     62 CA        116.5793  -79.9290   97.2215 C.3       3 GLC5        0.0000 
     63 CA        116.4300  -80.3100   95.5160 C.3       9 GLL5        0.0000 
     64 CA        116.2240  -79.0690   99.0230 C.3       6 GLP5        0.0000 
     65 CA        115.3420  -79.5580   97.3470 C.3       3 GLC5        0.0000 
     66 CA        115.0850  -80.6670   95.5030 C.3       9 GLL5        0.0000 
     67 CA        120.8755  -87.2782   96.4067 C.3       3 GLC5        0.0000 
     68 CA        122.7360  -87.1790   96.7850 C.3       6 GLP5        0.0000 
     69 CA        119.6285  -88.8672   97.1017 C.3       3 GLC5        0.0000 
     70 CA        120.2420  -90.3570   98.1750 C.3       6 GLP5        0.0000 
     71 CA        122.6539  -80.9292   92.1566 C.3       3 GLC5        0.0000 
     72 CA        122.4970  -80.1090   90.5020 C.3       9 GLL5        0.0000 
     73 CA        123.4520  -81.0670   93.8350 C.3       6 GLP5        0.0000 
     74 CA        124.2135  -81.5015   91.6253 C.3       3 GLC5        0.0000 
     75 CA        123.6280  -80.7940   90.0260 C.3       9 GLL5        0.0000 
     76 CA        124.8440  -81.5310   93.4180 C.3       6 GLP5        0.0000 
@<TRIPOS>BOND
@<TRIPOS>SUBSTRUCTURE
     1 ALC1        1 GROUP        1 X    ALC  0     ROOT ALC X 1
     2 SEC2       10 GROUP        1 X    SEC  0     **** SEC X 2
     3 GLC5        4 GROUP        1 X    GLC  0     **** GLC X 6
     4 ALP1        3 GROUP        1 Y    ALP  0     ROOT ALP Y 8
     5 SEP2       12 GROUP        1 Y    SEP  0     **** SEP Y 9
     6 GLP5        6 GROUP        1 Y    GLP  0     **** GLP Y 13
     7 ALL1        2 GROUP        1 Z    ALL  0     ROOT ALL Z 15
     8 SEL2       11 GROUP        1 Z    SEL  0     **** SEL Z 16
     9 GLL5        5 GROUP        1 Z    GLL  0     **** GLL Z 20
@<TRIPOS>SET

