#    Name: 2b54_D05_1_ligand
#    Modification time : Mon Mar 24 20:04:43 2014

@<TRIPOS>MOLECULE
2b54_D05_1_ligand
   45    48     1     0     0
SMALL
NO_CHARGES


@<TRIPOS>ATOM
      1 N8        120.4880  -84.9370   91.8640 N.am      1 D05300      0.0000 
      2 C7        119.8170  -83.7510   91.7590 C.2       1 D05300      0.0000 
      3 N6        119.0250  -83.2370   92.7230 N.2       1 D05300      0.0000 
      4 C5        118.9100  -83.9470   93.8720 C.2       1 D05300      0.0000 
      5 C4        119.5950  -85.1780   94.0530 C.2       1 D05300      0.0000 
      6 C9        120.3910  -85.6520   93.0220 C.2       1 D05300      0.0000 
      7 N1        118.1280  -83.6850   94.9940 N.pl3     1 D05300      0.0000 
      8 N2        118.3150  -84.6860   95.9240 N.2       1 D05300      0.0000 
      9 C3        119.1800  -85.5810   95.3970 C.2       1 D05300      0.0000 
     10 O9        120.9500  -86.7440   93.1570 O.2       1 D05300      0.0000 
     11 C11       117.1590  -82.6290   95.1030 C.ar      1 D05300      0.0000 
     12 C16       115.8170  -82.9780   95.0730 C.ar      1 D05300      0.0000 
     13 C12       117.4390  -81.2680   95.3240 C.ar      1 D05300      0.0000 
     14 C15       114.7870  -82.0250   95.2710 C.ar      1 D05300      0.0000 
     15 C13       116.4300  -80.3100   95.5160 C.ar      1 D05300      0.0000 
     16 C14       115.0850  -80.6670   95.5030 C.ar      1 D05300      0.0000 
     17 CL14      113.8350  -79.4270   95.8390 Cl        1 D05300      0.0000 
     18 C1        119.4830  -86.8030   96.2130 C.3       1 D05300      0.0000 
     19 C2        118.5470  -87.9520   95.8440 C.3       1 D05300      0.0000 
     20 C20       119.8960  -82.9560   90.4600 C.3       1 D05300      0.0000 
     21 CL16      115.4420  -84.6380   94.6820 Cl        1 D05300      0.0000 
     22 CL12      119.0390  -80.6500   95.3620 Cl        1 D05300      0.0000 
     23 C21       121.1780  -82.1590   90.2770 C.ar      1 D05300      0.0000 
     24 C22       121.2510  -80.7890   90.6320 C.ar      1 D05300      0.0000 
     25 C23       122.4970  -80.1090   90.5020 C.ar      1 D05300      0.0000 
     26 C24       123.6280  -80.7940   90.0260 C.ar      1 D05300      0.0000 
     27 C25       123.5380  -82.1500   89.6390 C.ar      1 D05300      0.0000 
     28 C26       122.3090  -82.8190   89.7670 C.ar      1 D05300      0.0000 
     29 O23       122.6550  -78.7760   90.8720 O.3       1 D05300      0.0000 
     30 O24       124.8550  -80.1440   89.9950 O.3       1 D05300      0.0000 
     31 H         121.0581  -85.2850   91.0801 H         1 D05300      0.0000 
     32 H         113.8057  -82.3330   95.2443 H         1 D05300      0.0000 
     33 H         116.6972  -79.3227   95.6694 H         1 D05300      0.0000 
     34 H         119.3645  -86.5793   97.2757 H         1 D05300      0.0000 
     35 H         120.5143  -87.1192   96.0402 H         1 D05300      0.0000 
     36 H         119.0330  -82.2641   90.4129 H         1 D05300      0.0000 
     37 H         119.7820  -83.6537   89.6079 H         1 D05300      0.0000 
     38 H         120.4356  -80.2990   90.9720 H         1 D05300      0.0000 
     39 H         124.3543  -82.6324   89.2729 H         1 D05300      0.0000 
     40 H         122.2360  -83.8062   89.4833 H         1 D05300      0.0000 
     41 H         118.6319  -88.2053   94.8803 H         1 D05300      0.0000 
     42 H         118.7380  -88.7737   96.3810 H         1 D05300      0.0000 
     43 H         117.5883  -87.7152   96.0015 H         1 D05300      0.0000 
     44 H         122.2385  -78.7081   91.7786 H         1 D05300      0.0000 
     45 H         125.5196  -80.8320   90.2865 H         1 D05300      0.0000 
@<TRIPOS>BOND
     1    2    1 1    
     2    6    1 am   
     3   31    1 1    
     4    3    2 2    
     5   20    2 1    
     6    4    3 1    
     7    5    4 2    
     8    7    4 1    
     9    6    5 1    
    10    9    5 1    
    11   10    6 2    
    12    8    7 1    
    13   11    7 1    
    14    9    8 2    
    15   18    9 1    
    16   12   11 ar   
    17   13   11 ar   
    18   14   12 ar   
    19   21   12 1    
    20   15   13 ar   
    21   22   13 1    
    22   16   14 ar   
    23   32   14 1    
    24   16   15 ar   
    25   33   15 1    
    26   17   16 1    
    27   19   18 1    
    28   34   18 1    
    29   35   18 1    
    30   41   19 1    
    31   42   19 1    
    32   43   19 1    
    33   23   20 1    
    34   36   20 1    
    35   37   20 1    
    36   24   23 ar   
    37   28   23 ar   
    38   25   24 ar   
    39   38   24 1    
    40   26   25 ar   
    41   29   25 1    
    42   27   26 ar   
    43   30   26 1    
    44   28   27 ar   
    45   39   27 1    
    46   40   28 1    
    47   44   29 1    
    48   45   30 1    
@<TRIPOS>SUBSTRUCTURE
     1 D05300      1 GROUP   
@<TRIPOS>SET

