#    Name: 4aot_GW8_1_INTS_M
#    Modification time : Tue Mar 25 05:56:58 2014

@<TRIPOS>MOLECULE
4aot_GW8_1_INTS_M
  109     0     9     0     0
SMALL
NO_CHARGES


@<TRIPOS>ATOM
      1 N          -6.5900  -14.3990   -6.1625 N.am      2 SEC2        0.0000 
      2 N          -5.5650  -14.2660   -7.2960 N.am      8 SEL2        0.0000 
      3 N          -7.6150  -14.5320   -5.0290 N.am      5 SEP2        0.0000 
      4 CA         -4.6510  -15.7285   -8.5055 C.3       3 GLC5        0.0000 
      5 CA         -5.7290  -14.0360   -8.6020 C.3       9 GLL5        0.0000 
      6 CA         -3.5730  -17.4210   -8.4090 C.3       6 GLP5        0.0000 
      7 CA         -6.6820  -13.0630   -6.9155 C.3       3 GLC5        0.0000 
      8 CA         -7.6350  -12.0900   -5.2290 C.3       6 GLP5        0.0000 
      9 CA         -4.9640  -12.5175   -8.2250 C.3       3 GLC5        0.0000 
     10 CA         -4.1990  -10.9990   -7.8480 C.3       6 GLP5        0.0000 
     11 CA         -5.6515  -15.6245   -5.7120 C.3       3 GLC5        0.0000 
     12 CA         -4.3240  -14.3670   -6.7420 C.3       9 GLL5        0.0000 
     13 CA         -6.9790  -16.8820   -4.6820 C.3       6 GLP5        0.0000 
     14 CA         -5.2710  -13.1730   -5.4640 C.3       3 GLC5        0.0000 
     15 CA         -6.2180  -11.9790   -4.1860 C.3       6 GLP5        0.0000 
     16 CA          7.9160   -9.0850  -14.3610 C.3       3 GLC5        0.0000 
     17 CA          9.8810   -8.9180  -14.3160 C.3       9 GLL5        0.0000 
     18 CA          5.9510   -9.2520  -14.4060 C.3       6 GLP5        0.0000 
     19 CA         -2.6535  -15.4800  -11.7880 C.3       3 GLC5        0.0000 
     20 CA         -2.7320  -13.6470  -11.1710 C.3       9 GLL5        0.0000 
     21 CA         -2.5750  -17.3130  -12.4050 C.3       6 GLP5        0.0000 
     22 CA         -3.4655  -12.3230   -9.5095 C.3       3 GLC5        0.0000 
     23 CA        -10.6430  -10.8845  -11.7490 C.3       3 GLC5        0.0000 
     24 CA        -11.5050  -11.3430  -13.3370 C.3       9 GLL5        0.0000 
     25 CA         -9.7810  -10.4260  -10.1610 C.3       6 GLP5        0.0000 
     26 CA        -10.6795   -9.5795  -14.4260 C.3       3 GLC5        0.0000 
     27 CA         -9.8540   -7.8160  -15.5150 C.3       6 GLP5        0.0000 
     28 N           5.5755  -14.5700  -13.8500 N.am      2 SEC2        0.0000 
     29 N           7.0600  -14.3680  -13.5810 N.am      8 SEL2        0.0000 
     30 N           4.0910  -14.7720  -14.1190 N.am      5 SEP2        0.0000 
     31 N          -8.8600   -9.4535  -12.5675 N.am      2 SEC2        0.0000 
     32 N          -9.0550  -10.3150  -13.8870 N.am      8 SEL2        0.0000 
     33 N          -8.6650   -8.5920  -11.2480 N.am      5 SEP2        0.0000 
     34 CA         -6.9035  -14.8820  -13.1035 C.3       3 GLC5        0.0000 
     35 CA         -7.4000  -12.9310  -12.4860 C.3       9 GLL5        0.0000 
     36 CA         -6.4070  -16.8330  -13.7210 C.3       6 GLP5        0.0000 
     37 CA         -6.0275  -11.2565  -10.3575 C.3       3 GLC5        0.0000 
     38 CA         -6.7660  -13.1190  -11.2820 C.3       9 GLL5        0.0000 
     39 CA         -5.2890   -9.3940   -9.4330 C.3       6 GLP5        0.0000 
     40 CA         -2.3745  -11.9195   -8.3175 C.3       3 GLC5        0.0000 
     41 CA         -0.5500  -12.8400   -8.7870 C.3       9 GLL5        0.0000 
     42 CA         -1.4480  -16.1870  -11.0085 C.3       3 GLC5        0.0000 
     43 CA         -0.3210  -15.0610   -9.6120 C.3       9 GLL5        0.0000 
     44 CA          8.5590  -11.4245  -16.7300 C.3       3 GLC5        0.0000 
     45 CA          8.8180  -11.0450  -14.9060 C.3       9 GLL5        0.0000 
     46 CA          8.3000  -11.8040  -18.5540 C.3       6 GLP5        0.0000 
     47 CA          7.3845  -10.1485  -14.6560 C.3       3 GLC5        0.0000 
     48 CA          7.7475   -9.9345  -12.8335 C.3       3 GLC5        0.0000 
     49 CA          9.7060  -10.5340  -12.6310 C.3       9 GLL5        0.0000 
     50 CA          5.7890   -9.3350  -13.0360 C.3       6 GLP5        0.0000 
     51 CA          8.1535  -12.6485  -16.3795 C.3       3 GLC5        0.0000 
     52 CA          8.8840  -12.5190  -14.6430 C.3       9 GLL5        0.0000 
     53 CA          7.4230  -12.7780  -18.1160 C.3       6 GLP5        0.0000 
     54 CA         10.5235  -13.6060  -14.1890 C.3       3 GLC5        0.0000 
     55 CA         12.1630  -14.6930  -13.7350 C.3       6 GLP5        0.0000 
     56 CA          7.1480  -11.3740  -14.9295 C.3       3 GLC5        0.0000 
     57 CA          5.4120  -10.2290  -15.2160 C.3       6 GLP5        0.0000 
     58 CA         10.7300  -13.5250  -12.3020 C.3       3 GLC5        0.0000 
     59 CA          9.3890  -11.9720  -12.2050 C.3       9 GLL5        0.0000 
     60 CA         12.0710  -15.0780  -12.3990 C.3       6 GLP5        0.0000 
     61 O           3.2250  -12.6030   -7.6060 O.2       1 ALC1        0.0000 
     62 O           2.8760  -13.7870   -8.2850 O.2       7 ALL1        0.0000 
     63 O           3.5740  -11.4190   -6.9270 O.2       4 ALP1        0.0000 
     64 O           4.3690  -12.6285   -7.7340 O.2       1 ALC1        0.0000 
     65 O           5.1640  -13.8380   -8.5410 O.2       7 ALL1        0.0000 
     66 O           5.4300  -12.9095   -7.6425 O.2       1 ALC1        0.0000 
     67 O           5.6960  -11.9810   -6.7440 O.2       4 ALP1        0.0000 
     68 O          -8.1425  -13.5950   -8.0605 O.2       1 ALC1        0.0000 
     69 O          -6.9970  -13.8930   -8.9900 O.2       7 ALL1        0.0000 
     70 O          -9.2880  -13.2970   -7.1310 O.2       4 ALP1        0.0000 
     71 CA         -2.5980  -14.6553   -5.6825 C.3       3 GLC5        0.0000 
     72 CA         -3.2320  -14.2560   -7.5500 C.3       9 GLL5        0.0000 
     73 CA         -1.4180  -14.9990   -4.2190 C.3       6 GLP5        0.0000 
     74 CA         -3.7004  -15.8394   -7.9449 C.3       3 GLC5        0.0000 
     75 CA         -4.0134  -12.6284   -7.6644 C.3       3 GLC5        0.0000 
     76 CA         10.2327  -15.7093  -10.3012 C.3       3 GLC5        0.0000 
     77 CA          8.6590  -14.7170   -9.3300 C.3       9 GLL5        0.0000 
     78 CA         11.7860  -16.8280  -10.5920 C.3       6 GLP5        0.0000 
     79 CA          9.4745  -13.5222   -8.0038 C.3       3 GLC5        0.0000 
     80 CA         10.8800  -12.4390   -7.0440 C.3       6 GLP5        0.0000 
     81 CA          8.4480  -15.9863   -7.4943 C.3       3 GLC5        0.0000 
     82 CA          8.8270  -17.3670   -6.0250 C.3       6 GLP5        0.0000 
     83 CA          7.1905  -16.1818   -9.2897 C.3       3 GLC5        0.0000 
     84 CA          7.4790  -14.4940   -8.5970 C.3       9 GLL5        0.0000 
     85 CA          6.3120  -17.7580   -9.6160 C.3       6 GLP5        0.0000 
     86 CA          7.2270  -15.9868  -10.3240 C.3       3 GLC5        0.0000 
     87 CA          8.7000  -14.4640  -10.6910 C.3       9 GLL5        0.0000 
     88 CA         -8.9207  -15.5595  -11.9488 C.3       3 GLC5        0.0000 
     89 CA         -8.7750  -14.0680  -10.4520 C.3       9 GLL5        0.0000 
     90 CA         -8.7460  -17.1390  -12.8400 C.3       6 GLP5        0.0000 
     91 CA         -6.8840  -15.4770  -11.0892 C.3       3 GLC5        0.0000 
     92 CA         -7.4480  -13.7150  -10.2330 C.3       9 GLL5        0.0000 
     93 CA         -6.6610  -17.5370  -11.4210 C.3       6 GLP5        0.0000 
     94 CA         -0.0723  -10.9192   -8.3370 C.3       3 GLC5        0.0000 
     95 CA          0.7770  -12.8390   -8.4490 C.3       9 GLL5        0.0000 
     96 CA         -0.2580   -8.9990   -8.0560 C.3       6 GLP5        0.0000 
     97 CA          1.3050  -16.4490  -10.4710 C.3       3 GLC5        0.0000 
     98 CA          2.2620  -17.8280  -11.5140 C.3       6 GLP5        0.0000 
     99 CA         -2.1437  -15.9672   -8.9475 C.3       3 GLC5        0.0000 
    100 CA          6.3398  -15.8413   -9.7822 C.3       3 GLC5        0.0000 
    101 CA          6.3220  -14.0710   -9.2530 C.3       9 GLL5        0.0000 
    102 CA          5.5787  -12.1547  -10.4648 C.3       3 GLC5        0.0000 
    103 CA          4.7900  -10.3850  -10.9810 C.3       6 GLP5        0.0000 
    104 CA         -8.8840  -15.1898  -13.0838 C.3       3 GLC5        0.0000 
    105 CA         -8.7230  -13.3130  -12.6960 C.3       9 GLL5        0.0000 
    106 CA         -8.9342  -11.9671  -10.8143 C.3       3 GLC5        0.0000 
    107 CA          0.3097  -14.9886   -7.3933 C.3       3 GLC5        0.0000 
    108 CA         -1.1080  -13.9660   -9.3600 C.3       9 GLL5        0.0000 
    109 CA          0.3830  -16.0230   -5.7690 C.3       6 GLP5        0.0000 
@<TRIPOS>BOND
@<TRIPOS>SUBSTRUCTURE
     1 ALC1       61 GROUP        1 X    ALC  0     ROOT ALC X 1
     2 SEC2        1 GROUP        1 X    SEC  0     **** SEC X 2
     3 GLC5        4 GROUP        1 X    GLC  0     **** GLC X 6
     4 ALP1       63 GROUP        1 Y    ALP  0     ROOT ALP Y 8
     5 SEP2        3 GROUP        1 Y    SEP  0     **** SEP Y 9
     6 GLP5        6 GROUP        1 Y    GLP  0     **** GLP Y 13
     7 ALL1       62 GROUP        1 Z    ALL  0     ROOT ALL Z 15
     8 SEL2        2 GROUP        1 Z    SEL  0     **** SEL Z 16
     9 GLL5        5 GROUP        1 Z    GLL  0     **** GLL Z 20
@<TRIPOS>SET

