#    Name: 4aot_GW8_1_ligand
#    Modification time : Tue Mar 25 05:56:58 2014

@<TRIPOS>MOLECULE
4aot_GW8_1_ligand
   82    86     1     0     0
SMALL
NO_CHARGES


@<TRIPOS>ATOM
      1 N1         -5.5650  -14.2660   -7.2960 N.ar      1 GW81319     0.0000 
      2 C2         -5.7290  -14.0360   -8.6020 C.ar      1 GW81319     0.0000 
      3 N3         -4.6720  -13.9710   -9.3790 N.ar      1 GW81319     0.0000 
      4 C4         -3.4310  -14.0410   -8.8890 C.ar      1 GW81319     0.0000 
      5 C5         -3.2320  -14.2560   -7.5500 C.ar      1 GW81319     0.0000 
      6 C6         -4.3240  -14.3670   -6.7420 C.ar      1 GW81319     0.0000 
      7 CAA         9.8810   -8.9180  -14.3160 C.3       1 GW81319     0.0000 
      8 CAB        -2.7320  -13.6470  -11.1710 C.3       1 GW81319     0.0000 
      9 CAC       -11.5050  -11.3430  -13.3370 C.3       1 GW81319     0.0000 
     10 OAD         3.8250  -14.8720  -10.0910 O.2       1 GW81319     0.0000 
     11 OAE         7.0600  -14.3680  -13.5810 O.2       1 GW81319     0.0000 
     12 OAF        -9.0550  -10.3150  -13.8870 O.2       1 GW81319     0.0000 
     13 OAG       -10.2360  -11.4940  -15.7130 O.2       1 GW81319     0.0000 
     14 CAH         8.6590  -14.7170   -9.3300 C.ar      1 GW81319     0.0000 
     15 CAJ         7.4790  -14.4940   -8.5970 C.ar      1 GW81319     0.0000 
     16 CAK         8.7000  -14.4640  -10.6910 C.ar      1 GW81319     0.0000 
     17 CAM        -7.4000  -12.9310  -12.4860 C.ar      1 GW81319     0.0000 
     18 CAN        -9.4160  -13.8920  -11.6630 C.ar      1 GW81319     0.0000 
     19 CAO        -6.7660  -13.1190  -11.2820 C.ar      1 GW81319     0.0000 
     20 CAP        -8.7750  -14.0680  -10.4520 C.ar      1 GW81319     0.0000 
     21 CAQ         0.7770  -12.8390   -8.4490 C.ar      1 GW81319     0.0000 
     22 CAR         1.0170  -15.0790   -9.2440 C.ar      1 GW81319     0.0000 
     23 CAS        -0.5500  -12.8400   -8.7870 C.ar      1 GW81319     0.0000 
     24 CAT        -0.3210  -15.0610   -9.6120 C.ar      1 GW81319     0.0000 
     25 CAU         6.4130  -13.7780  -10.6440 C.ar      1 GW81319     0.0000 
     26 CAV         8.8180  -11.0450  -14.9060 C.3       1 GW81319     0.0000 
     27 CAW         9.7060  -10.5340  -12.6310 C.3       1 GW81319     0.0000 
     28 CAX         8.8840  -12.5190  -14.6430 C.3       1 GW81319     0.0000 
     29 CAY         9.3890  -11.9720  -12.2050 C.3       1 GW81319     0.0000 
     30 CAZ        -9.3210  -13.1680  -13.9590 C.3       1 GW81319     0.0000 
     31 NBC         2.8760  -13.7870   -8.2850 N.am      1 GW81319     0.0000 
     32 NBD         5.1640  -13.8380   -8.5410 N.am      1 GW81319     0.0000 
     33 NBE        -6.9970  -13.8930   -8.9900 N.pl3     1 GW81319     0.0000 
     34 CBF         3.9480  -14.1910   -9.0560 C.2       1 GW81319     0.0000 
     35 CBG         7.7270  -13.7100  -12.7580 C.2       1 GW81319     0.0000 
     36 CBH        -8.7230  -13.3130  -12.6960 C.ar      1 GW81319     0.0000 
     37 CBI         1.5920  -13.9410   -8.6640 C.ar      1 GW81319     0.0000 
     38 CBJ        -7.4480  -13.7150  -10.2330 C.ar      1 GW81319     0.0000 
     39 CBK         6.3220  -14.0710   -9.2530 C.ar      1 GW81319     0.0000 
     40 CBL         7.5840  -13.9670  -11.3730 C.ar      1 GW81319     0.0000 
     41 CBM        -1.1080  -13.9660   -9.3600 C.ar      1 GW81319     0.0000 
     42 NBP         9.8840  -10.4070  -14.0800 N.4       1 GW81319     0.0000 
     43 NBQ        -2.4060  -13.9530   -9.7420 N.pl3     1 GW81319     0.0000 
     44 NBR         8.6260  -12.7760  -13.1640 N.am      1 GW81319     0.0000 
     45 SBS        -9.9850  -11.5130  -14.2110 S.o2      1 GW81319     0.0000 
     46 H          -2.2832  -14.3310   -7.1689 H         1 GW81319     0.0000 
     47 H          -4.2131  -14.5244   -5.7305 H         1 GW81319     0.0000 
     48 H           9.4940  -15.0714   -8.8416 H         1 GW81319     0.0000 
     49 H           7.4742  -14.6432   -7.5840 H         1 GW81319     0.0000 
     50 H           9.5731  -14.6447  -11.2212 H         1 GW81319     0.0000 
     51 H          -6.8788  -12.4867  -13.2769 H         1 GW81319     0.0000 
     52 H         -10.3882  -14.1889  -11.7829 H         1 GW81319     0.0000 
     53 H          -5.7889  -12.8205  -11.1539 H         1 GW81319     0.0000 
     54 H          -9.3149  -14.4901   -9.6528 H         1 GW81319     0.0000 
     55 H           1.1967  -11.9843   -8.0147 H         1 GW81319     0.0000 
     56 H           1.5864  -15.9178   -9.3934 H         1 GW81319     0.0000 
     57 H          -1.1338  -12.0076   -8.6169 H         1 GW81319     0.0000 
     58 H          -0.7260  -15.8924  -10.0849 H         1 GW81319     0.0000 
     59 H           5.5652  -13.4095  -11.1209 H         1 GW81319     0.0000 
     60 H           7.8490  -10.6655  -14.6168 H         1 GW81319     0.0000 
     61 H           8.9969  -10.8527  -15.9537 H         1 GW81319     0.0000 
     62 H          10.6163  -10.2144  -12.0981 H         1 GW81319     0.0000 
     63 H           8.8846   -9.8872  -12.2821 H         1 GW81319     0.0000 
     64 H           9.8669  -12.8999  -14.9029 H         1 GW81319     0.0000 
     65 H           8.1306  -13.0359  -15.2295 H         1 GW81319     0.0000 
     66 H           8.8474  -11.9218  -11.2276 H         1 GW81319     0.0000 
     67 H          10.3597  -12.4744  -11.9675 H         1 GW81319     0.0000 
     68 H         -10.2095  -13.7730  -14.1437 H         1 GW81319     0.0000 
     69 H          -8.6562  -13.2527  -14.8194 H         1 GW81319     0.0000 
     70 H           3.0882  -13.3344   -7.3502 H         1 GW81319     0.0000 
     71 H           5.2222  -13.3903   -7.6061 H         1 GW81319     0.0000 
     72 H          -7.7553  -13.9253   -8.1974 H         1 GW81319     0.0000 
     73 H          10.8560  -10.7725  -14.3645 H         1 GW81319     0.0000 
     74 H          10.5839   -8.4550  -13.7761 H         1 GW81319     0.0000 
     75 H          10.0531   -8.6937  -15.2752 H         1 GW81319     0.0000 
     76 H           9.0038   -8.5049  -14.0712 H         1 GW81319     0.0000 
     77 H          -1.9095  -13.6007  -11.7379 H         1 GW81319     0.0000 
     78 H          -3.3266  -14.3430  -11.5735 H         1 GW81319     0.0000 
     79 H          -3.2024  -12.7696  -11.2649 H         1 GW81319     0.0000 
     80 H         -11.3638  -11.3206  -12.3473 H         1 GW81319     0.0000 
     81 H         -11.9832  -10.5002  -13.5840 H         1 GW81319     0.0000 
     82 H         -12.1294  -12.1007  -13.5269 H         1 GW81319     0.0000 
@<TRIPOS>BOND
     1    2    1 ar   
     2    6    1 ar   
     3    3    2 ar   
     4   33    2 1    
     5    4    3 ar   
     6    5    4 ar   
     7   43    4 1    
     8    6    5 ar   
     9   46    5 1    
    10   47    6 1    
    11   42    7 1    
    12   74    7 1    
    13   75    7 1    
    14   76    7 1    
    15   43    8 1    
    16   77    8 1    
    17   78    8 1    
    18   79    8 1    
    19   45    9 1    
    20   80    9 1    
    21   81    9 1    
    22   82    9 1    
    23   34   10 2    
    24   35   11 2    
    25   45   12 2    
    26   45   13 2    
    27   15   14 ar   
    28   16   14 ar   
    29   48   14 1    
    30   39   15 ar   
    31   49   15 1    
    32   40   16 ar   
    33   50   16 1    
    34   19   17 ar   
    35   36   17 ar   
    36   51   17 1    
    37   20   18 ar   
    38   36   18 ar   
    39   52   18 1    
    40   38   19 ar   
    41   53   19 1    
    42   38   20 ar   
    43   54   20 1    
    44   23   21 ar   
    45   37   21 ar   
    46   55   21 1    
    47   24   22 ar   
    48   37   22 ar   
    49   56   22 1    
    50   41   23 ar   
    51   57   23 1    
    52   41   24 ar   
    53   58   24 1    
    54   39   25 ar   
    55   40   25 ar   
    56   59   25 1    
    57   28   26 1    
    58   42   26 1    
    59   60   26 1    
    60   61   26 1    
    61   29   27 1    
    62   42   27 1    
    63   62   27 1    
    64   63   27 1    
    65   44   28 1    
    66   64   28 1    
    67   65   28 1    
    68   44   29 1    
    69   66   29 1    
    70   67   29 1    
    71   36   30 1    
    72   45   30 1    
    73   68   30 1    
    74   69   30 1    
    75   34   31 am   
    76   37   31 1    
    77   70   31 1    
    78   34   32 am   
    79   39   32 1    
    80   71   32 1    
    81   38   33 1    
    82   72   33 1    
    83   40   35 1    
    84   44   35 am   
    85   43   41 1    
    86   73   42 1    
@<TRIPOS>SUBSTRUCTURE
     1 GW81319     1 GROUP   
@<TRIPOS>SET

