#    Name: 3b0q_MC5_1_INTS_M
#    Modification time : Mon Mar 24 18:32:50 2014

@<TRIPOS>MOLECULE
3b0q_MC5_1_INTS_M
   71     0     6     0     0
SMALL
NO_CHARGES


@<TRIPOS>ATOM
      1 CA        -20.1080   19.3240   -7.0440 C.3       2 GLC5        0.0000 
      2 CA        -19.3230   18.0640   -8.6490 C.3       6 GLL5        0.0000 
      3 CA        -20.8930   20.5840   -5.4390 C.3       4 GLP5        0.0000 
      4 CA        -20.7525   17.3195   -7.7750 C.3       2 GLC5        0.0000 
      5 CA        -22.1820   16.5750   -6.9010 C.3       4 GLP5        0.0000 
      6 CA        -22.2540   20.4485  -17.8975 C.3       2 GLC5        0.0000 
      7 CA        -20.2440   19.5930  -18.0560 C.3       6 GLL5        0.0000 
      8 CA        -24.2640   21.3040  -17.7390 C.3       4 GLP5        0.0000 
      9 CA        -19.7130   20.0710  -16.1090 C.3       2 GLC5        0.0000 
     10 CA        -19.1820   20.5490  -14.1620 C.3       4 GLP5        0.0000 
     11 N         -16.6230   18.4695  -19.9445 N.am      1 SEC2        0.0000 
     12 N         -17.7530   18.5330  -20.6420 N.am      5 SEL2        0.0000 
     13 N         -15.4930   18.4060  -19.2470 N.am      3 SEP2        0.0000 
     14 N         -17.5825   17.7110  -21.6925 N.am      1 SEC2        0.0000 
     15 N         -17.4120   16.8890  -22.7430 N.am      3 SEP2        0.0000 
     16 N         -22.2965   18.9310  -19.7755 N.am      1 SEC2        0.0000 
     17 N         -21.8550   20.2240  -19.9010 N.am      5 SEL2        0.0000 
     18 N         -22.7380   17.6380  -19.6500 N.am      3 SEP2        0.0000 
     19 CA        -16.1805   18.5020  -17.5125 C.3       2 GLC5        0.0000 
     20 CA        -17.1460   17.2870  -16.2310 C.3       6 GLL5        0.0000 
     21 CA        -15.2150   19.7170  -18.7940 C.3       4 GLP5        0.0000 
     22 CA        -18.6935   18.5870  -12.5585 C.3       2 GLC5        0.0000 
     23 CA        -17.5890   17.0750  -12.5950 C.3       6 GLL5        0.0000 
     24 CA        -19.7980   20.0990  -12.5220 C.3       4 GLP5        0.0000 
     25 CA        -19.1075   15.3260  -18.4470 C.3       2 GLC5        0.0000 
     26 CA        -18.7850   17.2760  -18.1120 C.3       6 GLL5        0.0000 
     27 CA        -19.4300   13.3760  -18.7820 C.3       4 GLP5        0.0000 
     28 CA        -19.9190   20.4775   -7.2000 C.3       2 GLC5        0.0000 
     29 CA        -18.9450   20.3710   -8.9610 C.3       6 GLL5        0.0000 
     30 CA        -16.1640   15.6185  -10.6555 C.3       2 GLC5        0.0000 
     31 CA        -16.8570   17.3270   -9.7690 C.3       6 GLL5        0.0000 
     32 CA        -15.4710   13.9100  -11.5420 C.3       4 GLP5        0.0000 
     33 CA        -18.5508   17.0565   -7.7992 C.3       2 GLC5        0.0000 
     34 CA        -18.5260   19.0540   -9.0860 C.3       6 GLL5        0.0000 
     35 CA        -18.1770   15.5540   -6.7310 C.3       4 GLP5        0.0000 
     36 CA        -20.2908   17.9225   -9.8842 C.3       2 GLC5        0.0000 
     37 CA        -21.6570   17.2860  -10.9010 C.3       4 GLP5        0.0000 
     38 CA        -18.5195   21.0663  -17.9423 C.3       2 GLC5        0.0000 
     39 CA        -17.5360   22.9610  -17.6030 C.3       4 GLP5        0.0000 
     40 CA        -18.2730   18.8652  -14.2880 C.3       2 GLC5        0.0000 
     41 CA        -16.8490   17.2460  -14.8780 C.3       6 GLL5        0.0000 
     42 CA        -13.9990   18.5617  -13.5650 C.3       2 GLC5        0.0000 
     43 CA        -15.2350   17.2750  -13.0950 C.3       6 GLL5        0.0000 
     44 CA        -12.6150   19.8260  -13.3550 C.3       4 GLP5        0.0000 
     45 CA        -18.4945   18.8968  -15.3015 C.3       2 GLC5        0.0000 
     46 CA        -15.6635   15.9265  -16.5914 C.3       2 GLC5        0.0000 
     47 CA        -14.6590   14.5680  -17.7340 C.3       4 GLP5        0.0000 
     48 CA        -15.6470   15.5679  -12.2547 C.3       2 GLC5        0.0000 
     49 CA        -16.2630   17.1540  -12.1600 C.3       6 GLL5        0.0000 
     50 CA        -19.2675   18.8053  -14.6070 C.3       2 GLC5        0.0000 
     51 CA        -19.2040   17.0370  -14.3750 C.3       6 GLL5        0.0000 
     52 CA        -17.8546   15.1408  -13.4749 C.3       2 GLC5        0.0000 
     53 CA        -17.3690   13.1990  -13.0100 C.3       4 GLP5        0.0000 
     54 CA        -19.9505   16.3862  -12.7639 C.3       2 GLC5        0.0000 
     55 CA        -17.8790   17.1170  -13.9500 C.3       6 GLL5        0.0000 
     56 CA        -21.4320   15.7060  -11.7040 C.3       4 GLP5        0.0000 
     57 CA        -18.6520   20.6792  -11.1043 C.3       2 GLC5        0.0000 
     58 CA        -16.8880   21.1160   -9.9710 C.3       6 GLL5        0.0000 
     59 CA        -16.9943   18.8650  -18.5517 C.3       2 GLC5        0.0000 
     60 CA        -20.4012   21.6395   -9.2108 C.3       2 GLC5        0.0000 
     61 CA        -18.1240   21.4030   -9.4020 C.3       6 GLL5        0.0000 
     62 CA        -22.2680   22.3920   -9.2400 C.3       4 GLP5        0.0000 
     63 CA        -19.3664   19.7820  -10.7181 C.3       2 GLC5        0.0000 
     64 CA        -17.3734   19.4270   -7.7151 C.3       2 GLC5        0.0000 
     65 CA        -15.8120   19.3890   -6.5160 C.3       4 GLP5        0.0000 
     66 CA        -17.6270   16.8002   -8.2225 C.3       2 GLC5        0.0000 
     67 CA        -17.2970   18.7660   -9.6590 C.3       6 GLL5        0.0000 
     68 CA        -16.4445   18.7178   -8.1150 C.3       2 GLC5        0.0000 
     69 CA        -18.3420   19.6917  -11.2005 C.3       2 GLC5        0.0000 
     70 CA        -16.4012   19.9601   -8.2044 C.3       2 GLC5        0.0000 
     71 CA        -16.4750   19.8030  -10.0990 C.3       6 GLL5        0.0000 
@<TRIPOS>BOND
@<TRIPOS>SUBSTRUCTURE
     1 SEC2       11 GROUP        1 X    SEC  0     ROOT SEC X 2
     2 GLC5        1 GROUP        1 X    GLC  0     **** GLC X 6
     3 SEP2       13 GROUP        1 Y    SEP  0     ROOT SEP Y 9
     4 GLP5        3 GROUP        1 Y    GLP  0     **** GLP Y 13
     5 SEL2       12 GROUP        1 Z    SEL  0     ROOT SEL Z 16
     6 GLL5        2 GROUP        1 Z    GLL  0     **** GLL Z 20
@<TRIPOS>SET

