#    Name: 3b0q_MC5_1_ligand
#    Modification time : Mon Mar 24 18:32:50 2014

@<TRIPOS>MOLECULE
3b0q_MC5_1_ligand
   43    46     1     0     0
SMALL
NO_CHARGES


@<TRIPOS>ATOM
      1 F         -19.3230   18.0640   -8.6490 F         1 MC51        0.0000 
      2 N         -19.8630   19.3540  -20.5120 N.am      1 MC51        0.0000 
      3 S         -20.2440   19.5930  -18.0560 S.3       1 MC51        0.0000 
      4 C1        -16.8490   17.2460  -14.8780 C.ar      1 MC51        0.0000 
      5 O1        -15.9220   17.1200  -10.8290 O.3       1 MC51        0.0000 
      6 C2        -17.8790   17.1170  -13.9500 C.ar      1 MC51        0.0000 
      7 O2        -17.7530   18.5330  -20.6420 O.2       1 MC51        0.0000 
      8 C3        -15.5310   17.3200  -14.4550 C.ar      1 MC51        0.0000 
      9 O3        -21.8550   20.2240  -19.9010 O.2       1 MC51        0.0000 
     10 C4        -17.1460   17.2870  -16.2310 C.ar      1 MC51        0.0000 
     11 C5        -18.4680   17.2020  -16.6510 C.ar      1 MC51        0.0000 
     12 C6        -17.5890   17.0750  -12.5950 C.ar      1 MC51        0.0000 
     13 C7        -16.2630   17.1540  -12.1600 C.ar      1 MC51        0.0000 
     14 C8        -19.2040   17.0370  -14.3750 C.ar      1 MC51        0.0000 
     15 C9        -15.2350   17.2750  -13.0950 C.ar      1 MC51        0.0000 
     16 C10       -16.8880   21.1160   -9.9710 C.ar      1 MC51        0.0000 
     17 C11       -19.5020   17.0860  -15.7290 C.ar      1 MC51        0.0000 
     18 C12       -18.7850   17.2760  -18.1120 C.3       1 MC51        0.0000 
     19 C13       -18.7620   18.7500  -18.5070 C.3       1 MC51        0.0000 
     20 C14       -18.7340   18.8560  -20.0010 C.2       1 MC51        0.0000 
     21 C15       -18.1240   21.4030   -9.4020 C.ar      1 MC51        0.0000 
     22 C16       -20.7600   19.7770  -19.6220 C.2       1 MC51        0.0000 
     23 C17       -18.9450   20.3710   -8.9610 C.ar      1 MC51        0.0000 
     24 C18       -16.8570   17.3270   -9.7690 C.3       1 MC51        0.0000 
     25 C19       -17.2970   18.7660   -9.6590 C.ar      1 MC51        0.0000 
     26 C20       -18.5260   19.0540   -9.0860 C.ar      1 MC51        0.0000 
     27 C21       -16.4750   19.8030  -10.0990 C.ar      1 MC51        0.0000 
     28 H         -20.0260   19.4063  -21.5153 H         1 MC51        0.0000 
     29 H         -14.7713   17.4080  -15.1418 H         1 MC51        0.0000 
     30 H         -16.3919   17.3800  -16.9233 H         1 MC51        0.0000 
     31 H         -18.3464   16.9857  -11.9053 H         1 MC51        0.0000 
     32 H         -19.9584   16.9417  -13.6829 H         1 MC51        0.0000 
     33 H         -14.2588   17.3309  -12.7789 H         1 MC51        0.0000 
     34 H         -16.2836   21.8835  -10.2956 H         1 MC51        0.0000 
     35 H         -20.4744   17.0373  -16.0478 H         1 MC51        0.0000 
     36 H         -19.7669   16.8745  -18.3027 H         1 MC51        0.0000 
     37 H         -18.0411   16.7455  -18.6837 H         1 MC51        0.0000 
     38 H         -18.0049   19.2957  -18.0647 H         1 MC51        0.0000 
     39 H         -18.4314   22.3803   -9.3072 H         1 MC51        0.0000 
     40 H         -19.8595   20.5844   -8.5437 H         1 MC51        0.0000 
     41 H         -16.4262   17.0262   -8.7916 H         1 MC51        0.0000 
     42 H         -17.7637   16.7026   -9.9081 H         1 MC51        0.0000 
     43 H         -15.5607   19.5849  -10.5188 H         1 MC51        0.0000 
@<TRIPOS>BOND
     1   26    1 1    
     2   20    2 am   
     3   22    2 am   
     4   28    2 1    
     5   19    3 1    
     6   22    3 1    
     7    6    4 ar   
     8    8    4 ar   
     9   10    4 ar   
    10   13    5 1    
    11   24    5 1    
    12   12    6 ar   
    13   14    6 ar   
    14   20    7 2    
    15   15    8 ar   
    16   29    8 1    
    17   22    9 2    
    18   11   10 ar   
    19   30   10 1    
    20   17   11 ar   
    21   18   11 1    
    22   13   12 ar   
    23   31   12 1    
    24   15   13 ar   
    25   17   14 ar   
    26   32   14 1    
    27   33   15 1    
    28   21   16 ar   
    29   27   16 ar   
    30   34   16 1    
    31   35   17 1    
    32   19   18 1    
    33   36   18 1    
    34   37   18 1    
    35   20   19 1    
    36   38   19 1    
    37   23   21 ar   
    38   39   21 1    
    39   26   23 ar   
    40   40   23 1    
    41   25   24 1    
    42   41   24 1    
    43   42   24 1    
    44   26   25 ar   
    45   27   25 ar   
    46   43   27 1    
@<TRIPOS>SUBSTRUCTURE
     1 MC51        1 GROUP   
@<TRIPOS>SET

