#    Name: 3ewk_FAD_1_INTS_M
#    Modification time : Tue Mar 25 02:36:34 2014

@<TRIPOS>MOLECULE
3ewk_FAD_1_INTS_M
   82     0    12     0     0
SMALL
NO_CHARGES


@<TRIPOS>ATOM
      1 CA         25.1295  -42.0915  -15.8445 C.3       4 GLC5        0.0000 
      2 CA         25.1000  -43.0120  -17.3290 C.3      12 GLL5        0.0000 
      3 CA         25.1590  -41.1710  -14.3600 C.3       8 GLP5        0.0000 
      4 O          22.9920  -42.6035  -16.3605 O.2       1 ALC1        0.0000 
      5 O          23.7610  -43.5010  -17.4660 O.2       9 ALL1        0.0000 
      6 O          22.2230  -41.7060  -15.2550 O.2       5 ALP1        0.0000 
      7 O          17.1500  -52.8115  -12.0745 O.2       1 ALC1        0.0000 
      8 O          18.5170  -52.6590  -12.2620 O.2       9 ALL1        0.0000 
      9 O          15.7830  -52.9640  -11.8870 O.2       5 ALP1        0.0000 
     10 N          17.5065  -54.5355  -10.5840 N.am      2 SEC2        0.0000 
     11 N          18.9140  -54.2090  -10.4510 N.am     10 SEL2        0.0000 
     12 N          16.0990  -54.8620  -10.7170 N.am      6 SEP2        0.0000 
     13 CA         26.5470  -54.0040   -7.8665 C.3       4 GLC5        0.0000 
     14 CA         26.1970  -55.3180   -9.1850 C.3      12 GLL5        0.0000 
     15 CA         26.8970  -52.6900   -6.5480 C.3       8 GLP5        0.0000 
     16 CA         27.9750  -55.1110   -8.9490 C.3       4 GLC5        0.0000 
     17 CA         29.7530  -54.9040   -8.7130 C.3       8 GLP5        0.0000 
     18 CA         26.3195  -55.5825  -11.7165 C.3       4 GLC5        0.0000 
     19 CA         25.8710  -53.5390  -11.1230 C.3      12 GLL5        0.0000 
     20 CA         26.7680  -57.6260  -12.3100 C.3       8 GLP5        0.0000 
     21 CA         27.8190  -55.3830  -11.9810 C.3       4 GLC5        0.0000 
     22 CA         27.3520  -53.3070  -11.3720 C.3      12 GLL5        0.0000 
     23 CA         28.2860  -57.4590  -12.5900 C.3       8 GLP5        0.0000 
     24 CA         27.7345  -54.2075  -13.3770 C.3       4 GLC5        0.0000 
     25 CA         28.1170  -55.1080  -15.3820 C.3       8 GLP5        0.0000 
     26 CA         28.0240  -52.2825  -12.7245 C.3       4 GLC5        0.0000 
     27 CA         28.6960  -51.2580  -14.0770 C.3       8 GLP5        0.0000 
     28 CA         28.1120  -51.7335  -10.4285 C.3       4 GLC5        0.0000 
     29 CA         28.8720  -50.1600   -9.4850 C.3       8 GLP5        0.0000 
     30 CA         29.1115  -53.3585  -10.9020 C.3       4 GLC5        0.0000 
     31 CA         30.8710  -53.4100  -10.4320 C.3       8 GLP5        0.0000 
     32 CA         24.1715  -54.3455  -13.1880 C.3       4 GLC5        0.0000 
     33 CA         25.0050  -52.7890  -11.9590 C.3      12 GLL5        0.0000 
     34 CA         23.3380  -55.9020  -14.4170 C.3       8 GLP5        0.0000 
     35 CA         24.0785  -50.3230  -12.2435 C.3       4 GLC5        0.0000 
     36 CA         23.3310  -51.2660  -13.7420 C.3      12 GLL5        0.0000 
     37 CA         24.8260  -49.3800  -10.7450 C.3       8 GLP5        0.0000 
     38 N          24.9535  -49.5290  -15.1420 N.am      2 SEC2        0.0000 
     39 N          23.8960  -50.3160  -15.9750 N.am     10 SEL2        0.0000 
     40 N          26.0110  -48.7420  -14.3090 N.am      6 SEP2        0.0000 
     41 CA         19.2820  -50.9470  -16.5835 C.3       4 GLC5        0.0000 
     42 CA         21.0370  -50.2100  -15.8190 C.3      12 GLL5        0.0000 
     43 CA         17.5270  -51.6840  -17.3480 C.3       8 GLP5        0.0000 
     44 N          18.9055  -50.1255  -16.2265 N.am      2 SEC2        0.0000 
     45 N          19.8140  -50.8260  -15.9250 N.am     10 SEL2        0.0000 
     46 N          17.9970  -49.4250  -16.5280 N.am      6 SEP2        0.0000 
     47 NZ         21.6805  -49.4440  -20.4410 N.4       3 LYC4        0.0000 
     48 NZ         20.3560  -48.2090  -20.0270 N.4      11 LYL4        0.0000 
     49 NZ         23.0050  -50.6790  -20.8550 N.4       7 LYP4        0.0000 
     50 NZ         18.9115  -45.2645  -19.2780 N.4       3 LYC4        0.0000 
     51 NZ         19.6820  -46.3360  -18.3570 N.4      11 LYL4        0.0000 
     52 NZ         18.1410  -44.1930  -20.1990 N.4       7 LYP4        0.0000 
     53 N          18.9115  -45.2645  -19.2780 N.am      2 SEC2        0.0000 
     54 N          19.6820  -46.3360  -18.3570 N.am     10 SEL2        0.0000 
     55 N          18.1410  -44.1930  -20.1990 N.am      6 SEP2        0.0000 
     56 CA         24.3375  -44.6055  -16.0805 C.3       4 GLC5        0.0000 
     57 CA         23.0900  -45.8400  -15.2670 C.3       8 GLP5        0.0000 
     58 CA         25.9775  -43.1005  -15.1312 C.3       4 GLC5        0.0000 
     59 CA         26.0700  -43.7300  -16.4590 C.3      12 GLL5        0.0000 
     60 CA         25.1920  -42.4580  -13.5560 C.3       8 GLP5        0.0000 
     61 CA         28.4120  -46.3195  -14.6783 C.3       4 GLC5        0.0000 
     62 CA         28.2220  -46.1250  -16.8230 C.3      12 GLL5        0.0000 
     63 CA         28.0480  -46.1260  -12.7140 C.3       8 GLP5        0.0000 
     64 CA         26.2643  -56.2650  -10.9790 C.3       4 GLC5        0.0000 
     65 CA         24.8443  -52.9462   -9.0920 C.3       4 GLC5        0.0000 
     66 CA         25.3240  -54.4900  -10.1110 C.3      12 GLL5        0.0000 
     67 CA         24.0910  -51.8780   -7.5670 C.3       8 GLP5        0.0000 
     68 CA         24.5725  -55.5301   -8.0505 C.3       4 GLC5        0.0000 
     69 CA         23.9100  -54.6390   -9.9990 C.3      12 GLL5        0.0000 
     70 CA         23.7380  -56.1190   -6.4810 C.3       8 GLP5        0.0000 
     71 CA         23.0641  -54.9941  -12.1724 C.3       4 GLC5        0.0000 
     72 CA         23.5400  -52.9110  -11.8270 C.3      12 GLL5        0.0000 
     73 CA         22.6230  -56.4230  -13.2220 C.3       8 GLP5        0.0000 
     74 CA         24.6575  -51.2088  -11.2145 C.3       4 GLC5        0.0000 
     75 CA         23.7981  -52.7216   -9.3449 C.3       4 GLC5        0.0000 
     76 CA         25.3560  -50.9575  -14.4812 C.3       4 GLC5        0.0000 
     77 CA         27.4660  -50.7800  -14.4300 C.3       8 GLP5        0.0000 
     78 CA         21.1788  -52.4205  -16.9823 C.3       4 GLC5        0.0000 
     79 CA         21.9520  -51.3580  -16.1020 C.3      12 GLL5        0.0000 
     80 CA         20.8630  -54.0570  -18.0040 C.3       8 GLP5        0.0000 
     81 CA         21.1585  -48.2390  -15.3112 C.3       4 GLC5        0.0000 
     82 CA         21.0640  -46.7960  -14.2730 C.3       8 GLP5        0.0000 
@<TRIPOS>BOND
@<TRIPOS>SUBSTRUCTURE
     1 ALC1        4 GROUP        1 X    ALC  0     ROOT ALC X 1
     2 SEC2       10 GROUP        1 X    SEC  0     **** SEC X 2
     3 LYC4       47 GROUP        1 X    LYC  0     **** LYC X 4
     4 GLC5        1 GROUP        1 X    GLC  0     **** GLC X 6
     5 ALP1        6 GROUP        1 Y    ALP  0     ROOT ALP Y 8
     6 SEP2       12 GROUP        1 Y    SEP  0     **** SEP Y 9
     7 LYP4       49 GROUP        1 Y    LYP  0     **** LYP Y 11
     8 GLP5        3 GROUP        1 Y    GLP  0     **** GLP Y 13
     9 ALL1        5 GROUP        1 Z    ALL  0     ROOT ALL Z 15
    10 SEL2       11 GROUP        1 Z    SEL  0     **** SEL Z 16
    11 LYL4       48 GROUP        1 Z    LYL  0     **** LYL Z 18
    12 GLL5        2 GROUP        1 Z    GLL  0     **** GLL Z 20
@<TRIPOS>SET

