#    Name: 3ewk_FAD_1_ligand
#    Modification time : Tue Mar 25 02:36:34 2014

@<TRIPOS>MOLECULE
3ewk_FAD_1_ligand
   84    89     1     0     0
SMALL
NO_CHARGES


@<TRIPOS>ATOM
      1 PA         23.0030  -45.7390  -19.3730 P.3       1 FAD326      0.0000 
      2 O1A        22.3820  -45.4960  -20.8440 O.co2     1 FAD326      0.0000 
      3 O2A        22.4300  -44.7500  -18.4770 O.co2     1 FAD326      0.0000 
      4 O5B        24.5710  -45.2730  -19.0780 O.3       1 FAD326      0.0000 
      5 C5B        25.1280  -43.9420  -19.4910 C.3       1 FAD326      0.0000 
      6 C4B        25.7870  -42.8350  -18.5380 C.3       1 FAD326      0.0000 
      7 O4B        27.3100  -42.8990  -18.1530 O.3       1 FAD326      0.0000 
      8 C3B        25.1000  -43.0120  -17.3290 C.3       1 FAD326      0.0000 
      9 O3B        23.7610  -43.5010  -17.4660 O.3       1 FAD326      0.0000 
     10 C2B        26.0700  -43.7300  -16.4590 C.3       1 FAD326      0.0000 
     11 O2B        25.7670  -45.0710  -16.5970 O.3       1 FAD326      0.0000 
     12 C1B        27.4560  -43.7560  -16.9540 C.3       1 FAD326      0.0000 
     13 N9A        28.5040  -44.7760  -16.5800 N.pl3     1 FAD326      0.0000 
     14 C8A        29.8920  -44.7700  -16.0410 C.2       1 FAD326      0.0000 
     15 N7A        30.4170  -46.1110  -15.9270 N.2       1 FAD326      0.0000 
     16 C5A        29.3300  -46.9010  -16.4620 C.ar      1 FAD326      0.0000 
     17 C6A        29.2110  -48.3460  -16.6770 C.ar      1 FAD326      0.0000 
     18 N6A        30.3450  -49.1950  -16.3180 N.pl3     1 FAD326      0.0000 
     19 N1A        28.0180  -48.8450  -17.1360 N.ar      1 FAD326      0.0000 
     20 C2A        26.8510  -48.0270  -17.5170 C.ar      1 FAD326      0.0000 
     21 N3A        27.0450  -46.5790  -17.3340 N.ar      1 FAD326      0.0000 
     22 C4A        28.2220  -46.1250  -16.8230 C.ar      1 FAD326      0.0000 
     23 N1         20.3290  -51.5780  -13.3470 N.2       1 FAD326      0.0000 
     24 C2         19.0040  -51.7340  -13.2220 C.2       1 FAD326      0.0000 
     25 O2         18.1800  -51.0080  -14.0560 O.2       1 FAD326      0.0000 
     26 N3         18.5170  -52.6590  -12.2620 N.am      1 FAD326      0.0000 
     27 C4         19.3760  -53.3450  -11.4440 C.2       1 FAD326      0.0000 
     28 O4         18.9140  -54.2090  -10.4510 O.2       1 FAD326      0.0000 
     29 C4X        20.7550  -53.1940  -11.6060 C.2       1 FAD326      0.0000 
     30 N5         21.6370  -53.9620  -10.6930 N.2       1 FAD326      0.0000 
     31 C5X        23.0310  -53.8000  -10.8380 C.ar      1 FAD326      0.0000 
     32 C6         23.9100  -54.6390   -9.9990 C.ar      1 FAD326      0.0000 
     33 C7         25.3240  -54.4900  -10.1110 C.ar      1 FAD326      0.0000 
     34 C7M        26.1970  -55.3180   -9.1850 C.3       1 FAD326      0.0000 
     35 C8         25.8710  -53.5390  -11.1230 C.ar      1 FAD326      0.0000 
     36 C8M        27.3520  -53.3070  -11.3720 C.3       1 FAD326      0.0000 
     37 C9         25.0050  -52.7890  -11.9590 C.ar      1 FAD326      0.0000 
     38 C9A        23.5400  -52.9110  -11.8270 C.ar      1 FAD326      0.0000 
     39 N10        22.6470  -52.1280  -12.7410 N.pl3     1 FAD326      0.0000 
     40 C10        21.2270  -52.3330  -12.5650 C.2       1 FAD326      0.0000 
     41 C1'        23.3310  -51.2660  -13.7420 C.3       1 FAD326      0.0000 
     42 C2'        23.1610  -51.0040  -15.3230 C.3       1 FAD326      0.0000 
     43 O2'        23.8960  -50.3160  -15.9750 O.3       1 FAD326      0.0000 
     44 C3'        21.9520  -51.3580  -16.1020 C.3       1 FAD326      0.0000 
     45 O3'        22.0650  -50.9600  -17.4930 O.3       1 FAD326      0.0000 
     46 C4'        21.0370  -50.2100  -15.8190 C.3       1 FAD326      0.0000 
     47 O4'        19.8140  -50.8260  -15.9250 O.3       1 FAD326      0.0000 
     48 C5'        21.4690  -49.1540  -16.8800 C.3       1 FAD326      0.0000 
     49 O5'        20.3850  -48.5320  -17.5290 O.3       1 FAD326      0.0000 
     50 P          20.6860  -47.3500  -18.6510 P.3       1 FAD326      0.0000 
     51 O1P        20.3560  -48.2090  -20.0270 O.co2     1 FAD326      0.0000 
     52 O2P        19.6820  -46.3360  -18.3570 O.co2     1 FAD326      0.0000 
     53 O3P        22.2900  -46.9940  -18.6320 O.3       1 FAD326      0.0000 
     54 H          24.3161  -43.3716  -20.0938 H         1 FAD326      0.0000 
     55 H          25.9078  -44.1123  -20.3341 H         1 FAD326      0.0000 
     56 H          25.5600  -41.8695  -18.9453 H         1 FAD326      0.0000 
     57 H          25.0445  -41.9535  -16.8632 H         1 FAD326      0.0000 
     58 H          26.0256  -43.4220  -15.4689 H         1 FAD326      0.0000 
     59 H          27.8427  -42.7552  -16.1630 H         1 FAD326      0.0000 
     60 H          30.3487  -43.9808  -15.8110 H         1 FAD326      0.0000 
     61 H          31.1272  -48.7316  -15.9015 H         1 FAD326      0.0000 
     62 H          30.2457  -50.1697  -16.5183 H         1 FAD326      0.0000 
     63 H          26.0386  -48.4061  -17.8539 H         1 FAD326      0.0000 
     64 H          17.4950  -52.8024  -12.1955 H         1 FAD326      0.0000 
     65 H          23.4969  -55.2971   -9.3669 H         1 FAD326      0.0000 
     66 H          25.3713  -52.1559  -12.6619 H         1 FAD326      0.0000 
     67 H          24.5146  -51.4574  -13.6266 H         1 FAD326      0.0000 
     68 H          23.3662  -50.1514  -13.2867 H         1 FAD326      0.0000 
     69 H          23.7773  -52.2053  -15.6405 H         1 FAD326      0.0000 
     70 H          21.5219  -52.2048  -15.9351 H         1 FAD326      0.0000 
     71 H          21.2861  -49.8573  -14.8534 H         1 FAD326      0.0000 
     72 H          22.1386  -49.6835  -17.5928 H         1 FAD326      0.0000 
     73 H          22.1162  -48.4231  -16.3474 H         1 FAD326      0.0000 
     74 H          27.1699  -55.1446   -9.3382 H         1 FAD326      0.0000 
     75 H          26.0117  -55.1183   -8.2228 H         1 FAD326      0.0000 
     76 H          26.0501  -56.2986   -9.3144 H         1 FAD326      0.0000 
     77 H          27.8191  -52.9760  -10.5521 H         1 FAD326      0.0000 
     78 H          27.8168  -54.1458  -11.6557 H         1 FAD326      0.0000 
     79 H          27.5060  -52.6291  -12.0908 H         1 FAD326      0.0000 
     80 H          23.2139  -42.9325  -16.8517 H         1 FAD326      0.0000 
     81 H          24.9753  -45.0958  -17.2075 H         1 FAD326      0.0000 
     82 H          23.5196  -50.3406  -16.9012 H         1 FAD326      0.0000 
     83 H          21.7423  -51.7496  -18.0150 H         1 FAD326      0.0000 
     84 H          19.4175  -50.7733  -15.0085 H         1 FAD326      0.0000 
@<TRIPOS>BOND
     1    2    1 ar   
     2    3    1 ar   
     3    4    1 1    
     4   53    1 1    
     5    5    4 1    
     6    6    5 1    
     7   54    5 1    
     8   55    5 1    
     9    7    6 1    
    10    8    6 1    
    11   56    6 1    
    12   12    7 1    
    13    9    8 1    
    14   10    8 1    
    15   57    8 1    
    16   80    9 1    
    17   11   10 1    
    18   12   10 1    
    19   58   10 1    
    20   81   11 1    
    21   13   12 1    
    22   59   12 1    
    23   14   13 1    
    24   22   13 1    
    25   15   14 2    
    26   60   14 1    
    27   16   15 1    
    28   17   16 ar   
    29   22   16 ar   
    30   18   17 1    
    31   19   17 ar   
    32   61   18 1    
    33   62   18 1    
    34   20   19 ar   
    35   21   20 ar   
    36   63   20 1    
    37   22   21 ar   
    38   24   23 1    
    39   40   23 2    
    40   25   24 2    
    41   26   24 am   
    42   27   26 am   
    43   64   26 1    
    44   28   27 2    
    45   29   27 1    
    46   30   29 2    
    47   40   29 1    
    48   31   30 1    
    49   32   31 ar   
    50   38   31 ar   
    51   33   32 ar   
    52   65   32 1    
    53   34   33 1    
    54   35   33 ar   
    55   74   34 1    
    56   75   34 1    
    57   76   34 1    
    58   36   35 1    
    59   37   35 ar   
    60   77   36 1    
    61   78   36 1    
    62   79   36 1    
    63   38   37 ar   
    64   66   37 1    
    65   39   38 1    
    66   40   39 1    
    67   41   39 1    
    68   42   41 1    
    69   67   41 1    
    70   68   41 1    
    71   43   42 1    
    72   44   42 1    
    73   69   42 1    
    74   82   43 1    
    75   45   44 1    
    76   46   44 1    
    77   70   44 1    
    78   83   45 1    
    79   47   46 1    
    80   48   46 1    
    81   71   46 1    
    82   84   47 1    
    83   49   48 1    
    84   72   48 1    
    85   73   48 1    
    86   50   49 1    
    87   51   50 ar   
    88   52   50 ar   
    89   53   50 1    
@<TRIPOS>SUBSTRUCTURE
     1 FAD326      1 GROUP   
@<TRIPOS>SET

