#    Name: 1lcz_BH7_2_INTS_M
#    Modification time : Tue Mar 25 11:06:51 2014

@<TRIPOS>MOLECULE
1lcz_BH7_2_INTS_M
   56     0     9     0     0
SMALL
NO_CHARGES


@<TRIPOS>ATOM
      1 O           8.7625   16.1475    5.3030 O.2       1 ALC1        0.0000 
      2 O          10.0330   16.6030    4.9130 O.2       7 ALL1        0.0000 
      3 O           7.4920   15.6920    5.6930 O.2       4 ALP1        0.0000 
      4 CA          9.0595   18.2500    2.6440 C.3       3 GLC5        0.0000 
      5 CA         10.3040   17.5790    3.8430 C.3       9 GLL5        0.0000 
      6 CA          7.8150   18.9210    1.4450 C.3       6 GLP5        0.0000 
      7 O          13.8895   16.3855    5.2705 O.2       1 ALC1        0.0000 
      8 O          12.3540   16.5800    4.7160 O.2       7 ALL1        0.0000 
      9 O          15.4250   16.1910    5.8250 O.2       4 ALP1        0.0000 
     10 CA          8.4655   19.0230    3.3840 C.3       3 GLC5        0.0000 
     11 CA          9.9250   19.0610    4.1900 C.3       9 GLL5        0.0000 
     12 CA          7.0060   18.9850    2.5780 C.3       6 GLP5        0.0000 
     13 CA         12.4575   20.0190    6.6020 C.3       3 GLC5        0.0000 
     14 CA         11.3770   19.6430    5.1760 C.3       9 GLL5        0.0000 
     15 CA         13.5380   20.3950    8.0280 C.3       6 GLP5        0.0000 
     16 N          12.0495   14.1060    6.5360 N.am      2 SEC2        0.0000 
     17 N          11.4170   15.1970    6.3030 N.am      8 SEL2        0.0000 
     18 N          12.6820   13.0150    6.7690 N.am      5 SEP2        0.0000 
     19 CA         14.0095   17.2430    3.0735 C.3       3 GLC5        0.0000 
     20 CA         13.9820   19.1150    4.0590 C.3       9 GLL5        0.0000 
     21 CA         14.0370   15.3710    2.0880 C.3       6 GLP5        0.0000 
     22 CA         13.7600   19.7550    6.0435 C.3       3 GLC5        0.0000 
     23 CA         17.4565   19.6010    5.7915 C.3       3 GLC5        0.0000 
     24 CA         15.8860   20.7540    4.9390 C.3       9 GLL5        0.0000 
     25 CA         19.0270   18.4480    6.6440 C.3       6 GLP5        0.0000 
     26 CA         16.1600   22.6660    6.2455 C.3       3 GLC5        0.0000 
     27 CA         16.4040   22.1900    4.5730 C.3       9 GLL5        0.0000 
     28 CA         15.9160   23.1420    7.9180 C.3       6 GLP5        0.0000 
     29 CA         17.9980   23.4145    4.8320 C.3       3 GLC5        0.0000 
     30 CA         19.5920   24.6390    5.0910 C.3       6 GLP5        0.0000 
     31 CA         14.5140   22.6765    3.6515 C.3       3 GLC5        0.0000 
     32 CA         12.6240   23.1630    2.7300 C.3       6 GLP5        0.0000 
     33 N          18.0670   20.7510    2.2545 N.am      2 SEC2        0.0000 
     34 N          16.8420   21.6200    2.2120 N.am      8 SEL2        0.0000 
     35 N          19.2920   19.8820    2.2970 N.am      5 SEP2        0.0000 
     36 O          16.4120   24.8850    3.9555 O.2       1 ALC1        0.0000 
     37 O          16.5660   23.8460    2.7030 O.2       7 ALL1        0.0000 
     38 O          16.2580   25.9240    5.2080 O.2       4 ALP1        0.0000 
     39 CA         14.0395   23.7770    1.5880 C.3       3 GLC5        0.0000 
     40 CA         15.4550   24.3910    0.4460 C.3       9 GLL5        0.0000 
     41 CA         10.9205   15.6813    2.8915 C.3       3 GLC5        0.0000 
     42 CA         11.8960   17.5680    3.6810 C.3       9 GLL5        0.0000 
     43 CA         10.7410   13.7890    2.0210 C.3       6 GLP5        0.0000 
     44 CA         13.1037   16.8280    2.9352 C.3       3 GLC5        0.0000 
     45 CA          9.8575   20.7015    5.8000 C.3       3 GLC5        0.0000 
     46 CA          9.0640   22.0510    6.9170 C.3       6 GLP5        0.0000 
     47 CA          9.9955   19.0000    6.5405 C.3       3 GLC5        0.0000 
     48 CA          9.3400   18.6480    8.3980 C.3       6 GLP5        0.0000 
     49 CA         12.2675   21.2428    3.6300 C.3       3 GLC5        0.0000 
     50 CA         13.4108   21.4982    3.4925 C.3       3 GLC5        0.0000 
     51 CA         14.4130   20.5520    4.4510 C.3       9 GLL5        0.0000 
     52 CA         14.6812   21.1330    6.2755 C.3       3 GLC5        0.0000 
     53 CA         14.2130   21.6130    7.8560 C.3       6 GLP5        0.0000 
     54 CA         13.5629   24.2698   -1.3947 C.3       3 GLC5        0.0000 
     55 CA         15.4430   24.5650   -2.1250 C.3       9 GLL5        0.0000 
     56 CA         11.6540   23.8180   -1.6440 C.3       6 GLP5        0.0000 
@<TRIPOS>BOND
@<TRIPOS>SUBSTRUCTURE
     1 ALC1        1 GROUP        1 X    ALC  0     ROOT ALC X 1
     2 SEC2       16 GROUP        1 X    SEC  0     **** SEC X 2
     3 GLC5        4 GROUP        1 X    GLC  0     **** GLC X 6
     4 ALP1        3 GROUP        1 Y    ALP  0     ROOT ALP Y 8
     5 SEP2       18 GROUP        1 Y    SEP  0     **** SEP Y 9
     6 GLP5        6 GROUP        1 Y    GLP  0     **** GLP Y 13
     7 ALL1        2 GROUP        1 Z    ALL  0     ROOT ALL Z 15
     8 SEL2       17 GROUP        1 Z    SEL  0     **** SEL Z 16
     9 GLL5        5 GROUP        1 Z    GLL  0     **** GLL Z 20
@<TRIPOS>SET

