#    Name: 1lcz_BH7_2_ligand
#    Modification time : Tue Mar 25 11:06:51 2014

@<TRIPOS>MOLECULE
1lcz_BH7_2_ligand
   50    51     1     0     0
SMALL
NO_CHARGES


@<TRIPOS>ATOM
      1 N1         10.0330   16.6030    4.9130 N.am      1 BH7400      0.0000 
      2 C2         10.3040   17.5790    3.8430 C.3       1 BH7400      0.0000 
      3 C3         11.8960   17.5680    3.6810 C.3       1 BH7400      0.0000 
      4 N4         12.3540   16.5800    4.7160 N.am      1 BH7400      0.0000 
      5 C5         11.2870   16.0180    5.4240 C.2       1 BH7400      0.0000 
      6 C6          9.9250   19.0610    4.1900 C.3       1 BH7400      0.0000 
      7 S7         11.3770   19.6430    5.1760 S.3       1 BH7400      0.0000 
      8 C8         12.4450   19.0020    3.8840 C.3       1 BH7400      0.0000 
      9 O9         11.4170   15.1970    6.3030 O.2       1 BH7400      0.0000 
     10 C10        13.9820   19.1150    4.0590 C.3       1 BH7400      0.0000 
     11 C11        14.4130   20.5520    4.4510 C.3       1 BH7400      0.0000 
     12 C12        15.8860   20.7540    4.9390 C.3       1 BH7400      0.0000 
     13 C13        16.4040   22.1900    4.5730 C.3       1 BH7400      0.0000 
     14 C14        16.6250   22.4890    3.0550 C.2       1 BH7400      0.0000 
     15 O15        16.8420   21.6200    2.2120 O.2       1 BH7400      0.0000 
     16 N16        16.5660   23.8460    2.7030 N.am      1 BH7400      0.0000 
     17 C17        16.7660   24.3770    1.2880 C.3       1 BH7400      0.0000 
     18 C18        15.4550   24.3910    0.4460 C.3       1 BH7400      0.0000 
     19 C19        15.5460   25.3650   -0.7780 C.3       1 BH7400      0.0000 
     20 C20        15.4430   24.5650   -2.1250 C.3       1 BH7400      0.0000 
     21 C21        16.7990   24.0160   -2.6760 C.3       1 BH7400      0.0000 
     22 C22        17.0780   22.5420   -2.3200 C.2       1 BH7400      0.0000 
     23 O23        17.9900   22.1070   -1.5570 O.co2     1 BH7400      0.0000 
     24 O24        16.1510   21.7020   -2.9320 O.co2     1 BH7400      0.0000 
     25 H           9.1802   16.3831    5.2269 H         1 BH7400      0.0000 
     26 H           9.9068   17.3062    2.9180 H         1 BH7400      0.0000 
     27 H          12.0974   17.2162    2.7066 H         1 BH7400      0.0000 
     28 H          13.2828   16.3937    4.8355 H         1 BH7400      0.0000 
     29 H           9.1590   19.1374    4.8669 H         1 BH7400      0.0000 
     30 H           9.9487   19.6877    3.3791 H         1 BH7400      0.0000 
     31 H          12.0922   19.5917    3.0150 H         1 BH7400      0.0000 
     32 H          14.4655   18.8432    3.1231 H         1 BH7400      0.0000 
     33 H          14.3011   18.4250    4.8372 H         1 BH7400      0.0000 
     34 H          13.7328   20.9201    5.2495 H         1 BH7400      0.0000 
     35 H          14.2445   21.2220    3.5801 H         1 BH7400      0.0000 
     36 H          16.5196   20.0219    4.4599 H         1 BH7400      0.0000 
     37 H          15.9216   20.6332    6.0119 H         1 BH7400      0.0000 
     38 H          17.3584   22.3593    5.1061 H         1 BH7400      0.0000 
     39 H          15.6857   22.9292    4.9748 H         1 BH7400      0.0000 
     40 H          16.3765   24.5734    3.4182 H         1 BH7400      0.0000 
     41 H          17.5036   23.7578    0.7642 H         1 BH7400      0.0000 
     42 H          17.1568   25.4003    1.3316 H         1 BH7400      0.0000 
     43 H          14.6296   24.7052    1.0804 H         1 BH7400      0.0000 
     44 H          15.2594   23.3867    0.0780 H         1 BH7400      0.0000 
     45 H          16.4934   25.8791   -0.7486 H         1 BH7400      0.0000 
     46 H          14.7319   26.0703   -0.7274 H         1 BH7400      0.0000 
     47 H          14.9949   25.2213   -2.8845 H         1 BH7400      0.0000 
     48 H          14.7568   23.7196   -1.9744 H         1 BH7400      0.0000 
     49 H          17.6105   24.6417   -2.2802 H         1 BH7400      0.0000 
     50 H          16.7978   24.1283   -3.7688 H         1 BH7400      0.0000 
@<TRIPOS>BOND
     1    2    1 1    
     2    5    1 am   
     3   25    1 1    
     4    3    2 1    
     5    6    2 1    
     6   26    2 1    
     7    4    3 1    
     8    8    3 1    
     9   27    3 1    
    10    5    4 am   
    11   28    4 1    
    12    9    5 2    
    13    7    6 1    
    14   29    6 1    
    15   30    6 1    
    16    8    7 1    
    17   10    8 1    
    18   31    8 1    
    19   11   10 1    
    20   32   10 1    
    21   33   10 1    
    22   12   11 1    
    23   34   11 1    
    24   35   11 1    
    25   13   12 1    
    26   36   12 1    
    27   37   12 1    
    28   14   13 1    
    29   38   13 1    
    30   39   13 1    
    31   15   14 2    
    32   16   14 am   
    33   17   16 1    
    34   40   16 1    
    35   18   17 1    
    36   41   17 1    
    37   42   17 1    
    38   19   18 1    
    39   43   18 1    
    40   44   18 1    
    41   20   19 1    
    42   45   19 1    
    43   46   19 1    
    44   21   20 1    
    45   47   20 1    
    46   48   20 1    
    47   22   21 1    
    48   49   21 1    
    49   50   21 1    
    50   23   22 ar   
    51   24   22 ar   
@<TRIPOS>SUBSTRUCTURE
     1 BH7400      1 GROUP   
@<TRIPOS>SET

