#    Name: 3hml_PQQ_1_INTS_M
#    Modification time : Tue Mar 25 14:31:54 2014

@<TRIPOS>MOLECULE
3hml_PQQ_1_INTS_M
   43     0     9     0     0
SMALL
NO_CHARGES


@<TRIPOS>ATOM
      1 CA          2.0855   45.3605    0.8330 C.3       3 GLC5        0.0000 
      2 CA          4.1030   44.8100    0.3640 C.3       9 GLL5        0.0000 
      3 CA          0.0680   45.9110    1.3020 C.3       6 GLP5        0.0000 
      4 NZ          4.4195   48.2360    1.7800 N.4       2 LYC4        0.0000 
      5 NZ          4.4460   47.0240    1.0190 N.4       8 LYL4        0.0000 
      6 NZ          4.3930   49.4480    2.5410 N.4       5 LYP4        0.0000 
      7 N           4.4195   48.2360    1.7800 N.am      1 SEC2        0.0000 
      8 N           4.4460   47.0240    1.0190 N.am      7 SEL2        0.0000 
      9 N           4.3930   49.4480    2.5410 N.am      4 SEP2        0.0000 
     10 NZ          5.8250   44.4990    3.1490 N.4       2 LYC4        0.0000 
     11 NZ          5.2900   45.4070    2.2470 N.4       8 LYL4        0.0000 
     12 NZ          6.3600   43.5910    4.0510 N.4       5 LYP4        0.0000 
     13 N           5.4455   46.1600    3.3590 N.am      1 SEC2        0.0000 
     14 N           5.2900   45.4070    2.2470 N.am      7 SEL2        0.0000 
     15 N           5.6010   46.9130    4.4710 N.am      4 SEP2        0.0000 
     16 N           5.8250   44.4990    3.1490 N.am      1 SEC2        0.0000 
     17 N           6.3600   43.5910    4.0510 N.am      4 SEP2        0.0000 
     18 CA          1.9845   46.4695   -0.3450 C.3       3 GLC5        0.0000 
     19 CA          3.2460   45.0590   -0.6990 C.3       9 GLL5        0.0000 
     20 CA          0.7230   47.8800    0.0090 C.3       6 GLP5        0.0000 
     21 CA          1.4750   44.8475    0.0780 C.3       3 GLC5        0.0000 
     22 CA          2.8820   43.7840   -1.1460 C.3       9 GLL5        0.0000 
     23 NZ          0.8735   37.6725   -1.3960 N.4       2 LYC4        0.0000 
     24 NZ          2.0830   36.9980   -2.0410 N.4       8 LYL4        0.0000 
     25 NZ         -0.8000   37.7390    0.3430 N.4       5 LYP4        0.0000 
     26 N           0.8735   37.6725   -1.3960 N.am      1 SEC2        0.0000 
     27 N           2.0830   36.9980   -2.0410 N.am      7 SEL2        0.0000 
     28 N          -0.3360   38.3470   -0.7510 N.am      4 SEP2        0.0000 
     29 N           6.3690   38.7775    0.8405 N.am      1 SEC2        0.0000 
     30 N           6.1930   40.1670    1.7000 N.am      7 SEL2        0.0000 
     31 N           6.5450   37.3880   -0.0190 N.am      4 SEP2        0.0000 
     32 N           7.0580   40.8255    2.4490 N.am      1 SEC2        0.0000 
     33 N           7.9230   41.4840    3.1980 N.am      4 SEP2        0.0000 
     34 NZ          5.6220   42.6825    3.1845 N.4       2 LYC4        0.0000 
     35 NZ          4.8840   41.7740    2.3180 N.4       8 LYL4        0.0000 
     36 N           3.8495   42.2655    3.1130 N.am      1 SEC2        0.0000 
     37 N           4.8840   41.7740    2.3180 N.am      7 SEL2        0.0000 
     38 N           2.8150   42.7570    3.9080 N.am      4 SEP2        0.0000 
     39 N           6.4035   41.6290    2.7580 N.am      1 SEC2        0.0000 
     40 CA          5.3912   44.1692   -0.8532 C.3       3 GLC5        0.0000 
     41 CA          7.1080   43.4040   -1.5390 C.3       6 GLP5        0.0000 
     42 CA          5.2509   42.8819   -1.0649 C.3       3 GLC5        0.0000 
     43 CA          3.5990   42.8050   -0.3050 C.3       9 GLL5        0.0000 
@<TRIPOS>BOND
@<TRIPOS>SUBSTRUCTURE
     1 SEC2        7 GROUP        1 X    SEC  0     ROOT SEC X 2
     2 LYC4        4 GROUP        1 X    LYC  0     **** LYC X 4
     3 GLC5        1 GROUP        1 X    GLC  0     **** GLC X 6
     4 SEP2        9 GROUP        1 Y    SEP  0     ROOT SEP Y 9
     5 LYP4        6 GROUP        1 Y    LYP  0     **** LYP Y 11
     6 GLP5        3 GROUP        1 Y    GLP  0     **** GLP Y 13
     7 SEL2        8 GROUP        1 Z    SEL  0     ROOT SEL Z 16
     8 LYL4        5 GROUP        1 Z    LYL  0     **** LYL Z 18
     9 GLL5        2 GROUP        1 Z    GLL  0     **** GLL Z 20
@<TRIPOS>SET

