#    Name: 3hml_PQQ_1_ligand
#    Modification time : Tue Mar 25 14:31:54 2014

@<TRIPOS>MOLECULE
3hml_PQQ_1_ligand
   27    29     1     0     0
SMALL
NO_CHARGES


@<TRIPOS>ATOM
      1 N1          4.3010   43.5050    0.5710 N.pl3     1 PQQ259      0.0000 
      2 C2          4.1030   44.8100    0.3640 C.2       1 PQQ259      0.0000 
      3 C2X         4.6790   45.8230    1.2470 C.2       1 PQQ259      0.0000 
      4 O2A         4.4460   47.0240    1.0190 O.co2     1 PQQ259      0.0000 
      5 O2B         5.2900   45.4070    2.2470 O.co2     1 PQQ259      0.0000 
      6 C3          3.2460   45.0590   -0.6990 C.2       1 PQQ259      0.0000 
      7 C3A         2.8820   43.7840   -1.1460 C.2       1 PQQ259      0.0000 
      8 C1A         3.5990   42.8050   -0.3050 C.2       1 PQQ259      0.0000 
      9 C4          2.0100   43.2880   -2.2770 C.2       1 PQQ259      0.0000 
     10 O4          1.4020   44.0720   -3.0540 O.2       1 PQQ259      0.0000 
     11 C5          1.9080   41.8190   -2.4810 C.2       1 PQQ259      0.0000 
     12 O5          1.1890   41.4180   -3.4330 O.2       1 PQQ259      0.0000 
     13 C6A         2.6950   40.9040   -1.5560 C.ar      1 PQQ259      0.0000 
     14 N6          2.6150   39.5760   -1.6760 N.ar      1 PQQ259      0.0000 
     15 C7          3.2660   38.6900   -0.8930 C.ar      1 PQQ259      0.0000 
     16 C7X         3.0310   37.2530   -1.2430 C.2       1 PQQ259      0.0000 
     17 O7A         2.0830   36.9980   -2.0410 O.co2     1 PQQ259      0.0000 
     18 O7B         3.7400   36.3780   -0.7150 O.co2     1 PQQ259      0.0000 
     19 C8          4.0790   39.0790    0.1900 C.ar      1 PQQ259      0.0000 
     20 C9          4.2490   40.4420    0.4420 C.ar      1 PQQ259      0.0000 
     21 C9X         5.1520   40.8330    1.5620 C.2       1 PQQ259      0.0000 
     22 O9A         6.1930   40.1670    1.7000 O.co2     1 PQQ259      0.0000 
     23 O9B         4.8840   41.7740    2.3180 O.co2     1 PQQ259      0.0000 
     24 C9A         3.5470   41.4250   -0.4560 C.ar      1 PQQ259      0.0000 
     25 H           4.8802   43.1304    1.2685 H         1 PQQ259      0.0000 
     26 H           2.9757   45.8708   -1.0366 H         1 PQQ259      0.0000 
     27 H           4.5287   38.3796    0.7708 H         1 PQQ259      0.0000 
@<TRIPOS>BOND
     1    2    1 1    
     2    8    1 1    
     3   25    1 1    
     4    3    2 1    
     5    6    2 2    
     6    4    3 ar   
     7    5    3 ar   
     8    7    6 1    
     9   26    6 1    
    10    8    7 2    
    11    9    7 1    
    12   24    8 1    
    13   10    9 2    
    14   11    9 1    
    15   12   11 2    
    16   13   11 1    
    17   14   13 ar   
    18   24   13 ar   
    19   15   14 ar   
    20   16   15 1    
    21   19   15 ar   
    22   17   16 ar   
    23   18   16 ar   
    24   20   19 ar   
    25   27   19 1    
    26   21   20 1    
    27   24   20 ar   
    28   22   21 ar   
    29   23   21 ar   
@<TRIPOS>SUBSTRUCTURE
     1 PQQ259      1 GROUP   
@<TRIPOS>SET

