#    Name: 4m8h_R4M_1_INTS_M
#    Modification time : Tue Mar 25 11:57:13 2014

@<TRIPOS>MOLECULE
4m8h_R4M_1_INTS_M
   88     0     9     0     0
SMALL
NO_CHARGES


@<TRIPOS>ATOM
      1 CA         63.1405   50.4120   30.5070 C.3       3 GLC5        0.0000 
      2 CA         63.5870   48.4850   31.4060 C.3       9 GLL5        0.0000 
      3 CA         62.6940   52.3390   29.6080 C.3       6 GLP5        0.0000 
      4 CA         61.9205   49.1375   31.4950 C.3       3 GLC5        0.0000 
      5 CA         60.2540   49.7900   31.5840 C.3       6 GLP5        0.0000 
      6 CA         62.0865   49.2870   32.8635 C.3       3 GLC5        0.0000 
      7 CA         63.4680   48.2890   32.9220 C.3       9 GLL5        0.0000 
      8 CA         60.7050   50.2850   32.8050 C.3       6 GLP5        0.0000 
      9 CA         63.9815   45.8570   35.0360 C.3       3 GLC5        0.0000 
     10 CA         64.6770   47.8940   35.0960 C.3       9 GLL5        0.0000 
     11 CA         63.2860   43.8200   34.9760 C.3       6 GLP5        0.0000 
     12 CA         64.2185   47.7255   36.7565 C.3       3 GLC5        0.0000 
     13 CA         63.7600   47.5570   38.4170 C.3       6 GLP5        0.0000 
     14 CA         67.9360   47.8180   34.8050 C.3       3 GLC5        0.0000 
     15 CA         66.7430   46.5420   33.6640 C.3       9 GLL5        0.0000 
     16 CA         69.1290   49.0940   35.9460 C.3       6 GLP5        0.0000 
     17 CA         69.5005   45.9100   31.5435 C.3       3 GLC5        0.0000 
     18 CA         67.3780   45.2070   31.7680 C.3       9 GLL5        0.0000 
     19 CA         71.6230   46.6130   31.3190 C.3       6 GLP5        0.0000 
     20 CA         67.3475   45.5490   29.1470 C.3       3 GLC5        0.0000 
     21 CA         66.3580   45.7900   31.0290 C.3       9 GLL5        0.0000 
     22 CA         68.3370   45.3080   27.2650 C.3       6 GLP5        0.0000 
     23 CA         66.1140   48.7780   29.6080 C.3       3 GLC5        0.0000 
     24 CA         64.6710   47.2950   29.4330 C.3       9 GLL5        0.0000 
     25 CA         67.5570   50.2610   29.7830 C.3       6 GLP5        0.0000 
     26 CA         64.8175   50.2690   26.1025 C.3       3 GLC5        0.0000 
     27 CA         64.5500   48.9130   27.4340 C.3       9 GLL5        0.0000 
     28 CA         65.0850   51.6250   24.7710 C.3       6 GLP5        0.0000 
     29 CA         64.3025   50.9105   28.3885 C.3       3 GLC5        0.0000 
     30 CA         64.0550   52.9080   29.3430 C.3       6 GLP5        0.0000 
     31 CA         66.0535   49.5870   28.6085 C.3       3 GLC5        0.0000 
     32 CA         61.1490   47.9660   26.6035 C.3       3 GLC5        0.0000 
     33 CA         62.4630   47.8470   28.3090 C.3       9 GLL5        0.0000 
     34 CA         59.8350   48.0850   24.8980 C.3       6 GLP5        0.0000 
     35 CA         62.1190   45.7495   30.5350 C.3       3 GLC5        0.0000 
     36 CA         61.5720   47.0270   29.1410 C.3       9 GLL5        0.0000 
     37 CA         62.6660   44.4720   31.9290 C.3       6 GLP5        0.0000 
     38 CA         59.7485   48.6090   27.5615 C.3       3 GLC5        0.0000 
     39 CA         60.2240   47.1750   28.8130 C.3       9 GLL5        0.0000 
     40 CA         59.2730   50.0430   26.3100 C.3       6 GLP5        0.0000 
     41 CA         61.0160   44.9185   31.2065 C.3       3 GLC5        0.0000 
     42 CA         59.3660   45.3650   30.4840 C.3       9 GLL5        0.0000 
     43 CA         59.1290   47.4705   30.9310 C.3       3 GLC5        0.0000 
     44 CA         58.8920   49.5760   31.3780 C.3       6 GLP5        0.0000 
     45 CA         58.7055   44.9145   32.3440 C.3       3 GLC5        0.0000 
     46 CA         58.0450   44.4640   34.2040 C.3       6 GLP5        0.0000 
     47 CA         56.4625   46.4030   27.8440 C.3       3 GLC5        0.0000 
     48 CA         57.8310   46.9460   29.1540 C.3       9 GLL5        0.0000 
     49 CA         55.0940   45.8600   26.5340 C.3       6 GLP5        0.0000 
     50 CA         58.5520   48.4945   27.7320 C.3       3 GLC5        0.0000 
     51 NZ         54.1320   47.5835   29.8590 N.4       2 LYC4        0.0000 
     52 NZ         55.6140   47.0750   29.8070 N.4       8 LYL4        0.0000 
     53 NZ         52.6500   47.9210   31.2310 N.4       5 LYP4        0.0000 
     54 N          54.6195   47.1450   30.8045 N.am      1 SEC2        0.0000 
     55 N          55.6140   47.0750   29.8070 N.am      7 SEL2        0.0000 
     56 N          53.6250   47.2150   31.8020 N.am      4 SEP2        0.0000 
     57 N          54.1320   47.5835   29.8590 N.am      1 SEC2        0.0000 
     58 N          52.6500   48.0920   29.9110 N.am      4 SEP2        0.0000 
     59 N          55.2850   44.7840   30.8670 N.am      1 SEC2        0.0000 
     60 N          56.6890   45.1890   30.2220 N.am      7 SEL2        0.0000 
     61 N          53.8810   44.3790   31.5120 N.am      4 SEP2        0.0000 
     62 CA         63.0968   46.4295   32.0465 C.3       3 GLC5        0.0000 
     63 CA         65.1713   49.5700   31.7595 C.3       3 GLC5        0.0000 
     64 CA         66.8150   50.7530   31.3550 C.3       6 GLP5        0.0000 
     65 CA         66.0425   49.2025   32.3128 C.3       3 GLC5        0.0000 
     66 CA         64.8330   48.1800   33.6030 C.3       9 GLL5        0.0000 
     67 CA         68.5325   45.2985   34.7422 C.3       3 GLC5        0.0000 
     68 CA         69.9080   44.5300   36.1070 C.3       6 GLP5        0.0000 
     69 CA         64.3285   45.4166   31.7920 C.3       3 GLC5        0.0000 
     70 CA         65.7070   47.1240   32.9380 C.3       9 GLL5        0.0000 
     71 CA         65.9417   48.9387   31.2845 C.3       3 GLC5        0.0000 
     72 CA         65.5410   46.7410   31.6240 C.3       9 GLL5        0.0000 
     73 CA         63.6497   45.9368   31.0237 C.3       3 GLC5        0.0000 
     74 CA         64.5960   47.5080   30.8040 C.3       9 GLL5        0.0000 
     75 CA         64.0145   48.1925   25.9320 C.3       3 GLC5        0.0000 
     76 CA         63.8400   47.9750   28.4200 C.3       9 GLL5        0.0000 
     77 CA         63.8340   47.9410   23.9370 C.3       6 GLP5        0.0000 
     78 CA         65.9139   47.2420   27.3211 C.3       3 GLC5        0.0000 
     79 CA         67.4250   46.2100   26.4620 C.3       6 GLP5        0.0000 
     80 CA         61.1358   48.6135   30.1545 C.3       3 GLC5        0.0000 
     81 CA         61.2924   45.8315   27.6505 C.3       3 GLC5        0.0000 
     82 CA         61.4640   44.3570   26.5320 C.3       6 GLP5        0.0000 
     83 CA         58.4742   44.1407   29.9403 C.3       3 GLC5        0.0000 
     84 CA         59.1110   46.5020   29.4810 C.3       9 GLL5        0.0000 
     85 CA         57.7100   42.3480   29.8980 C.3       6 GLP5        0.0000 
     86 CA         59.5992   45.0097   28.1723 C.3       3 GLC5        0.0000 
     87 CA         59.9600   44.0860   26.3620 C.3       6 GLP5        0.0000 
     88 CA         58.8206   48.2341   30.2643 C.3       3 GLC5        0.0000 
@<TRIPOS>BOND
@<TRIPOS>SUBSTRUCTURE
     1 SEC2       54 GROUP        1 X    SEC  0     ROOT SEC X 2
     2 LYC4       51 GROUP        1 X    LYC  0     **** LYC X 4
     3 GLC5        1 GROUP        1 X    GLC  0     **** GLC X 6
     4 SEP2       56 GROUP        1 Y    SEP  0     ROOT SEP Y 9
     5 LYP4       53 GROUP        1 Y    LYP  0     **** LYP Y 11
     6 GLP5        3 GROUP        1 Y    GLP  0     **** GLP Y 13
     7 SEL2       55 GROUP        1 Z    SEL  0     ROOT SEL Z 16
     8 LYL4       52 GROUP        1 Z    LYL  0     **** LYL Z 18
     9 GLL5        2 GROUP        1 Z    GLL  0     **** GLL Z 20
@<TRIPOS>SET

