#    Name: 4m8h_R4M_1_ligand
#    Modification time : Tue Mar 25 11:57:13 2014

@<TRIPOS>MOLECULE
4m8h_R4M_1_ligand
   48    49     1     0     0
SMALL
NO_CHARGES


@<TRIPOS>ATOM
      1 C2'        63.5870   48.4850   31.4060 C.3       1 R4M500      0.0000 
      2 C1'        63.4680   48.2890   32.9220 C.3       1 R4M500      0.0000 
      3 C18        64.8330   48.1800   33.6030 C.3       1 R4M500      0.0000 
      4 C4'        64.6770   47.8940   35.0960 C.3       1 R4M500      0.0000 
      5 C5         65.7070   47.1240   32.9380 C.ar      1 R4M500      0.0000 
      6 C4         66.7430   46.5420   33.6640 C.ar      1 R4M500      0.0000 
      7 C3         67.5710   45.5920   33.0910 C.ar      1 R4M500      0.0000 
      8 C2         67.3780   45.2070   31.7680 C.ar      1 R4M500      0.0000 
      9 C1         66.3580   45.7900   31.0290 C.ar      1 R4M500      0.0000 
     10 C6         65.5410   46.7410   31.6240 C.ar      1 R4M500      0.0000 
     11 C7         64.5960   47.5080   30.8040 C.2       1 R4M500      0.0000 
     12 C8         64.6710   47.2950   29.4330 C.2       1 R4M500      0.0000 
     13 C9         63.8400   47.9750   28.4200 C.2       1 R4M500      0.0000 
     14 C19        64.5500   48.9130   27.4340 C.3       1 R4M500      0.0000 
     15 C10        62.4630   47.8470   28.3090 C.2       1 R4M500      0.0000 
     16 C11        61.5720   47.0270   29.1410 C.3       1 R4M500      0.0000 
     17 C12        60.2240   47.1750   28.8130 C.3       1 R4M500      0.0000 
     18 C13        59.1110   46.5020   29.4810 C.2       1 R4M500      0.0000 
     19 C20        59.3660   45.3650   30.4840 C.3       1 R4M500      0.0000 
     20 C14        57.8310   46.9460   29.1540 C.2       1 R4M500      0.0000 
     21 C15        56.6310   46.3560   29.7640 C.2       1 R4M500      0.0000 
     22 O1         55.6140   47.0750   29.8070 O.co2     1 R4M500      0.0000 
     23 O2         56.6890   45.1890   30.2220 O.co2     1 R4M500      0.0000 
     24 H          63.9080   49.5055   31.2024 H         1 R4M500      0.0000 
     25 H          62.6122   48.3240   30.9480 H         1 R4M500      0.0000 
     26 H          62.8943   47.3781   33.1196 H         1 R4M500      0.0000 
     27 H          62.9203   49.1350   33.3488 H         1 R4M500      0.0000 
     28 H          65.3367   49.1484   33.5010 H         1 R4M500      0.0000 
     29 H          66.8937   46.8271   34.6490 H         1 R4M500      0.0000 
     30 H          68.3308   45.1683   33.6414 H         1 R4M500      0.0000 
     31 H          67.9850   44.4984   31.3439 H         1 R4M500      0.0000 
     32 H          66.2093   45.5200   30.0508 H         1 R4M500      0.0000 
     33 H          65.3646   46.6003   29.0529 H         1 R4M500      0.0000 
     34 H          61.9640   48.3971   27.5375 H         1 R4M500      0.0000 
     35 H          61.7579   47.2873   30.2148 H         1 R4M500      0.0000 
     36 H          61.8950   45.9579   29.0514 H         1 R4M500      0.0000 
     37 H          60.0894   46.9731   27.6615 H         1 R4M500      0.0000 
     38 H          59.9595   48.3217   28.8037 H         1 R4M500      0.0000 
     39 H          57.6887   47.7022   28.4738 H         1 R4M500      0.0000 
     40 H          65.5625   47.8242   35.5553 H         1 R4M500      0.0000 
     41 H          64.1620   48.6145   35.5603 H         1 R4M500      0.0000 
     42 H          64.1927   47.0348   35.2609 H         1 R4M500      0.0000 
     43 H          65.0195   49.6601   27.9046 H         1 R4M500      0.0000 
     44 H          65.2376   48.4302   26.8917 H         1 R4M500      0.0000 
     45 H          63.9083   49.3296   26.7900 H         1 R4M500      0.0000 
     46 H          59.8504   44.5989   30.0616 H         1 R4M500      0.0000 
     47 H          59.9195   45.6704   31.2588 H         1 R4M500      0.0000 
     48 H          58.5129   45.0017   30.8584 H         1 R4M500      0.0000 
@<TRIPOS>BOND
     1    2    1 1    
     2   11    1 1    
     3   24    1 1    
     4   25    1 1    
     5    3    2 1    
     6   26    2 1    
     7   27    2 1    
     8    4    3 1    
     9    5    3 1    
    10   28    3 1    
    11   40    4 1    
    12   41    4 1    
    13   42    4 1    
    14    6    5 ar   
    15   10    5 ar   
    16    7    6 ar   
    17   29    6 1    
    18    8    7 ar   
    19   30    7 1    
    20    9    8 ar   
    21   31    8 1    
    22   10    9 ar   
    23   32    9 1    
    24   11   10 1    
    25   12   11 2    
    26   13   12 1    
    27   33   12 1    
    28   14   13 1    
    29   15   13 2    
    30   43   14 1    
    31   44   14 1    
    32   45   14 1    
    33   16   15 1    
    34   34   15 1    
    35   17   16 1    
    36   35   16 1    
    37   36   16 1    
    38   18   17 1    
    39   37   17 1    
    40   38   17 1    
    41   19   18 1    
    42   20   18 2    
    43   46   19 1    
    44   47   19 1    
    45   48   19 1    
    46   21   20 1    
    47   39   20 1    
    48   22   21 ar   
    49   23   21 ar   
@<TRIPOS>SUBSTRUCTURE
     1 R4M500      1 GROUP   
@<TRIPOS>SET

