#    Name: 3d91_REM_1_INTS_M
#    Modification time : Mon Mar 24 22:55:59 2014

@<TRIPOS>MOLECULE
3d91_REM_1_INTS_M
  112     0     9     0     0
SMALL
NO_CHARGES


@<TRIPOS>ATOM
      1 N          -1.4155    1.5330   -9.8180 N.am      2 SEC2        0.0000 
      2 N          -0.7120    2.4160   -8.5340 N.am      8 SEL2        0.0000 
      3 N          -2.1190    0.6500  -11.1020 N.am      5 SEP2        0.0000 
      4 CA          2.6810    5.5135  -10.9305 C.3       3 GLC5        0.0000 
      5 CA          1.7560    3.9310  -10.0640 C.3       9 GLL5        0.0000 
      6 CA          3.6060    7.0960  -11.7970 C.3       6 GLP5        0.0000 
      7 CA          0.7885    5.3975  -10.4005 C.3       3 GLC5        0.0000 
      8 CA         -0.1790    6.8640  -10.7370 C.3       6 GLP5        0.0000 
      9 CA          1.9585    3.6150  -12.0110 C.3       3 GLC5        0.0000 
     10 CA          2.1610    3.2990  -13.9580 C.3       6 GLP5        0.0000 
     11 CA          1.4750    1.8705  -11.9255 C.3       3 GLC5        0.0000 
     12 CA          1.6600    1.4730   -9.8610 C.3       9 GLL5        0.0000 
     13 CA          1.2900    2.2680  -13.9900 C.3       6 GLP5        0.0000 
     14 CA          0.1335    0.5640  -10.7915 C.3       3 GLC5        0.0000 
     15 CA         -1.3930   -0.3450  -11.7220 C.3       6 GLP5        0.0000 
     16 CA          0.0590    5.6225   -9.0715 C.3       3 GLC5        0.0000 
     17 CA          0.2970    4.3810   -7.4060 C.3       9 GLL5        0.0000 
     18 CA         -1.5185    2.9070   -5.1845 C.3       3 GLC5        0.0000 
     19 CA         -0.8670    4.5970   -6.4120 C.3       9 GLL5        0.0000 
     20 CA         -2.1700    1.2170   -3.9570 C.3       6 GLP5        0.0000 
     21 CA          1.7310    4.2855   -2.2590 C.3       3 GLC5        0.0000 
     22 CA          1.5000    6.3480   -2.9190 C.3       9 GLL5        0.0000 
     23 CA          1.9620    2.2230   -1.5990 C.3       6 GLP5        0.0000 
     24 CA          2.6850    7.6255   -1.6700 C.3       3 GLC5        0.0000 
     25 CA          3.8700    8.9030   -0.4210 C.3       6 GLP5        0.0000 
     26 CA          3.8475    7.8505   -2.4555 C.3       3 GLC5        0.0000 
     27 CA          2.6800    6.7380   -3.5220 C.3       9 GLL5        0.0000 
     28 CA          5.0150    8.9630   -1.3890 C.3       6 GLP5        0.0000 
     29 N          -2.4740    6.0530   -9.1930 N.am      2 SEC2        0.0000 
     30 N          -2.4010    4.9620   -8.1720 N.am      8 SEL2        0.0000 
     31 N          -2.5470    7.1440  -10.2140 N.am      5 SEP2        0.0000 
     32 O          -2.7735    3.3605   -5.1450 O.2       1 ALC1        0.0000 
     33 O          -3.1750    4.1090   -6.2320 O.2       7 ALL1        0.0000 
     34 O          -2.3720    2.6120   -4.0580 O.2       4 ALP1        0.0000 
     35 CA         -4.6680    5.6190   -8.0215 C.3       3 GLC5        0.0000 
     36 CA         -4.5450    4.0370   -6.7010 C.3       9 GLL5        0.0000 
     37 CA         -4.7910    7.2010   -9.3420 C.3       6 GLP5        0.0000 
     38 CA         -6.5230    1.5400  -11.2090 C.3       3 GLC5        0.0000 
     39 CA         -6.0110    2.5050   -9.4500 C.3       9 GLL5        0.0000 
     40 CA         -7.0350    0.5750  -12.9680 C.3       6 GLP5        0.0000 
     41 N          -7.7515    1.6780  -11.1680 N.am      2 SEC2        0.0000 
     42 N          -7.2130    2.4700   -9.9470 N.am      8 SEL2        0.0000 
     43 N          -8.2900    0.8860  -12.3890 N.am      5 SEP2        0.0000 
     44 O          -7.8455    1.9335   -6.3585 O.2       1 ALC1        0.0000 
     45 O          -7.2360    2.6230   -7.7560 O.2       7 ALL1        0.0000 
     46 O          -8.4550    1.2440   -4.9610 O.2       4 ALP1        0.0000 
     47 N          -5.0370    2.0680   -4.0270 N.am      2 SEC2        0.0000 
     48 N          -5.5070    3.3220   -4.7110 N.am      8 SEL2        0.0000 
     49 N          -4.5670    0.8140   -3.3430 N.am      5 SEP2        0.0000 
     50 O          -5.3550    6.7055   -6.0340 O.2       1 ALC1        0.0000 
     51 O          -5.9100    5.4730   -5.3510 O.2       7 ALL1        0.0000 
     52 O          -4.8000    7.9380   -6.7170 O.2       4 ALP1        0.0000 
     53 N          -8.5215    8.0195   -5.1935 N.am      2 SEC2        0.0000 
     54 N          -8.4830    6.7330   -5.3880 N.am      8 SEL2        0.0000 
     55 N          -8.5600    9.3060   -4.9990 N.am      5 SEP2        0.0000 
     56 O          -8.7790    6.7160   -6.5970 O.2       1 ALC1        0.0000 
     57 O          -8.4830    6.7330   -5.3880 O.2       7 ALL1        0.0000 
     58 O          -9.0750    6.6990   -7.8060 O.2       4 ALP1        0.0000 
     59 CA         -7.9645    2.5010   -5.0505 C.3       3 GLC5        0.0000 
     60 CA         -8.7130    4.4200   -5.0160 C.3       9 GLL5        0.0000 
     61 CA         -7.2160    0.5820   -5.0850 C.3       6 GLP5        0.0000 
     62 CA        -11.0645    1.4875   -7.2010 C.3       3 GLC5        0.0000 
     63 CA        -10.7920    3.4470   -6.1540 C.3       9 GLL5        0.0000 
     64 CA        -11.3370   -0.4720   -8.2480 C.3       6 GLP5        0.0000 
     65 N          -7.7250    2.3575   -3.4300 N.am      2 SEC2        0.0000 
     66 N          -8.2020    3.5190   -4.0760 N.am      8 SEL2        0.0000 
     67 N          -7.2480    1.1960   -2.7840 N.am      5 SEP2        0.0000 
     68 N          -8.3285    2.3815   -4.5185 N.am      2 SEC2        0.0000 
     69 N          -8.4550    1.2440   -4.9610 N.am      5 SEP2        0.0000 
     70 CA         -7.1240    9.1690   -3.6425 C.3       3 GLC5        0.0000 
     71 CA         -6.1200    7.1700   -3.8250 C.3       9 GLL5        0.0000 
     72 CA         -8.1280   11.1680   -3.4600 C.3       6 GLP5        0.0000 
     73 CA         -6.0110    8.6065   -5.4385 C.3       3 GLC5        0.0000 
     74 CA         -5.9020   10.0430   -7.0520 C.3       6 GLP5        0.0000 
     75 CA         -1.3715    7.0255    0.0040 C.3       3 GLC5        0.0000 
     76 CA         -2.2990    7.4520   -1.6730 C.3       9 GLL5        0.0000 
     77 CA         -0.4440    6.5990    1.6810 C.3       6 GLP5        0.0000 
     78 CA         -2.0700    5.7840    0.0140 C.3       3 GLC5        0.0000 
     79 CA         -2.9480    6.0550   -1.8460 C.3       9 GLL5        0.0000 
     80 CA         -1.1920    5.5130    1.8740 C.3       6 GLP5        0.0000 
     81 CA          3.0513    8.4072   -5.9860 C.3       3 GLC5        0.0000 
     82 CA          1.6100    6.6460   -5.6390 C.3       9 GLL5        0.0000 
     83 CA          3.9250   10.0520   -6.7100 C.3       6 GLP5        0.0000 
     84 CA         -3.4832    1.9703   -6.1453 C.3       3 GLC5        0.0000 
     85 CA         -2.3210    0.6010   -5.3170 C.3       6 GLP5        0.0000 
     86 CA         -6.2852    1.6010   -6.3862 C.3       3 GLC5        0.0000 
     87 CA         -4.7460    2.6420   -7.2460 C.3       9 GLL5        0.0000 
     88 CA         -5.8910    4.4203   -9.4028 C.3       3 GLC5        0.0000 
     89 CA         -5.9630    2.5980   -8.1290 C.3       9 GLL5        0.0000 
     90 CA         -5.7950    6.2890  -10.0160 C.3       6 GLP5        0.0000 
     91 CA         -6.0729    0.7917   -8.7254 C.3       3 GLC5        0.0000 
     92 CA         -6.4630   -0.9790   -8.8820 C.3       6 GLP5        0.0000 
     93 CA         -7.4885    5.6867   -2.3898 C.3       3 GLC5        0.0000 
     94 CA         -6.6730    5.7840   -4.1590 C.3       9 GLL5        0.0000 
     95 CA         -7.5490    5.5990   -0.4850 C.3       6 GLP5        0.0000 
     96 CA        -11.2460    6.4843   -5.5690 C.3       3 GLC5        0.0000 
     97 CA        -10.2300    4.2550   -4.9540 C.3       9 GLL5        0.0000 
     98 CA        -11.8620    8.3650   -5.6360 C.3       6 GLP5        0.0000 
     99 CA        -12.1340    4.4612   -7.5165 C.3       3 GLC5        0.0000 
    100 CA        -11.0300    4.9520   -6.0500 C.3       9 GLL5        0.0000 
    101 CA        -13.3570    4.7230   -8.9310 C.3       6 GLP5        0.0000 
    102 CA         -6.4783    6.3782   -2.0202 C.3       3 GLC5        0.0000 
    103 CA         -3.7395   10.4245   -3.5053 C.3       3 GLC5        0.0000 
    104 CA         -4.4040    8.5190   -2.6700 C.3       9 GLL5        0.0000 
    105 CA         -3.8350   12.2860   -4.4250 C.3       6 GLP5        0.0000 
    106 CA         -0.9157    8.7548   -2.1170 C.3       3 GLC5        0.0000 
    107 CA         -2.8840    8.6070   -2.5010 C.3       9 GLL5        0.0000 
    108 CA          0.7600    9.4800   -2.1470 C.3       6 GLP5        0.0000 
    109 CA         -3.4937    9.2778   -0.5296 C.3       3 GLC5        0.0000 
    110 CA         -4.0160   10.5480    1.0700 C.3       6 GLP5        0.0000 
    111 CA         -5.2033    5.3230   -1.0032 C.3       3 GLC5        0.0000 
    112 CA         -6.7130    4.5760    0.0150 C.3       6 GLP5        0.0000 
@<TRIPOS>BOND
@<TRIPOS>SUBSTRUCTURE
     1 ALC1       32 GROUP        1 X    ALC  0     ROOT ALC X 1
     2 SEC2        1 GROUP        1 X    SEC  0     **** SEC X 2
     3 GLC5        4 GROUP        1 X    GLC  0     **** GLC X 6
     4 ALP1       34 GROUP        1 Y    ALP  0     ROOT ALP Y 8
     5 SEP2        3 GROUP        1 Y    SEP  0     **** SEP Y 9
     6 GLP5        6 GROUP        1 Y    GLP  0     **** GLP Y 13
     7 ALL1       33 GROUP        1 Z    ALL  0     ROOT ALL Z 15
     8 SEL2        2 GROUP        1 Z    SEL  0     **** SEL Z 16
     9 GLL5        5 GROUP        1 Z    GLL  0     **** GLL Z 20
@<TRIPOS>SET

