#    Name: 3d91_REM_1_ligand
#    Modification time : Mon Mar 24 22:55:59 2014

@<TRIPOS>MOLECULE
3d91_REM_1_ligand
   94    97     1     0     0
SMALL
NO_CHARGES


@<TRIPOS>ATOM
      1 O41        -0.7120    2.4160   -8.5340 O.2       1 REM350      0.0000 
      2 S38         0.5450    2.8230   -7.9670 S.o2      1 REM350      0.0000 
      3 O40         0.8920    1.9090   -6.9370 O.2       1 REM350      0.0000 
      4 C39         1.8020    2.7610   -9.0760 C.3       1 REM350      0.0000 
      5 C44         3.1720    2.7680   -8.3870 C.3       1 REM350      0.0000 
      6 C43         1.7560    3.9310  -10.0640 C.3       1 REM350      0.0000 
      7 C42         1.6600    1.4730   -9.8610 C.3       1 REM350      0.0000 
      8 C37         0.2970    4.3810   -7.4060 C.3       1 REM350      0.0000 
      9 C1         -0.8670    4.5970   -6.4120 C.3       1 REM350      0.0000 
     10 C4         -0.8190    6.0240   -5.8690 C.3       1 REM350      0.0000 
     11 C5          0.4240    6.2650   -5.0360 C.ar      1 REM350      0.0000 
     12 C7          0.3630    6.1090   -3.6620 C.ar      1 REM350      0.0000 
     13 C9          1.5000    6.3480   -2.9190 C.ar      1 REM350      0.0000 
     14 C10         2.6800    6.7380   -3.5220 C.ar      1 REM350      0.0000 
     15 C8          2.7450    6.8790   -4.8850 C.ar      1 REM350      0.0000 
     16 C6          1.6100    6.6460   -5.6390 C.ar      1 REM350      0.0000 
     17 C2         -2.2160    4.5790   -7.0220 C.2       1 REM350      0.0000 
     18 O3         -2.4010    4.9620   -8.1720 O.2       1 REM350      0.0000 
     19 N11        -3.1750    4.1090   -6.2320 N.am      1 REM350      0.0000 
     20 C12        -4.5450    4.0370   -6.7010 C.3       1 REM350      0.0000 
     21 C15        -4.7460    2.6420   -7.2460 C.3       1 REM350      0.0000 
     22 C16        -5.9630    2.5980   -8.1290 C.2       1 REM350      0.0000 
     23 C18        -6.0110    2.5050   -9.4500 C.2       1 REM350      0.0000 
     24 N20        -7.2130    2.4700   -9.9470 N.2       1 REM350      0.0000 
     25 C19        -8.0240    2.5580   -8.8550 C.2       1 REM350      0.0000 
     26 N17        -7.2360    2.6230   -7.7560 N.pl3     1 REM350      0.0000 
     27 C13        -5.3800    4.2420   -5.5050 C.2       1 REM350      0.0000 
     28 O14        -5.5070    3.3220   -4.7110 O.2       1 REM350      0.0000 
     29 N24        -5.9100    5.4730   -5.3510 N.am      1 REM350      0.0000 
     30 C21        -6.6730    5.7840   -4.1590 C.3       1 REM350      0.0000 
     31 C22        -8.1830    5.7650   -4.4300 C.3       1 REM350      0.0000 
     32 O25        -8.4830    6.7330   -5.3880 O.3       1 REM350      0.0000 
     33 C23        -8.7130    4.4200   -5.0160 C.3       1 REM350      0.0000 
     34 C34       -10.2300    4.2550   -4.9540 C.3       1 REM350      0.0000 
     35 C36       -11.0300    4.9520   -6.0500 C.3       1 REM350      0.0000 
     36 C35       -10.7920    3.4470   -6.1540 C.3       1 REM350      0.0000 
     37 O26        -8.2020    3.5190   -4.0760 O.3       1 REM350      0.0000 
     38 C27        -6.1200    7.1700   -3.8250 C.3       1 REM350      0.0000 
     39 C28        -4.6950    7.1450   -3.2860 C.3       1 REM350      0.0000 
     40 C33        -4.4040    8.5190   -2.6700 C.3       1 REM350      0.0000 
     41 C32        -2.8840    8.6070   -2.5010 C.3       1 REM350      0.0000 
     42 C31        -2.2990    7.4520   -1.6730 C.3       1 REM350      0.0000 
     43 C30        -2.9480    6.0550   -1.8460 C.3       1 REM350      0.0000 
     44 C29        -4.4390    6.0850   -2.1970 C.3       1 REM350      0.0000 
     45 H           0.1538    4.9985   -8.3063 H         1 REM350      0.0000 
     46 H           1.2526    4.6856   -6.9517 H         1 REM350      0.0000 
     47 H          -0.8092    3.9349   -5.5996 H         1 REM350      0.0000 
     48 H          -1.7080    6.2019   -5.2570 H         1 REM350      0.0000 
     49 H          -0.8366    6.7249   -6.7086 H         1 REM350      0.0000 
     50 H          -0.5073    5.8227   -3.2099 H         1 REM350      0.0000 
     51 H           1.4695    6.2328   -1.8858 H         1 REM350      0.0000 
     52 H           3.5150    6.9233   -2.9402 H         1 REM350      0.0000 
     53 H           3.6214    7.1534   -5.3430 H         1 REM350      0.0000 
     54 H           1.6470    6.7578   -6.6687 H         1 REM350      0.0000 
     55 H          -2.9983    3.7794   -5.2684 H         1 REM350      0.0000 
     56 H          -4.7372    4.7523   -7.4341 H         1 REM350      0.0000 
     57 H          -4.8699    1.9444   -6.4166 H         1 REM350      0.0000 
     58 H          -3.8662    2.3481   -7.8200 H         1 REM350      0.0000 
     59 H          -5.1673    2.4649  -10.0198 H         1 REM350      0.0000 
     60 H          -8.9826    2.5711   -8.8685 H         1 REM350      0.0000 
     61 H          -7.5670    2.6790   -6.8412 H         1 REM350      0.0000 
     62 H          -5.7988    6.2159   -6.0481 H         1 REM350      0.0000 
     63 H          -6.4137    5.1224   -3.3732 H         1 REM350      0.0000 
     64 H          -8.7106    5.9483   -3.5109 H         1 REM350      0.0000 
     65 H          -8.3355    4.2733   -5.9601 H         1 REM350      0.0000 
     66 H         -10.7779    4.0962   -4.2327 H         1 REM350      0.0000 
     67 H         -10.4147    5.3812   -6.6281 H         1 REM350      0.0000 
     68 H         -11.9105    5.0823   -5.7263 H         1 REM350      0.0000 
     69 H         -11.5701    3.0139   -5.8471 H         1 REM350      0.0000 
     70 H         -10.0742    3.3128   -6.7489 H         1 REM350      0.0000 
     71 H          -6.7778    7.6460   -3.0812 H         1 REM350      0.0000 
     72 H          -6.1508    7.7936   -4.7320 H         1 REM350      0.0000 
     73 H          -4.0021    6.9981   -4.0927 H         1 REM350      0.0000 
     74 H          -4.8766    8.5897   -1.7129 H         1 REM350      0.0000 
     75 H          -4.7366    9.2876   -3.3357 H         1 REM350      0.0000 
     76 H          -2.6321    9.5570   -2.0124 H         1 REM350      0.0000 
     77 H          -2.4126    8.6073   -3.4922 H         1 REM350      0.0000 
     78 H          -2.3483    7.7261   -0.5944 H         1 REM350      0.0000 
     79 H          -1.2134    7.3612   -1.9054 H         1 REM350      0.0000 
     80 H          -2.8088    5.4885   -0.9109 H         1 REM350      0.0000 
     81 H          -2.4023    5.5132   -2.6355 H         1 REM350      0.0000 
     82 H          -4.7418    5.1149   -2.5685 H         1 REM350      0.0000 
     83 H          -5.0124    6.3376   -1.3148 H         1 REM350      0.0000 
     84 H           3.9208    2.7327   -9.0489 H         1 REM350      0.0000 
     85 H           3.3064    3.5916   -7.8360 H         1 REM350      0.0000 
     86 H           3.2842    1.9848   -7.7755 H         1 REM350      0.0000 
     87 H           1.8190    4.8134   -9.5978 H         1 REM350      0.0000 
     88 H           2.5089    3.8921  -10.7210 H         1 REM350      0.0000 
     89 H           0.9066    3.9383  -10.5917 H         1 REM350      0.0000 
     90 H           2.3824    1.3735  -10.5452 H         1 REM350      0.0000 
     91 H           1.7057    0.6694   -9.2676 H         1 REM350      0.0000 
     92 H           0.7874    1.4289  -10.3475 H         1 REM350      0.0000 
     93 H          -8.6875    6.2183   -6.2206 H         1 REM350      0.0000 
     94 H          -7.2637    3.8225   -3.9103 H         1 REM350      0.0000 
@<TRIPOS>BOND
     1    2    1 2    
     2    3    2 2    
     3    4    2 1    
     4    8    2 1    
     5    5    4 1    
     6    6    4 1    
     7    7    4 1    
     8   84    5 1    
     9   85    5 1    
    10   86    5 1    
    11   87    6 1    
    12   88    6 1    
    13   89    6 1    
    14   90    7 1    
    15   91    7 1    
    16   92    7 1    
    17    9    8 1    
    18   45    8 1    
    19   46    8 1    
    20   10    9 1    
    21   17    9 1    
    22   47    9 1    
    23   11   10 1    
    24   48   10 1    
    25   49   10 1    
    26   12   11 ar   
    27   16   11 ar   
    28   13   12 ar   
    29   50   12 1    
    30   14   13 ar   
    31   51   13 1    
    32   15   14 ar   
    33   52   14 1    
    34   16   15 ar   
    35   53   15 1    
    36   54   16 1    
    37   18   17 2    
    38   19   17 am   
    39   20   19 1    
    40   55   19 1    
    41   21   20 1    
    42   27   20 1    
    43   56   20 1    
    44   22   21 1    
    45   57   21 1    
    46   58   21 1    
    47   23   22 2    
    48   26   22 1    
    49   24   23 1    
    50   59   23 1    
    51   25   24 2    
    52   26   25 1    
    53   60   25 1    
    54   61   26 1    
    55   28   27 2    
    56   29   27 am   
    57   30   29 1    
    58   62   29 1    
    59   31   30 1    
    60   38   30 1    
    61   63   30 1    
    62   32   31 1    
    63   33   31 1    
    64   64   31 1    
    65   93   32 1    
    66   34   33 1    
    67   37   33 1    
    68   65   33 1    
    69   35   34 1    
    70   36   34 1    
    71   66   34 1    
    72   36   35 1    
    73   67   35 1    
    74   68   35 1    
    75   69   36 1    
    76   70   36 1    
    77   94   37 1    
    78   39   38 1    
    79   71   38 1    
    80   72   38 1    
    81   40   39 1    
    82   44   39 1    
    83   73   39 1    
    84   41   40 1    
    85   74   40 1    
    86   75   40 1    
    87   42   41 1    
    88   76   41 1    
    89   77   41 1    
    90   43   42 1    
    91   78   42 1    
    92   79   42 1    
    93   44   43 1    
    94   80   43 1    
    95   81   43 1    
    96   82   44 1    
    97   83   44 1    
@<TRIPOS>SUBSTRUCTURE
     1 REM350      1 GROUP   
@<TRIPOS>SET

