#    Name: 4jse_QJ2_2_INTS_M
#    Modification time : Tue Mar 25 06:15:53 2014

@<TRIPOS>MOLECULE
4jse_QJ2_2_INTS_M
   40     0     6     0     0
SMALL
NO_CHARGES


@<TRIPOS>ATOM
      1 O           5.0880    6.1205   21.7280 O.2       1 ALC1        0.0000 
      2 O           5.7950    5.9330   22.9950 O.2       5 ALL1        0.0000 
      3 O           4.3810    6.3080   20.4610 O.2       3 ALP1        0.0000 
      4 CA          7.3160    3.9565   28.0185 C.3       2 GLC5        0.0000 
      5 CA          6.9750    2.8140   26.3810 C.3       6 GLL5        0.0000 
      6 CA          7.6570    5.0990   29.6560 C.3       4 GLP5        0.0000 
      7 CA          8.7400    3.8620   27.7345 C.3       2 GLC5        0.0000 
      8 CA          8.4780    2.9300   26.0930 C.3       6 GLL5        0.0000 
      9 CA          9.0020    4.7940   29.3760 C.3       4 GLP5        0.0000 
     10 O          14.8325   -1.4465   24.7570 O.2       1 ALC1        0.0000 
     11 O          15.2490   -0.7550   23.7540 O.2       5 ALL1        0.0000 
     12 O          14.4160   -2.1380   25.7600 O.2       3 ALP1        0.0000 
     13 CA         16.0340    0.8010   20.3755 C.3       2 GLC5        0.0000 
     14 CA         14.7360    0.9750   22.1460 C.3       6 GLL5        0.0000 
     15 CA         17.3320    0.6270   18.6050 C.3       4 GLP5        0.0000 
     16 CA         13.4875    4.3805   19.7290 C.3       2 GLC5        0.0000 
     17 CA         13.9970    2.8040   20.5090 C.3       6 GLL5        0.0000 
     18 CA         12.9780    5.9570   18.9490 C.3       4 GLP5        0.0000 
     19 CA         14.2205    2.4665   18.5590 C.3       2 GLC5        0.0000 
     20 CA         14.4440    2.1290   16.6090 C.3       4 GLP5        0.0000 
     21 CA         15.6645    1.7155   19.5570 C.3       2 GLC5        0.0000 
     22 CA          6.7265    4.7940   21.6188 C.3       2 GLC5        0.0000 
     23 CA          5.7160    4.6490   23.4010 C.3       6 GLL5        0.0000 
     24 CA          8.0600    5.4330   20.2160 C.3       4 GLP5        0.0000 
     25 CA          5.5855    0.8690   21.2712 C.3       2 GLC5        0.0000 
     26 CA          4.3370    1.2310   22.3950 C.3       6 GLL5        0.0000 
     27 CA          6.4860   -0.0500   19.7710 C.3       4 GLP5        0.0000 
     28 CA          3.3181    2.2300   21.2845 C.3       2 GLC5        0.0000 
     29 CA          1.9420    2.3430   19.9240 C.3       4 GLP5        0.0000 
     30 CA          9.4882    2.7652   22.8763 C.3       2 GLC5        0.0000 
     31 CA          8.8850    2.0330   24.9320 C.3       6 GLL5        0.0000 
     32 CA          9.3720    3.3870   21.0420 C.3       4 GLP5        0.0000 
     33 CA         14.3240   -0.8735   21.5130 C.3       2 GLC5        0.0000 
     34 CA         14.3960    0.1390   23.2260 C.3       6 GLL5        0.0000 
     35 CA         14.0820   -2.3040   20.3400 C.3       4 GLP5        0.0000 
     36 CA         12.8195   -0.2264   21.3768 C.3       2 GLC5        0.0000 
     37 CA         13.7630    1.8550   21.6780 C.3       6 GLL5        0.0000 
     38 CA         12.5760   -2.0880   20.5070 C.3       4 GLP5        0.0000 
     39 CA         10.6949    2.3925   22.0119 C.3       2 GLC5        0.0000 
     40 CA         12.5110    1.8410   22.2770 C.3       6 GLL5        0.0000 
@<TRIPOS>BOND
@<TRIPOS>SUBSTRUCTURE
     1 ALC1        1 GROUP        1 X    ALC  0     ROOT ALC X 1
     2 GLC5        4 GROUP        1 X    GLC  0     **** GLC X 6
     3 ALP1        3 GROUP        1 Y    ALP  0     ROOT ALP Y 8
     4 GLP5        6 GROUP        1 Y    GLP  0     **** GLP Y 13
     5 ALL1        2 GROUP        1 Z    ALL  0     ROOT ALL Z 15
     6 GLL5        5 GROUP        1 Z    GLL  0     **** GLL Z 20
@<TRIPOS>SET

