#    Name: 4jse_QJ2_2_ligand
#    Modification time : Tue Mar 25 06:15:53 2014

@<TRIPOS>MOLECULE
4jse_QJ2_2_ligand
   45    46     1     0     0
SMALL
NO_CHARGES


@<TRIPOS>ATOM
      1 N22         5.7950    5.9330   22.9950 N.pl3     1 QJ2805      0.0000 
      2 C22         5.7160    4.6490   23.4010 C.ar      1 QJ2805      0.0000 
      3 C23         5.0700    3.6610   22.6420 C.ar      1 QJ2805      0.0000 
      4 C24         5.0330    2.3450   23.1480 C.ar      1 QJ2805      0.0000 
      5 C27         4.3370    1.2310   22.3950 C.3       1 QJ2805      0.0000 
      6 C25         5.6490    2.0470   24.3730 C.ar      1 QJ2805      0.0000 
      7 N21         6.3040    4.3310   24.5840 N.ar      1 QJ2805      0.0000 
      8 C26         6.2800    3.0740   25.0770 C.ar      1 QJ2805      0.0000 
      9 C12         6.9750    2.8140   26.3810 C.3       1 QJ2805      0.0000 
     10 C11         8.4780    2.9300   26.0930 C.3       1 QJ2805      0.0000 
     11 C10         8.8850    2.0330   24.9320 C.3       1 QJ2805      0.0000 
     12 C09        10.3240    2.2540   24.4890 C.3       1 QJ2805      0.0000 
     13 C08        10.8340    0.9200   24.0200 C.3       1 QJ2805      0.0000 
     14 C06        12.2150    0.9900   23.3530 C.ar      1 QJ2805      0.0000 
     15 N01        13.1700    0.1670   23.7920 N.ar      1 QJ2805      0.0000 
     16 C02        14.3960    0.1390   23.2260 C.ar      1 QJ2805      0.0000 
     17 N02        15.2490   -0.7550   23.7540 N.pl3     1 QJ2805      0.0000 
     18 C03        14.7360    0.9750   22.1460 C.ar      1 QJ2805      0.0000 
     19 C04        13.7630    1.8550   21.6780 C.ar      1 QJ2805      0.0000 
     20 C05        12.5110    1.8410   22.2770 C.ar      1 QJ2805      0.0000 
     21 C07        13.9970    2.8040   20.5090 C.3       1 QJ2805      0.0000 
     22 H           6.2505    6.5654   23.6216 H         1 QJ2805      0.0000 
     23 H           5.3910    6.1383   22.1036 H         1 QJ2805      0.0000 
     24 H           4.6407    3.8838   21.7540 H         1 QJ2805      0.0000 
     25 H           5.6342    1.0980   24.7389 H         1 QJ2805      0.0000 
     26 H           6.7607    1.8231   26.7287 H         1 QJ2805      0.0000 
     27 H           6.6995    3.5534   27.1063 H         1 QJ2805      0.0000 
     28 H           9.0332    2.6429   26.9858 H         1 QJ2805      0.0000 
     29 H           8.7137    3.9662   25.8514 H         1 QJ2805      0.0000 
     30 H           8.2143    2.2198   24.0817 H         1 QJ2805      0.0000 
     31 H           8.7573    0.9824   25.2281 H         1 QJ2805      0.0000 
     32 H          10.9052    2.6000   25.3234 H         1 QJ2805      0.0000 
     33 H          10.3442    2.9626   23.6821 H         1 QJ2805      0.0000 
     34 H          10.1219    0.4828   23.3005 H         1 QJ2805      0.0000 
     35 H          10.8950    0.2251   24.8740 H         1 QJ2805      0.0000 
     36 H          16.2209   -0.5299   23.6848 H         1 QJ2805      0.0000 
     37 H          14.8358   -1.5656   24.1690 H         1 QJ2805      0.0000 
     38 H          15.6541    0.9332   21.7301 H         1 QJ2805      0.0000 
     39 H          11.7677    2.4759   21.9237 H         1 QJ2805      0.0000 
     40 H           4.7343    1.0910   21.4881 H         1 QJ2805      0.0000 
     41 H           4.3998    0.3589   22.8803 H         1 QJ2805      0.0000 
     42 H           3.3646    1.4233   22.2625 H         1 QJ2805      0.0000 
     43 H          14.7493    3.4375   20.6898 H         1 QJ2805      0.0000 
     44 H          14.2248    2.3103   19.6697 H         1 QJ2805      0.0000 
     45 H          13.1880    3.3581   20.3128 H         1 QJ2805      0.0000 
@<TRIPOS>BOND
     1    2    1 1    
     2   22    1 1    
     3   23    1 1    
     4    3    2 ar   
     5    7    2 ar   
     6    4    3 ar   
     7   24    3 1    
     8    5    4 1    
     9    6    4 ar   
    10   40    5 1    
    11   41    5 1    
    12   42    5 1    
    13    8    6 ar   
    14   25    6 1    
    15    8    7 ar   
    16    9    8 1    
    17   10    9 1    
    18   26    9 1    
    19   27    9 1    
    20   11   10 1    
    21   28   10 1    
    22   29   10 1    
    23   12   11 1    
    24   30   11 1    
    25   31   11 1    
    26   13   12 1    
    27   32   12 1    
    28   33   12 1    
    29   14   13 1    
    30   34   13 1    
    31   35   13 1    
    32   15   14 ar   
    33   20   14 ar   
    34   16   15 ar   
    35   17   16 1    
    36   18   16 ar   
    37   36   17 1    
    38   37   17 1    
    39   19   18 ar   
    40   38   18 1    
    41   20   19 ar   
    42   21   19 1    
    43   39   20 1    
    44   43   21 1    
    45   44   21 1    
    46   45   21 1    
@<TRIPOS>SUBSTRUCTURE
     1 QJ2805      1 GROUP   
@<TRIPOS>SET

