#    Name: 3fl5_TXQ_1_INTS_M
#    Modification time : Tue Mar 25 05:40:00 2014

@<TRIPOS>MOLECULE
3fl5_TXQ_1_INTS_M
   48     0     9     0     0
SMALL
NO_CHARGES


@<TRIPOS>ATOM
      1 CA         20.1515    6.6340   22.7755 C.3       3 GLC5        0.0000 
      2 CA         22.0200    6.6860   22.0070 C.3       9 GLL5        0.0000 
      3 CA         18.2830    6.5820   23.5440 C.3       6 GLP5        0.0000 
      4 CA         24.5225    5.0205   22.8940 C.3       3 GLC5        0.0000 
      5 CA         22.8680    5.5850   21.8280 C.3       9 GLL5        0.0000 
      6 CA         26.1770    4.4560   23.9600 C.3       6 GLP5        0.0000 
      7 N          23.6910    2.9970   20.0105 N.am      1 SEC2        0.0000 
      8 N          24.2840    4.2960   20.3930 N.am      7 SEL2        0.0000 
      9 N          23.0980    1.6980   19.6280 N.am      4 SEP2        0.0000 
     10 CA         20.9535    7.9735   15.7320 C.3       3 GLC5        0.0000 
     11 CA         22.4880    8.8950   16.1470 C.3       9 GLL5        0.0000 
     12 CA         19.4190    7.0520   15.3170 C.3       6 GLP5        0.0000 
     13 CA         25.8670    7.7005   14.5260 C.3       3 GLC5        0.0000 
     14 CA         23.9250    7.5510   14.7350 C.3       9 GLL5        0.0000 
     15 CA         27.8090    7.8500   14.3170 C.3       6 GLP5        0.0000 
     16 CA         23.7370    5.9385   13.5900 C.3       3 GLC5        0.0000 
     17 CA         23.5490    4.3260   12.4450 C.3       6 GLP5        0.0000 
     18 N          25.7175    6.6250   13.2360 N.am      1 SEC2        0.0000 
     19 N          24.5160    7.2930   13.5340 N.am      7 SEL2        0.0000 
     20 N          26.9190    5.9570   12.9380 N.am      4 SEP2        0.0000 
     21 N          23.4480    6.2085   13.1800 N.am      1 SEC2        0.0000 
     22 N          22.3800    5.1240   12.8260 N.am      4 SEP2        0.0000 
     23 NZ         25.9525    5.7890   14.2815 N.4       2 LYC4        0.0000 
     24 NZ         24.9860    5.6210   15.6250 N.4       8 LYL4        0.0000 
     25 NZ         26.9190    5.9570   12.9380 N.4       5 LYP4        0.0000 
     26 N          25.9525    5.7890   14.2815 N.am      1 SEC2        0.0000 
     27 N          24.9860    5.6210   15.6250 N.am      7 SEL2        0.0000 
     28 CA         24.4147    7.6470   19.7377 C.3       3 GLC5        0.0000 
     29 CA         23.2160    6.2310   19.5150 C.3       9 GLL5        0.0000 
     30 CA         26.0370    8.5150   19.8710 C.3       6 GLP5        0.0000 
     31 CA         21.5328    5.4695   19.8732 C.3       3 GLC5        0.0000 
     32 CA         20.2730    4.1600   20.1420 C.3       6 GLP5        0.0000 
     33 CA         22.0048    5.6330   18.1583 C.3       3 GLC5        0.0000 
     34 CA         21.2170    4.4870   16.7120 C.3       6 GLP5        0.0000 
     35 CA         23.4590    7.5297   22.7257 C.3       3 GLC5        0.0000 
     36 CA         24.4740    8.9240   23.5340 C.3       6 GLP5        0.0000 
     37 CA         21.3585    5.1478   21.0297 C.3       3 GLC5        0.0000 
     38 CA         24.5962    7.9935   18.5015 C.3       3 GLC5        0.0000 
     39 CA         23.5790    6.9220   17.0460 C.3       9 GLL5        0.0000 
     40 CA         23.5560    9.9503   17.5658 C.3       3 GLC5        0.0000 
     41 CA         22.7320    8.0220   17.2180 C.3       9 GLL5        0.0000 
     42 CA         24.5020   11.4420   18.4490 C.3       6 GLP5        0.0000 
     43 CA         22.1863    5.9795   16.9220 C.3       3 GLC5        0.0000 
     44 CA         21.4922    9.7995   14.6420 C.3       3 GLC5        0.0000 
     45 CA         20.1980   10.8240   13.7610 C.3       6 GLP5        0.0000 
     46 CA         21.9260    7.0265   14.7970 C.3       3 GLC5        0.0000 
     47 CA         23.0850    8.6550   14.8990 C.3       9 GLL5        0.0000 
     48 CA         20.3470    5.9500   14.7770 C.3       6 GLP5        0.0000 
@<TRIPOS>BOND
@<TRIPOS>SUBSTRUCTURE
     1 SEC2        7 GROUP        1 X    SEC  0     ROOT SEC X 2
     2 LYC4       23 GROUP        1 X    LYC  0     **** LYC X 4
     3 GLC5        1 GROUP        1 X    GLC  0     **** GLC X 6
     4 SEP2        9 GROUP        1 Y    SEP  0     ROOT SEP Y 9
     5 LYP4       25 GROUP        1 Y    LYP  0     **** LYP Y 11
     6 GLP5        3 GROUP        1 Y    GLP  0     **** GLP Y 13
     7 SEL2        8 GROUP        1 Z    SEL  0     ROOT SEL Z 16
     8 LYL4       24 GROUP        1 Z    LYL  0     **** LYL Z 18
     9 GLL5        2 GROUP        1 Z    GLL  0     **** GLL Z 20
@<TRIPOS>SET

