#    Name: 3fl5_TXQ_1_ligand
#    Modification time : Tue Mar 25 05:40:00 2014

@<TRIPOS>MOLECULE
3fl5_TXQ_1_ligand
   25    27     1     0     0
SMALL
NO_CHARGES


@<TRIPOS>ATOM
      1 O18        21.3460    9.2370   18.7070 O.2       1 TXQ338      0.0000 
      2 C9         22.1030    8.2550   18.5470 C.2       1 TXQ338      0.0000 
      3 C8         22.3690    7.3270   19.6940 C.ar      1 TXQ338      0.0000 
      4 C13        21.7700    7.5490   20.9400 C.ar      1 TXQ338      0.0000 
      5 O17        20.9500    8.6270   21.1120 O.co2     1 TXQ338      0.0000 
      6 C12        22.0200    6.6860   22.0070 C.ar      1 TXQ338      0.0000 
      7 C11        22.8680    5.5850   21.8280 C.ar      1 TXQ338      0.0000 
      8 C14        23.4590    5.3640   20.5810 C.ar      1 TXQ338      0.0000 
      9 O16        24.2840    4.2960   20.3930 O.co2     1 TXQ338      0.0000 
     10 C7         23.2160    6.2310   19.5150 C.ar      1 TXQ338      0.0000 
     11 C10        23.8500    5.9900   18.1810 C.2       1 TXQ338      0.0000 
     12 O19        24.5980    5.0020   18.0080 O.2       1 TXQ338      0.0000 
     13 C2         22.7320    8.0220   17.2180 C.ar      1 TXQ338      0.0000 
     14 C1         23.5790    6.9220   17.0460 C.ar      1 TXQ338      0.0000 
     15 C3         22.4880    8.8950   16.1470 C.ar      1 TXQ338      0.0000 
     16 C4         23.0850    8.6550   14.8990 C.ar      1 TXQ338      0.0000 
     17 C5         23.9250    7.5510   14.7350 C.ar      1 TXQ338      0.0000 
     18 O20        24.5160    7.2930   13.5340 O.3       1 TXQ338      0.0000 
     19 C6         24.1650    6.6900   15.7990 C.ar      1 TXQ338      0.0000 
     20 O15        24.9860    5.6210   15.6250 O.co2     1 TXQ338      0.0000 
     21 H          21.5864    6.8542   22.9197 H         1 TXQ338      0.0000 
     22 H          23.0523    4.9478   22.6063 H         1 TXQ338      0.0000 
     23 H          21.8763    9.7051   16.2747 H         1 TXQ338      0.0000 
     24 H          22.9037    9.2873   14.1159 H         1 TXQ338      0.0000 
     25 H          23.7894    6.9067   12.9658 H         1 TXQ338      0.0000 
@<TRIPOS>BOND
     1    2    1 2    
     2    3    2 1    
     3   13    2 1    
     4    4    3 ar   
     5   10    3 ar   
     6    5    4 ar   
     7    6    4 ar   
     8    7    6 ar   
     9   21    6 1    
    10    8    7 ar   
    11   22    7 1    
    12    9    8 ar   
    13   10    8 ar   
    14   11   10 1    
    15   12   11 2    
    16   14   11 1    
    17   14   13 ar   
    18   15   13 ar   
    19   19   14 ar   
    20   16   15 ar   
    21   23   15 1    
    22   17   16 ar   
    23   24   16 1    
    24   18   17 1    
    25   19   17 ar   
    26   25   18 1    
    27   20   19 ar   
@<TRIPOS>SUBSTRUCTURE
     1 TXQ338      1 GROUP   
@<TRIPOS>SET

