#    Name: 3CHQ_2_CAVITY_N1_6.mol2
#    Modification time : Tue Mar 11 14:09:42 2014

@<TRIPOS>MOLECULE
3CHQ_2_CAVITY_N1_6.mol2
   32     0     6     0     0
SMALL
NO_CHARGES


@<TRIPOS>ATOM
      1 OG         16.0101   44.4055   71.2044 O.2       1 SER1        0.0000 
      2 CZ         17.8755   42.0633   71.0180 C.ar      4 PHE5        0.0000 
      3 OG         16.9978   45.2516   70.4571 O.2       1 SER1        0.0000 
      4 DU         18.8632   42.9095   70.2707 H         6 CUB7        0.0000 
      5 CZ         15.4292   46.0194   69.2531 C.ar      4 PHE5        0.0000 
      6 OG         16.3619   44.8484   69.1599 O.2       1 SER1        0.0000 
      7 OG         17.2945   43.6773   69.0667 O.2       1 SER1        0.0000 
      8 CZ         18.2272   42.5062   68.9734 C.ar      4 PHE5        0.0000 
      9 CZ         19.1599   41.3352   68.8802 C.ar      4 PHE5        0.0000 
     10 CZ         20.0926   40.1641   68.7870 C.ar      4 PHE5        0.0000 
     11 OG         15.7259   44.4451   67.8626 O.2       1 SER1        0.0000 
     12 OG         16.6586   43.2740   67.7694 O.2       1 SER1        0.0000 
     13 CZ         17.5912   42.1030   67.6762 C.ar      4 PHE5        0.0000 
     14 OG         16.0226   42.8708   66.4721 O.2       1 SER1        0.0000 
     15 OG         16.9553   41.6997   66.3789 O.2       1 SER1        0.0000 
     16 O          17.3496   45.6945   68.4126 O.2       2 ALA2        0.0000 
     17 DU         18.2823   44.5235   68.3194 H         6 CUB7        0.0000 
     18 DU         19.2150   43.3524   68.2262 H         6 CUB7        0.0000 
     19 DU         20.1477   42.1813   68.1330 H         6 CUB7        0.0000 
     20 O          21.0803   41.0102   68.0398 O.2       2 ALA2        0.0000 
     21 O          16.7136   45.2913   67.1153 O.2       2 ALA2        0.0000 
     22 O          17.6463   44.1202   67.0221 O.2       2 ALA2        0.0000 
     23 N          18.5790   42.9491   66.9289 N.2       2 ALA2        0.0000 
     24 N          19.5117   41.7780   66.8357 N.2       2 ALA2        0.0000 
     25 N          17.0103   43.7169   65.7248 N.2       2 ALA2        0.0000 
     26 NZ         17.9430   42.5459   65.6316 N.2       3 LYS4        0.0000 
     27 CA         19.2700   45.3696   67.5721 C.3       5 GLY6        0.0000 
     28 CA         20.2027   44.1985   67.4789 C.3       5 GLY6        0.0000 
     29 DU         21.1354   43.0275   67.3857 H         6 CUB7        0.0000 
     30 O          18.6340   44.9663   66.2749 O.2       2 ALA2        0.0000 
     31 NZ         19.5667   43.7953   66.1817 N.2       3 LYS4        0.0000 
     32 CA         21.1905   45.0447   66.7317 C.3       5 GLY6        0.0000 
@<TRIPOS>BOND
@<TRIPOS>SUBSTRUCTURE
     1 SER1        1 GROUP   
     2 ALA2       16 GROUP   
     3 LYS4       26 GROUP   
     4 PHE5        2 GROUP   
     5 GLY6       27 GROUP   
     6 CUB7        4 GROUP   
@<TRIPOS>SET

