#    Name: 3chq_4BQ_2_INTS_M
#    Modification time : Mon Mar 24 21:28:31 2014

@<TRIPOS>MOLECULE
3chq_4BQ_2_INTS_M
   64     0    15     0     0
SMALL
NO_CHARGES


@<TRIPOS>ATOM
      1 CA         11.1395   36.3620   73.0035 C.3       5 GLC5        0.0000 
      2 CA          9.0680   36.3750   73.2630 C.3      15 GLL5        0.0000 
      3 CA         13.2110   36.3490   72.7440 C.3      10 GLP5        0.0000 
      4 CA          6.3735   35.5290   69.7130 C.3       5 GLC5        0.0000 
      5 CA          7.9100   36.1130   71.1390 C.3      15 GLL5        0.0000 
      6 CA          4.8370   34.9450   68.2870 C.3      10 GLP5        0.0000 
      7 CA          6.1060   39.0370   68.2015 C.3       5 GLC5        0.0000 
      8 CA          7.0270   38.0450   69.9710 C.3      15 GLL5        0.0000 
      9 CA          5.1850   40.0290   66.4320 C.3      10 GLP5        0.0000 
     10 CA          5.9320   36.4950   69.1290 C.3       5 GLC5        0.0000 
     11 CA          5.3965   39.1395   70.0695 C.3       5 GLC5        0.0000 
     12 CA          3.7660   40.2340   70.1680 C.3      10 GLP5        0.0000 
     13 CA          6.4185   42.8245   70.4275 C.3       5 GLC5        0.0000 
     14 CA          7.4770   41.5780   68.9540 C.3      15 GLL5        0.0000 
     15 CA          5.3600   44.0710   71.9010 C.3      10 GLP5        0.0000 
     16 CA         12.1865   43.3365   63.7470 C.3       5 GLC5        0.0000 
     17 CA         12.3620   43.3750   65.8280 C.3      15 GLL5        0.0000 
     18 CA         12.0110   43.2980   61.6660 C.3      10 GLP5        0.0000 
     19 CA         13.1835   42.8150   63.1250 C.3       5 GLC5        0.0000 
     20 CA         14.3560   42.3320   64.5840 C.3      15 GLL5        0.0000 
     21 Zn         16.4325   39.9625   65.3775 Zn        4 ZIC7        0.0000 
     22 Zn         15.9050   40.8690   65.6020 Zn       14 ZIL7        0.0000 
     23 Zn         16.9600   39.0560   65.1530 Zn        9 ZIP7        0.0000 
     24 N          15.5070   40.7845   66.9420 N.am      2 SEC2        0.0000 
     25 N          15.9050   40.8690   65.6020 N.am     12 SEL2        0.0000 
     26 N          15.1090   40.7000   68.2820 N.am      7 SEP2        0.0000 
     27 OD1        14.0530   40.9760   62.9780 O.co2     3 ASC3        0.0000 
     28 OD1        13.5010   41.1600   64.3220 O.co2    13 ASL3        0.0000 
     29 OD1        14.6050   40.7920   61.6340 O.co2     8 ASP3        0.0000 
     30 OD1        13.5460   40.0035   62.9860 O.co2     3 ASC3        0.0000 
     31 OD1        13.5910   38.8470   61.6500 O.co2     8 ASP3        0.0000 
     32 OD1        14.0025   39.4755   65.1350 O.co2     3 ASC3        0.0000 
     33 OD1        14.5040   37.7910   65.9480 O.co2     8 ASP3        0.0000 
     34 O          12.1810   41.0910   64.0480 O.2       1 ALC1        0.0000 
     35 O          13.5010   41.1600   64.3220 O.2      11 ALL1        0.0000 
     36 O          10.8610   41.0220   63.7740 O.2       6 ALP1        0.0000 
     37 O          14.0530   40.9760   62.9780 O.2       1 ALC1        0.0000 
     38 O          14.6050   40.7920   61.6340 O.2       6 ALP1        0.0000 
     39 CA          7.2510   38.5780   74.0417 C.3       5 GLC5        0.0000 
     40 CA          8.1650   38.3260   72.1190 C.3      15 GLL5        0.0000 
     41 CA          5.9930   39.1120   75.4200 C.3      10 GLP5        0.0000 
     42 CA          9.0520   39.6875   73.1912 C.3       5 GLC5        0.0000 
     43 CA          8.8530   37.7620   73.2080 C.3      15 GLL5        0.0000 
     44 CA          9.5950   41.3310   73.7190 C.3      10 GLP5        0.0000 
     45 CA          6.2650   35.8067   71.7627 C.3       5 GLC5        0.0000 
     46 CA          4.2770   35.7820   71.8420 C.3      10 GLP5        0.0000 
     47 CA          7.5230   34.5584   73.0556 C.3       5 GLC5        0.0000 
     48 CA          6.6750   33.0790   74.1690 C.3      10 GLP5        0.0000 
     49 CA          8.9462   35.4811   70.2849 C.3       5 GLC5        0.0000 
     50 CA          8.5960   35.5500   72.2280 C.3      15 GLL5        0.0000 
     51 CA          9.9190   34.2970   69.1890 C.3      10 GLP5        0.0000 
     52 CA          5.8187   36.7770   71.1833 C.3       5 GLC5        0.0000 
     53 CA          7.6940   37.4990   71.0780 C.3      15 GLL5        0.0000 
     54 CA          6.7085   39.9615   67.6053 C.3       5 GLC5        0.0000 
     55 CA          7.6750   40.1960   69.0960 C.3      15 GLL5        0.0000 
     56 CA          5.6710   40.5605   69.5965 C.3       5 GLC5        0.0000 
     57 CA          8.5560   41.6125   70.7985 C.3       5 GLC5        0.0000 
     58 CA          9.5360   42.3380   72.5720 C.3      10 GLP5        0.0000 
     59 CA          6.5542   40.9985   67.5042 C.3       5 GLC5        0.0000 
     60 CA          8.3700   42.3580   68.1990 C.3      15 GLL5        0.0000 
     61 CA          8.7365   41.2045   65.9926 C.3       5 GLC5        0.0000 
     62 CA          8.4960   40.6940   64.0650 C.3      10 GLP5        0.0000 
     63 CA         13.0475   44.7075   66.9905 C.3       5 GLC5        0.0000 
     64 CA         12.9770   46.1750   68.1520 C.3      10 GLP5        0.0000 
@<TRIPOS>BOND
@<TRIPOS>SUBSTRUCTURE
     1 ALC1       34 GROUP        1 X    ALC  0     ROOT ALC X 1
     2 SEC2       24 GROUP        1 X    SEC  0     **** SEC X 2
     3 ASC3       27 GROUP        1 X    ASC  0     **** ASC X 3
     4 ZIC7       21 GROUP        1 X    ZIC  0     **** ZIC X 5
     5 GLC5        1 GROUP        1 X    GLC  0     **** GLC X 6
     6 ALP1       36 GROUP        1 Y    ALP  0     ROOT ALP Y 8
     7 SEP2       26 GROUP        1 Y    SEP  0     **** SEP Y 9
     8 ASP3       29 GROUP        1 Y    ASP  0     **** ASP Y 10
     9 ZIP7       23 GROUP        1 Y    ZIP  0     **** ZIP Y 12
    10 GLP5        3 GROUP        1 Y    GLP  0     **** GLP Y 13
    11 ALL1       35 GROUP        1 Z    ALL  0     ROOT ALL Z 15
    12 SEL2       25 GROUP        1 Z    SEL  0     **** SEL Z 16
    13 ASL3       28 GROUP        1 Z    ASL  0     **** ASL Z 17
    14 ZIL7       22 GROUP        1 Z    ZIL  0     **** ZIL Z 19
    15 GLL5        2 GROUP        1 Z    GLL  0     **** GLL Z 20
@<TRIPOS>SET

