#    Name: 3chq_4BQ_2_ligand
#    Modification time : Mon Mar 24 21:28:31 2014

@<TRIPOS>MOLECULE
3chq_4BQ_2_ligand
   44    45     1     0     0
SMALL
NO_CHARGES


@<TRIPOS>ATOM
      1 C21         8.1650   38.3260   72.1190 C.ar      1 4BQ901      0.0000 
      2 C22         8.8530   37.7620   73.2080 C.ar      1 4BQ901      0.0000 
      3 C23         9.0680   36.3750   73.2630 C.ar      1 4BQ901      0.0000 
      4 C24         8.5960   35.5500   72.2280 C.ar      1 4BQ901      0.0000 
      5 C25         7.9100   36.1130   71.1390 C.ar      1 4BQ901      0.0000 
      6 C20         7.6940   37.4990   71.0780 C.ar      1 4BQ901      0.0000 
      7 C19         7.0270   38.0450   69.9710 C.3       1 4BQ901      0.0000 
      8 O18         6.7690   39.4780   69.8650 O.3       1 4BQ901      0.0000 
      9 C15         7.6750   40.1960   69.0960 C.ar      1 4BQ901      0.0000 
     10 C16         8.7890   39.5920   68.4610 C.ar      1 4BQ901      0.0000 
     11 C17         9.6850   40.3750   67.7080 C.ar      1 4BQ901      0.0000 
     12 C14         7.4770   41.5780   68.9540 C.ar      1 4BQ901      0.0000 
     13 C13         8.3700   42.3580   68.1990 C.ar      1 4BQ901      0.0000 
     14 C12         9.4830   41.7690   67.5750 C.ar      1 4BQ901      0.0000 
     15 N10        10.3820   42.5930   66.9750 N.am      1 4BQ901      0.0000 
     16 C8         11.5730   42.2220   66.4620 C.2       1 4BQ901      0.0000 
     17 O9         12.0710   41.0950   66.5570 O.2       1 4BQ901      0.0000 
     18 C7         12.3620   43.3750   65.8280 C.3       1 4BQ901      0.0000 
     19 C6         13.8740   43.1050   65.8300 C.3       1 4BQ901      0.0000 
     20 C4         14.3560   42.3320   64.5840 C.3       1 4BQ901      0.0000 
     21 C2         15.7790   41.8500   64.8450 C.2       1 4BQ901      0.0000 
     22 O3         16.7070   42.4790   64.3010 O.co2     1 4BQ901      0.0000 
     23 O1         15.9050   40.8690   65.6020 O.co2     1 4BQ901      0.0000 
     24 N5         13.5010   41.1600   64.3220 N.4       1 4BQ901      0.0000 
     25 H           8.0053   39.3349   72.0800 H         1 4BQ901      0.0000 
     26 H           9.1974   38.3637   73.9615 H         1 4BQ901      0.0000 
     27 H           9.5680   35.9653   74.0562 H         1 4BQ901      0.0000 
     28 H           8.7520   34.5394   72.2677 H         1 4BQ901      0.0000 
     29 H           7.5655   35.5086   70.3852 H         1 4BQ901      0.0000 
     30 H           6.0144   37.5026   69.8263 H         1 4BQ901      0.0000 
     31 H           7.5661   37.7208   68.9990 H         1 4BQ901      0.0000 
     32 H           8.9388   38.5850   68.5524 H         1 4BQ901      0.0000 
     33 H          10.4901   39.9347   67.2519 H         1 4BQ901      0.0000 
     34 H           6.6694   42.0264   69.4072 H         1 4BQ901      0.0000 
     35 H           8.2074   43.3680   68.1025 H         1 4BQ901      0.0000 
     36 H          10.1151   43.6379   66.9046 H         1 4BQ901      0.0000 
     37 H          12.1630   44.2932   66.3844 H         1 4BQ901      0.0000 
     38 H          12.0261   43.5148   64.7985 H         1 4BQ901      0.0000 
     39 H          14.1337   42.5279   66.7255 H         1 4BQ901      0.0000 
     40 H          14.4086   44.0611   65.8807 H         1 4BQ901      0.0000 
     41 H          14.3670   42.9960   63.7507 H         1 4BQ901      0.0000 
     42 H          13.4998   40.5216   65.0917 H         1 4BQ901      0.0000 
     43 H          12.5503   41.4231   64.1580 H         1 4BQ901      0.0000 
     44 H          13.8067   40.6495   63.5183 H         1 4BQ901      0.0000 
@<TRIPOS>BOND
     1    2    1 ar   
     2    6    1 ar   
     3   25    1 1    
     4    3    2 ar   
     5   26    2 1    
     6    4    3 ar   
     7   27    3 1    
     8    5    4 ar   
     9   28    4 1    
    10    6    5 ar   
    11   29    5 1    
    12    7    6 1    
    13    8    7 1    
    14   30    7 1    
    15   31    7 1    
    16    9    8 1    
    17   10    9 ar   
    18   12    9 ar   
    19   11   10 ar   
    20   32   10 1    
    21   14   11 ar   
    22   33   11 1    
    23   13   12 ar   
    24   34   12 1    
    25   14   13 ar   
    26   35   13 1    
    27   15   14 1    
    28   16   15 am   
    29   36   15 1    
    30   17   16 2    
    31   18   16 1    
    32   19   18 1    
    33   37   18 1    
    34   38   18 1    
    35   20   19 1    
    36   39   19 1    
    37   40   19 1    
    38   21   20 1    
    39   24   20 1    
    40   41   20 1    
    41   22   21 ar   
    42   23   21 ar   
    43   42   24 1    
    44   43   24 1    
    45   44   24 1    
@<TRIPOS>SUBSTRUCTURE
     1 4BQ901      1 GROUP   
@<TRIPOS>SET

