#    Name: 3lzb_ITI_1_INTS_M
#    Modification time : Mon Mar 24 22:28:15 2014

@<TRIPOS>MOLECULE
3lzb_ITI_1_INTS_M
  109     0     9     0     0
SMALL
NO_CHARGES


@<TRIPOS>ATOM
      1 CA         15.6135    9.8030   -2.5755 C.3       3 GLC5        0.0000 
      2 CA         15.9960    7.8550   -3.4340 C.3       9 GLL5        0.0000 
      3 CA         15.2310   11.7510   -1.7170 C.3       6 GLP5        0.0000 
      4 CA         17.2685    6.2395   -6.6540 C.3       3 GLC5        0.0000 
      5 CA         16.1820    5.9370   -4.8070 C.3       9 GLL5        0.0000 
      6 CA         18.3550    6.5420   -8.5010 C.3       6 GLP5        0.0000 
      7 CA         10.4535    7.3375   -2.0355 C.3       3 GLC5        0.0000 
      8 CA         12.4960    7.1050   -1.6000 C.3       9 GLL5        0.0000 
      9 CA          8.4110    7.5700   -2.4710 C.3       6 GLP5        0.0000 
     10 CA         15.8420    3.5715   -2.9985 C.3       3 GLC5        0.0000 
     11 CA         16.8630    5.2930   -3.8040 C.3       9 GLL5        0.0000 
     12 CA         14.8210    1.8500   -2.1930 C.3       6 GLP5        0.0000 
     13 CA         17.2590    9.7300   -1.2315 C.3       3 GLC5        0.0000 
     14 CA         16.8250    7.8290   -1.1300 C.3       9 GLL5        0.0000 
     15 CA         17.6930   11.6310   -1.3330 C.3       6 GLP5        0.0000 
     16 CA         11.9915    8.6775   -1.9465 C.3       3 GLC5        0.0000 
     17 CA         12.2620    8.6740    0.0570 C.3       9 GLL5        0.0000 
     18 CA         11.7210    8.6810   -3.9500 C.3       6 GLP5        0.0000 
     19 CA         10.4825    9.7155   -0.8285 C.3       3 GLC5        0.0000 
     20 CA          8.7030   10.7570   -1.7140 C.3       6 GLP5        0.0000 
     21 CA         10.8260    7.3345    0.9450 C.3       3 GLC5        0.0000 
     22 CA          9.3900    5.9950    1.8330 C.3       6 GLP5        0.0000 
     23 CA         16.7500   10.4495    0.3045 C.3       3 GLC5        0.0000 
     24 CA         15.8070    9.2680    1.9420 C.3       9 GLL5        0.0000 
     25 CA         22.7545   -0.3285   -3.8405 C.3       3 GLC5        0.0000 
     26 CA         21.1960    0.3430   -5.1700 C.3       9 GLL5        0.0000 
     27 CA         24.3130   -1.0000   -2.5110 C.3       6 GLP5        0.0000 
     28 CA         14.1050   11.4125   -0.0485 C.3       3 GLC5        0.0000 
     29 CA         12.9790   11.0740    1.6200 C.3       9 GLL5        0.0000 
     30 CA          9.0880   10.1010    3.3160 C.3       3 GLC5        0.0000 
     31 CA         10.9010   10.7750    2.7500 C.3       9 GLL5        0.0000 
     32 CA          7.2750    9.4270    3.8820 C.3       6 GLP5        0.0000 
     33 CA         16.2460    5.0900   -0.9355 C.3       3 GLC5        0.0000 
     34 CA         17.0810    5.9200   -2.6070 C.3       9 GLL5        0.0000 
     35 CA         15.4110    4.2600    0.7360 C.3       6 GLP5        0.0000 
     36 CA         17.8960    4.2715   -1.4425 C.3       3 GLC5        0.0000 
     37 CA         18.7110    2.6230   -0.2780 C.3       6 GLP5        0.0000 
     38 CA         13.5820   14.4595    2.4670 C.3       3 GLC5        0.0000 
     39 CA         14.0770   13.8760    4.5700 C.3       9 GLL5        0.0000 
     40 CA         13.0870   15.0430    0.3640 C.3       6 GLP5        0.0000 
     41 CA         16.3205    1.8730   -3.5385 C.3       3 GLC5        0.0000 
     42 CA         17.8200    1.8960   -4.8840 C.3       9 GLL5        0.0000 
     43 CA         16.7600    1.3585   -6.6035 C.3       3 GLC5        0.0000 
     44 CA         15.7000    0.8210   -8.3230 C.3       6 GLP5        0.0000 
     45 N          10.2100    7.5990   -0.4690 N.am      2 SEC2        0.0000 
     46 N          11.7090    7.8660   -0.8480 N.am      8 SEL2        0.0000 
     47 N           8.7110    7.3320   -0.0900 N.am      5 SEP2        0.0000 
     48 N          19.0250    7.6120   -1.2385 N.am      2 SEC2        0.0000 
     49 N          18.0140    8.1210   -0.5130 N.am      8 SEL2        0.0000 
     50 N          20.0360    7.1030   -1.9640 N.am      5 SEP2        0.0000 
     51 O          10.1745    9.2975    1.2570 O.2       1 ALC1        0.0000 
     52 O          11.3800    9.4570    0.8130 O.2       7 ALL1        0.0000 
     53 O           8.9690    9.1380    1.7010 O.2       4 ALP1        0.0000 
     54 O          18.0905    3.5700   -2.7655 O.2       1 ALC1        0.0000 
     55 O          17.3050    3.9630   -3.9340 O.2       7 ALL1        0.0000 
     56 O          18.8760    3.1770   -1.5970 O.2       4 ALP1        0.0000 
     57 CA         18.0530   10.4620    0.3540 C.3       3 GLC5        0.0000 
     58 CA         18.4130    9.2930    2.0410 C.3       9 GLL5        0.0000 
     59 CA         17.5605    7.4200    2.2000 C.3       3 GLC5        0.0000 
     60 CA         16.7080    5.5470    2.3590 C.3       6 GLP5        0.0000 
     61 CA         13.7922    8.1080   -3.9882 C.3       3 GLC5        0.0000 
     62 CA         14.5678    6.3840   -4.2992 C.3       3 GLC5        0.0000 
     63 CA         13.2720    5.2330   -4.5720 C.3       6 GLP5        0.0000 
     64 CA         20.6450    4.2707   -6.8855 C.3       3 GLC5        0.0000 
     65 CA         19.9780    2.7350   -5.8490 C.3       9 GLL5        0.0000 
     66 CA         20.6460    5.9170   -7.7800 C.3       6 GLP5        0.0000 
     67 CA         20.4597   -0.5292   -6.6860 C.3       3 GLC5        0.0000 
     68 CA         19.8650    0.5560   -4.8720 C.3       9 GLL5        0.0000 
     69 CA         20.3890   -1.5080   -8.3510 C.3       6 GLP5        0.0000 
     70 CA         21.5557    1.3667   -3.5845 C.3       3 GLC5        0.0000 
     71 CA         22.5810    2.2840   -2.1480 C.3       6 GLP5        0.0000 
     72 CA         12.9943   13.6127    1.7035 C.3       3 GLC5        0.0000 
     73 CA         13.3330   12.0430    2.5220 C.3       9 GLL5        0.0000 
     74 CA         17.1989    8.1330   -4.8479 C.3       3 GLC5        0.0000 
     75 CA         15.7310    7.2150   -4.6190 C.3       9 GLL5        0.0000 
     76 CA         18.3750    9.5300   -5.2790 C.3       6 GLP5        0.0000 
     77 CA         14.8972    5.4240   -4.4388 C.3       3 GLC5        0.0000 
     78 CA         13.2225    6.1830   -3.0555 C.3       3 GLC5        0.0000 
     79 CA         12.6295    5.3715   -0.5875 C.3       3 GLC5        0.0000 
     80 CA         12.0860    3.6100    0.3640 C.3       6 GLP5        0.0000 
     81 CA         14.7500    5.9298   -0.1368 C.3       3 GLC5        0.0000 
     82 CA         13.8500    7.1610   -1.4780 C.3       9 GLL5        0.0000 
     83 CA         15.1342    9.9307   -1.0787 C.3       3 GLC5        0.0000 
     84 CA         14.3280    8.0380   -0.5410 C.3       9 GLL5        0.0000 
     85 CA         12.7357    8.1333   -2.4950 C.3       3 GLC5        0.0000 
     86 CA         16.4970    6.7765    0.8120 C.3       3 GLC5        0.0000 
     87 CA         14.9938    9.2602    3.5623 C.3       3 GLC5        0.0000 
     88 CA         13.6650    9.0700    4.7960 C.3       6 GLP5        0.0000 
     89 CA         16.5153    7.4988    2.3438 C.3       3 GLC5        0.0000 
     90 CA         21.8520    1.1492   -7.5565 C.3       3 GLC5        0.0000 
     91 CA         21.3100    2.5140   -6.1330 C.3       9 GLL5        0.0000 
     92 CA         22.0860    0.3800   -9.1440 C.3       6 GLP5        0.0000 
     93 CA         22.0995    2.1012   -4.0585 C.3       3 GLC5        0.0000 
     94 CA         21.9260    1.3230   -5.8050 C.3       9 GLL5        0.0000 
     95 CA         23.0360    3.0332   -5.8250 C.3       3 GLC5        0.0000 
     96 CA         24.4540    4.1480   -5.6810 C.3       6 GLP5        0.0000 
     97 CA         10.6255    9.9940    4.7227 C.3       3 GLC5        0.0000 
     98 CA         10.1810    8.7370    6.2290 C.3       6 GLP5        0.0000 
     99 CA         11.8447   12.2172    0.4605 C.3       3 GLC5        0.0000 
    100 CA         11.7720   10.4210    1.7440 C.3       9 GLL5        0.0000 
    101 CA         11.3140   13.6870   -0.7610 C.3       6 GLP5        0.0000 
    102 CA         18.4130    7.6258   -2.2908 C.3       3 GLC5        0.0000 
    103 CA         16.6770    7.2130   -2.4260 C.3       9 GLL5        0.0000 
    104 CA         19.9100    8.5310   -2.3890 C.3       6 GLP5        0.0000 
    105 CA         15.0755    5.8997   -3.5442 C.3       3 GLC5        0.0000 
    106 CA         17.9047    8.6345    4.3075 C.3       3 GLC5        0.0000 
    107 CA         16.8380    9.6330    2.7150 C.3       9 GLL5        0.0000 
    108 CA         18.1840    7.8060    6.2370 C.3       6 GLP5        0.0000 
    109 CA         12.8910   10.2291    3.7224 C.3       3 GLC5        0.0000 
@<TRIPOS>BOND
@<TRIPOS>SUBSTRUCTURE
     1 ALC1       51 GROUP        1 X    ALC  0     ROOT ALC X 1
     2 SEC2       45 GROUP        1 X    SEC  0     **** SEC X 2
     3 GLC5        1 GROUP        1 X    GLC  0     **** GLC X 6
     4 ALP1       53 GROUP        1 Y    ALP  0     ROOT ALP Y 8
     5 SEP2       47 GROUP        1 Y    SEP  0     **** SEP Y 9
     6 GLP5        3 GROUP        1 Y    GLP  0     **** GLP Y 13
     7 ALL1       52 GROUP        1 Z    ALL  0     ROOT ALL Z 15
     8 SEL2       46 GROUP        1 Z    SEL  0     **** SEL Z 16
     9 GLL5        2 GROUP        1 Z    GLL  0     **** GLL Z 20
@<TRIPOS>SET

