#    Name: 3lzb_ITI_1_ligand
#    Modification time : Mon Mar 24 22:28:15 2014

@<TRIPOS>MOLECULE
3lzb_ITI_1_ligand
   72    78     1     0     0
SMALL
NO_CHARGES


@<TRIPOS>ATOM
      1 C4         15.7310    7.2150   -4.6190 C.ar      1 ITI1        0.0000 
      2 C5         15.9960    7.8550   -3.4340 C.ar      1 ITI1        0.0000 
      3 C6         19.9780    2.7350   -5.8490 C.ar      1 ITI1        0.0000 
      4 C7         19.8650    0.5560   -4.8720 C.ar      1 ITI1        0.0000 
      5 C8         13.3330   12.0430    2.5220 C.ar      1 ITI1        0.0000 
      6 C10        16.1820    5.9370   -4.8070 C.ar      1 ITI1        0.0000 
      7 C13        13.8500    7.1610   -1.4780 C.ar      1 ITI1        0.0000 
      8 C15        12.4960    7.1050   -1.6000 C.ar      1 ITI1        0.0000 
      9 C17        19.2590    1.7440   -5.2150 C.ar      1 ITI1        0.0000 
     10 C20        16.8630    5.2930   -3.8040 C.ar      1 ITI1        0.0000 
     11 C21        14.3280    8.0380   -0.5410 C.ar      1 ITI1        0.0000 
     12 C22        16.8250    7.8290   -1.1300 C.2       1 ITI1        0.0000 
     13 C24        12.2620    8.6740    0.0570 C.ar      1 ITI1        0.0000 
     14 C26        15.8070    9.2680    1.9420 C.2       1 ITI1        0.0000 
     15 C28        17.2850    3.2670   -5.1250 C.2       1 ITI1        0.0000 
     16 C1         21.9260    1.3230   -5.8050 C.ar      1 ITI1        0.0000 
     17 C2         21.3100    2.5140   -6.1330 C.ar      1 ITI1        0.0000 
     18 C3         21.1960    0.3430   -5.1700 C.ar      1 ITI1        0.0000 
     19 C9         11.2390   11.7270    3.6830 C.ar      1 ITI1        0.0000 
     20 C11        12.9790   11.0740    1.6200 C.ar      1 ITI1        0.0000 
     21 C12        10.9010   10.7750    2.7500 C.ar      1 ITI1        0.0000 
     22 C14        17.0810    5.9200   -2.6070 C.ar      1 ITI1        0.0000 
     23 C16        16.6770    7.2130   -2.4260 C.ar      1 ITI1        0.0000 
     24 C18        12.4700   12.3220    3.5640 C.ar      1 ITI1        0.0000 
     25 C19        11.7720   10.4210    1.7440 C.ar      1 ITI1        0.0000 
     26 C23        15.7470    8.1830   -0.3400 C.2       1 ITI1        0.0000 
     27 C25        17.6240    8.6570    0.6260 C.2       1 ITI1        0.0000 
     28 C27        16.8380    9.6330    2.7150 C.2       1 ITI1        0.0000 
     29 C29        14.0770   13.8760    4.5700 C.3       1 ITI1        0.0000 
     30 C30        11.8660   13.3660    5.6180 C.3       1 ITI1        0.0000 
     31 C31        13.9810   14.9860    5.5980 C.3       1 ITI1        0.0000 
     32 C32        12.8010   13.2890    6.8090 C.3       1 ITI1        0.0000 
     33 C33        17.8200    1.8960   -4.8840 C.3       1 ITI1        0.0000 
     34 N34        11.7090    7.8660   -0.8480 N.ar      1 ITI1        0.0000 
     35 N35        13.5710    8.7820    0.2520 N.ar      1 ITI1        0.0000 
     36 N36        18.0140    8.1210   -0.5130 N.2       1 ITI1        0.0000 
     37 N37        16.2850    8.7110    0.7860 N.pl3     1 ITI1        0.0000 
     38 N38        12.7750   13.2520    4.5270 N.3       1 ITI1        0.0000 
     39 N39        11.3800    9.4570    0.8130 N.pl3     1 ITI1        0.0000 
     40 N40        17.3050    3.9630   -3.9340 N.am      1 ITI1        0.0000 
     41 O41        16.9050    3.6460   -6.2300 O.2       1 ITI1        0.0000 
     42 O42        13.5800   14.4850    6.8900 O.3       1 ITI1        0.0000 
     43 S43        18.4130    9.2930    2.0410 S.3       1 ITI1        0.0000 
     44 H          15.1972    7.6943   -5.3590 H         1 ITI1        0.0000 
     45 H          15.6795    8.8346   -3.2957 H         1 ITI1        0.0000 
     46 H          19.5313    3.6205   -6.1050 H         1 ITI1        0.0000 
     47 H          19.3225   -0.1801   -4.3895 H         1 ITI1        0.0000 
     48 H          14.2160   12.5516    2.4302 H         1 ITI1        0.0000 
     49 H          16.0104    5.4531   -5.7064 H         1 ITI1        0.0000 
     50 H          14.4662    6.5945   -2.0398 H         1 ITI1        0.0000 
     51 H          12.0805    6.4450   -2.3041 H         1 ITI1        0.0000 
     52 H          14.8668    9.3738    2.1517 H         1 ITI1        0.0000 
     53 H          22.9153    1.1712   -6.0321 H         1 ITI1        0.0000 
     54 H          21.8619    3.2605   -6.6042 H         1 ITI1        0.0000 
     55 H          21.6432   -0.5524   -4.9160 H         1 ITI1        0.0000 
     56 H          10.6000   11.9797    4.4324 H         1 ITI1        0.0000 
     57 H          13.6171   10.8297    0.8429 H         1 ITI1        0.0000 
     58 H           9.9692   10.3128    2.8046 H         1 ITI1        0.0000 
     59 H          17.5537    5.4122   -1.8365 H         1 ITI1        0.0000 
     60 H          16.9149   10.0470    3.5718 H         1 ITI1        0.0000 
     61 H          14.8412   13.1791    4.8845 H         1 ITI1        0.0000 
     62 H          14.3408   14.3106    3.6160 H         1 ITI1        0.0000 
     63 H          11.3684   14.3093    5.6359 H         1 ITI1        0.0000 
     64 H          11.1842   12.5471    5.6666 H         1 ITI1        0.0000 
     65 H          13.2632   15.7370    5.2248 H         1 ITI1        0.0000 
     66 H          14.9637   15.4856    5.6551 H         1 ITI1        0.0000 
     67 H          13.4354   12.4023    6.6867 H         1 ITI1        0.0000 
     68 H          12.1926   13.1425    7.7102 H         1 ITI1        0.0000 
     69 H          17.6569    1.6249   -3.8190 H         1 ITI1        0.0000 
     70 H          17.2273    1.1660   -5.4758 H         1 ITI1        0.0000 
     71 H          10.3422    9.3056    0.6666 H         1 ITI1        0.0000 
     72 H          17.6679    3.4842   -3.0703 H         1 ITI1        0.0000 
@<TRIPOS>BOND
     1    2    1 ar   
     2    6    1 ar   
     3   44    1 1    
     4   23    2 ar   
     5   45    2 1    
     6    9    3 ar   
     7   17    3 ar   
     8   46    3 1    
     9    9    4 ar   
    10   18    4 ar   
    11   47    4 1    
    12   20    5 ar   
    13   24    5 ar   
    14   48    5 1    
    15   10    6 ar   
    16   49    6 1    
    17    8    7 ar   
    18   11    7 ar   
    19   50    7 1    
    20   34    8 ar   
    21   51    8 1    
    22   33    9 1    
    23   22   10 ar   
    24   40   10 1    
    25   26   11 1    
    26   35   11 ar   
    27   23   12 1    
    28   26   12 2    
    29   36   12 1    
    30   34   13 ar   
    31   35   13 ar   
    32   39   13 1    
    33   28   14 2    
    34   37   14 1    
    35   52   14 1    
    36   33   15 1    
    37   40   15 am   
    38   41   15 2    
    39   17   16 ar   
    40   18   16 ar   
    41   53   16 1    
    42   54   17 1    
    43   55   18 1    
    44   21   19 ar   
    45   24   19 ar   
    46   56   19 1    
    47   25   20 ar   
    48   57   20 1    
    49   25   21 ar   
    50   58   21 1    
    51   23   22 ar   
    52   59   22 1    
    53   38   24 1    
    54   39   25 1    
    55   37   26 1    
    56   36   27 2    
    57   37   27 1    
    58   43   27 1    
    59   43   28 1    
    60   60   28 1    
    61   31   29 1    
    62   38   29 1    
    63   61   29 1    
    64   62   29 1    
    65   32   30 1    
    66   38   30 1    
    67   63   30 1    
    68   64   30 1    
    69   42   31 1    
    70   65   31 1    
    71   66   31 1    
    72   42   32 1    
    73   67   32 1    
    74   68   32 1    
    75   69   33 1    
    76   70   33 1    
    77   71   39 1    
    78   72   40 1    
@<TRIPOS>SUBSTRUCTURE
     1 ITI1        1 GROUP   
@<TRIPOS>SET

