#    Name: 2b1v_458_2_INTS_M
#    Modification time : Mon Mar 24 19:48:30 2014

@<TRIPOS>MOLECULE
2b1v_458_2_INTS_M
   61     0     9     0     0
SMALL
NO_CHARGES


@<TRIPOS>ATOM
      1 CA         -2.8005   -4.5190   18.4460 C.3       3 GLC5        0.0000 
      2 CA         -4.6260   -4.5160   19.5760 C.3       9 GLL5        0.0000 
      3 CA         -0.9750   -4.5220   17.3160 C.3       6 GLP5        0.0000 
      4 CA         -5.6795   -1.6740   22.6925 C.3       3 GLC5        0.0000 
      5 CA         -5.2040   -2.3140   20.9200 C.3       9 GLL5        0.0000 
      6 CA         -6.1550   -1.0340   24.4650 C.3       6 GLP5        0.0000 
      7 CA         -4.7230   -0.1745   20.7940 C.3       3 GLC5        0.0000 
      8 CA         -4.2420    1.9650   20.6680 C.3       6 GLP5        0.0000 
      9 CA         -3.6295   -1.8160   20.1455 C.3       3 GLC5        0.0000 
     10 CA         -2.0550   -1.3180   19.3710 C.3       6 GLP5        0.0000 
     11 CA         -3.8810   -1.0990   22.2255 C.3       3 GLC5        0.0000 
     12 CA         -2.5580    0.1160   23.5310 C.3       6 GLP5        0.0000 
     13 CA         -6.5655   -1.2610   19.4865 C.3       3 GLC5        0.0000 
     14 CA         -7.9270   -0.2080   18.0530 C.3       6 GLP5        0.0000 
     15 CA         -8.7880   -3.5025   20.9910 C.3       3 GLC5        0.0000 
     16 CA         -6.8870   -4.1780   20.4210 C.3       9 GLL5        0.0000 
     17 CA        -10.6890   -2.8270   21.5610 C.3       6 GLP5        0.0000 
     18 CA         -9.1725   -5.5035   19.3725 C.3       3 GLC5        0.0000 
     19 CA         -7.3180   -5.3960   19.8930 C.3       9 GLL5        0.0000 
     20 CA        -11.0270   -5.6110   18.8520 C.3       6 GLP5        0.0000 
     21 CA         -9.1785   -6.9630   18.1155 C.3       3 GLC5        0.0000 
     22 CA         -7.2790   -6.5410   17.6340 C.3       9 GLL5        0.0000 
     23 CA        -11.0780   -7.3850   18.5970 C.3       6 GLP5        0.0000 
     24 CA         -5.9970   -6.9370   15.8345 C.3       3 GLC5        0.0000 
     25 CA         -4.7150   -7.3330   14.0350 C.3       6 GLP5        0.0000 
     26 CA         -7.7285   -6.6815   15.4735 C.3       3 GLC5        0.0000 
     27 CA         -8.1780   -6.8220   13.3130 C.3       6 GLP5        0.0000 
     28 O          -8.3715   -6.1985   15.8205 O.2       1 ALC1        0.0000 
     29 O          -8.0740   -5.4850   17.0440 O.2       7 ALL1        0.0000 
     30 O          -8.6690   -6.9120   14.5970 O.2       4 ALP1        0.0000 
     31 CA         -3.9115   -7.1630   21.8380 C.3       3 GLC5        0.0000 
     32 CA         -4.2340   -5.7040   20.5160 C.3       9 GLL5        0.0000 
     33 CA         -3.5890   -8.6220   23.1600 C.3       6 GLP5        0.0000 
     34 N          -0.3725   -3.3900   25.9965 N.am      2 SEC2        0.0000 
     35 N          -1.8590   -3.9250   25.3670 N.am      8 SEL2        0.0000 
     36 N           1.1140   -2.8550   26.6260 N.am      5 SEP2        0.0000 
     37 O          -2.3315   -3.2750   26.2695 O.2       1 ALC1        0.0000 
     38 O          -1.8590   -3.9250   25.3670 O.2       7 ALL1        0.0000 
     39 O          -2.8040   -2.6250   27.1720 O.2       4 ALP1        0.0000 
     40 CA          0.3670   -4.2525   22.2110 C.3       3 GLC5        0.0000 
     41 CA         -1.6120   -4.6530   23.1050 C.3       9 GLL5        0.0000 
     42 CA          2.3460   -3.8520   21.3170 C.3       6 GLP5        0.0000 
     43 CA         -0.6945   -4.5630   20.6045 C.3       3 GLC5        0.0000 
     44 CA         -2.2250   -5.0860   21.9020 C.3       9 GLL5        0.0000 
     45 CA          0.8360   -4.0400   19.3070 C.3       6 GLP5        0.0000 
     46 CA         -3.5848   -2.7040   19.6600 C.3       3 GLC5        0.0000 
     47 CA         -7.8372   -5.8125   21.7315 C.3       3 GLC5        0.0000 
     48 CA         -8.5720   -6.8380   23.3060 C.3       6 GLP5        0.0000 
     49 CA         -7.0163   -7.6883   20.4872 C.3       3 GLC5        0.0000 
     50 CA         -6.4110   -5.9960   18.7880 C.3       9 GLL5        0.0000 
     51 CA         -8.0220   -8.8160   21.8840 C.3       6 GLP5        0.0000 
     52 CA         -7.1132   -8.4339   18.6430 C.3       3 GLC5        0.0000 
     53 CA         -5.6100   -7.1250   19.3930 C.3       9 GLL5        0.0000 
     54 CA         -7.9990  -10.1710   18.4840 C.3       6 GLP5        0.0000 
     55 CA         -5.1475   -2.8622   24.0115 C.3       3 GLC5        0.0000 
     56 CA         -4.4390   -4.9120   22.9610 C.3       9 GLL5        0.0000 
     57 CA         -1.1837   -2.7290   23.4700 C.3       3 GLC5        0.0000 
     58 CA         -2.4330   -4.3550   24.2130 C.3       9 GLL5        0.0000 
     59 CA         -0.3450   -0.9540   23.2810 C.3       6 GLP5        0.0000 
     60 CA         -1.0577   -6.4923   22.5917 C.3       3 GLC5        0.0000 
     61 CA         -0.1970   -8.1150   22.6800 C.3       6 GLP5        0.0000 
@<TRIPOS>BOND
@<TRIPOS>SUBSTRUCTURE
     1 ALC1       28 GROUP        1 X    ALC  0     ROOT ALC X 1
     2 SEC2       34 GROUP        1 X    SEC  0     **** SEC X 2
     3 GLC5        1 GROUP        1 X    GLC  0     **** GLC X 6
     4 ALP1       30 GROUP        1 Y    ALP  0     ROOT ALP Y 8
     5 SEP2       36 GROUP        1 Y    SEP  0     **** SEP Y 9
     6 GLP5        3 GROUP        1 Y    GLP  0     **** GLP Y 13
     7 ALL1       29 GROUP        1 Z    ALL  0     ROOT ALL Z 15
     8 SEL2       35 GROUP        1 Z    SEL  0     **** SEL Z 16
     9 GLL5        2 GROUP        1 Z    GLL  0     **** GLL Z 20
@<TRIPOS>SET

