#    Name: 2b1v_458_2_ligand
#    Modification time : Mon Mar 24 19:48:30 2014

@<TRIPOS>MOLECULE
2b1v_458_2_ligand
   39    41     1     0     0
SMALL
NO_CHARGES


@<TRIPOS>ATOM
      1 CAK        -5.3910   -4.9610   18.3110 C.3       1 458202      0.0000 
      2 CAJ        -4.6260   -4.5160   19.5760 C.3       1 458202      0.0000 
      3 CAO        -5.6030   -3.6640   20.3220 C.2       1 458202      0.0000 
      4 CAR        -5.2040   -2.3140   20.9200 C.3       1 458202      0.0000 
      5 CAQ        -6.8870   -4.1780   20.4210 C.2       1 458202      0.0000 
      6 CAP        -7.3180   -5.3960   19.8930 C.3       1 458202      0.0000 
      7 CAL        -6.4110   -5.9960   18.7880 C.3       1 458202      0.0000 
      8 CAT        -7.2790   -6.5410   17.6340 C.3       1 458202      0.0000 
      9 OAU        -8.0740   -5.4850   17.0440 O.3       1 458202      0.0000 
     10 CAM        -5.6100   -7.1250   19.3930 C.3       1 458202      0.0000 
     11 OAH        -5.2740   -6.6440   20.7120 O.3       1 458202      0.0000 
     12 CAI        -4.2340   -5.7040   20.5160 C.3       1 458202      0.0000 
     13 CAD        -3.6230   -5.2150   21.8480 C.ar      1 458202      0.0000 
     14 CAC        -4.4390   -4.9120   22.9610 C.ar      1 458202      0.0000 
     15 CAB        -3.8410   -4.4690   24.1550 C.ar      1 458202      0.0000 
     16 CAA        -2.4330   -4.3550   24.2130 C.ar      1 458202      0.0000 
     17 OAG        -1.8590   -3.9250   25.3670 O.3       1 458202      0.0000 
     18 CAF        -1.6120   -4.6530   23.1050 C.ar      1 458202      0.0000 
     19 CAE        -2.2250   -5.0860   21.9020 C.ar      1 458202      0.0000 
     20 H          -4.7094   -5.4118   17.6271 H         1 458202      0.0000 
     21 H          -5.8953   -4.1217   17.8905 H         1 458202      0.0000 
     22 H          -3.7835   -3.9584   19.3169 H         1 458202      0.0000 
     23 H          -7.6112   -3.5943   20.9458 H         1 458202      0.0000 
     24 H          -8.3447   -5.3239   19.4467 H         1 458202      0.0000 
     25 H          -7.4129   -6.1887   20.6811 H         1 458202      0.0000 
     26 H          -7.9117   -7.3380   18.0431 H         1 458202      0.0000 
     27 H          -6.6044   -6.9940   16.8973 H         1 458202      0.0000 
     28 H          -4.7341   -7.2892   18.7959 H         1 458202      0.0000 
     29 H          -6.2242   -8.0034   19.4359 H         1 458202      0.0000 
     30 H          -3.3743   -6.2187   19.9778 H         1 458202      0.0000 
     31 H          -5.4492   -5.0141   22.8969 H         1 458202      0.0000 
     32 H          -4.4078   -4.2346   24.9624 H         1 458202      0.0000 
     33 H          -0.6073   -4.5608   23.1643 H         1 458202      0.0000 
     34 H          -1.6528   -5.2998   21.0888 H         1 458202      0.0000 
     35 H          -4.4704   -2.4082   21.5930 H         1 458202      0.0000 
     36 H          -4.8791   -1.6789   20.2193 H         1 458202      0.0000 
     37 H          -5.9718   -1.8715   21.3833 H         1 458202      0.0000 
     38 H          -8.2867   -5.8061   16.1212 H         1 458202      0.0000 
     39 H          -2.3368   -3.0760   25.5928 H         1 458202      0.0000 
@<TRIPOS>BOND
     1    2    1 1    
     2    7    1 1    
     3   20    1 1    
     4   21    1 1    
     5    3    2 1    
     6   12    2 1    
     7   22    2 1    
     8    4    3 1    
     9    5    3 2    
    10   35    4 1    
    11   36    4 1    
    12   37    4 1    
    13    6    5 1    
    14   23    5 1    
    15    7    6 1    
    16   24    6 1    
    17   25    6 1    
    18    8    7 1    
    19   10    7 1    
    20    9    8 1    
    21   26    8 1    
    22   27    8 1    
    23   38    9 1    
    24   11   10 1    
    25   28   10 1    
    26   29   10 1    
    27   12   11 1    
    28   13   12 1    
    29   30   12 1    
    30   14   13 ar   
    31   19   13 ar   
    32   15   14 ar   
    33   31   14 1    
    34   16   15 ar   
    35   32   15 1    
    36   17   16 1    
    37   18   16 ar   
    38   39   17 1    
    39   19   18 ar   
    40   33   18 1    
    41   34   19 1    
@<TRIPOS>SUBSTRUCTURE
     1 458202      1 GROUP   
@<TRIPOS>SET

