#    Name: 4l5b_1UX_2_INTS_M
#    Modification time : Mon Apr  7 23:55:57 2014

@<TRIPOS>MOLECULE
4l5b_1UX_2_INTS_M
   72     0     9     0     0
SMALL
NO_CHARGES


@<TRIPOS>ATOM
      1 CA        -34.1105   -7.4905  -25.4235 C.3       3 GLC5        0.0000 
      2 CA        -35.7460   -7.8470  -26.7170 C.3       9 GLL5        0.0000 
      3 CA        -32.4750   -7.1340  -24.1300 C.3       6 GLP5        0.0000 
      4 CA        -35.6535   -6.3320  -27.5895 C.3       3 GLC5        0.0000 
      5 CA        -35.5610   -4.8170  -28.4620 C.3       6 GLP5        0.0000 
      6 CA        -34.5075   -9.4265  -26.8900 C.3       3 GLC5        0.0000 
      7 CA        -33.2690  -11.0060  -27.0630 C.3       6 GLP5        0.0000 
      8 O         -36.9225   -5.9935  -24.2540 O.2       1 ALC1        0.0000 
      9 O         -37.3450   -7.3620  -24.8890 O.2       7 ALL1        0.0000 
     10 O         -36.5000   -4.6250  -23.6190 O.2       4 ALP1        0.0000 
     11 CA        -34.1890   -8.2220  -24.3910 C.3       3 GLC5        0.0000 
     12 CA        -35.9030   -9.3100  -24.6520 C.3       9 GLL5        0.0000 
     13 CA        -34.4185  -10.4560  -25.2565 C.3       3 GLC5        0.0000 
     14 CA        -32.9340  -11.6020  -25.8610 C.3       6 GLP5        0.0000 
     15 CA        -39.0050   -9.6670  -20.4645 C.3       3 GLC5        0.0000 
     16 CA        -39.3390  -11.2810  -21.2640 C.3       9 GLL5        0.0000 
     17 CA        -38.6710   -8.0530  -19.6650 C.3       6 GLP5        0.0000 
     18 N         -32.1585  -11.5480  -23.8230 N.am      2 SEC2        0.0000 
     19 N         -32.1610  -12.1910  -22.7010 N.am      8 SEL2        0.0000 
     20 N         -32.1560  -10.9050  -24.9450 N.am      5 SEP2        0.0000 
     21 CA        -32.6340  -11.7460  -19.4380 C.3       3 GLC5        0.0000 
     22 CA        -32.3380  -13.3660  -20.5550 C.3       9 GLL5        0.0000 
     23 CA        -32.9300  -10.1260  -18.3210 C.3       6 GLP5        0.0000 
     24 CA        -28.7360  -12.8315  -19.2040 C.3       3 GLC5        0.0000 
     25 CA        -29.5700  -13.9700  -20.6780 C.3       9 GLL5        0.0000 
     26 CA        -27.9020  -11.6930  -17.7300 C.3       6 GLP5        0.0000 
     27 CA        -31.4295  -15.8185  -19.4365 C.3       3 GLC5        0.0000 
     28 CA        -29.6950  -15.4920  -20.5240 C.3       9 GLL5        0.0000 
     29 CA        -33.1640  -16.1450  -18.3490 C.3       6 GLP5        0.0000 
     30 CA        -29.4685  -16.0830  -23.7790 C.3       3 GLC5        0.0000 
     31 CA        -29.2350  -16.2490  -21.7840 C.3       9 GLL5        0.0000 
     32 CA        -29.7020  -15.9170  -25.7740 C.3       6 GLP5        0.0000 
     33 CA        -29.7135  -14.1795  -24.5230 C.3       3 GLC5        0.0000 
     34 CA        -29.7250  -12.4420  -23.2720 C.3       9 GLL5        0.0000 
     35 CA        -31.3295  -12.0220  -24.5665 C.3       3 GLC5        0.0000 
     36 CA        -28.4130  -10.7260  -20.7510 C.3       3 GLC5        0.0000 
     37 CA        -28.9880  -10.8100  -22.8480 C.3       9 GLL5        0.0000 
     38 CA        -27.8380  -10.6420  -18.6540 C.3       6 GLP5        0.0000 
     39 CA        -26.7455   -9.9770  -23.7710 C.3       3 GLC5        0.0000 
     40 CA        -27.2090  -11.2190  -22.5290 C.3       9 GLL5        0.0000 
     41 CA        -26.2820   -8.7350  -25.0130 C.3       6 GLP5        0.0000 
     42 N         -26.9355   -8.9785  -21.8100 N.am      2 SEC2        0.0000 
     43 N         -26.3190  -10.2390  -22.2240 N.am      8 SEL2        0.0000 
     44 N         -27.5520   -7.7180  -21.3960 N.am      5 SEP2        0.0000 
     45 O         -23.5115  -14.3265  -22.4245 O.2       1 ALC1        0.0000 
     46 O         -25.1480  -14.0930  -22.4760 O.2       7 ALL1        0.0000 
     47 O         -21.8750  -14.5600  -22.3730 O.2       4 ALP1        0.0000 
     48 O         -23.9650  -15.2585  -22.0315 O.2       1 ALC1        0.0000 
     49 O         -22.7820  -16.4240  -21.5870 O.2       4 ALP1        0.0000 
     50 CA        -25.6455   -9.6175  -23.5145 C.3       3 GLC5        0.0000 
     51 CA        -25.0090  -10.5000  -22.0160 C.3       9 GLL5        0.0000 
     52 O         -24.8740   -8.0895  -21.7500 O.2       1 ALC1        0.0000 
     53 O         -24.1740   -9.4920  -21.7430 O.2       7 ALL1        0.0000 
     54 O         -25.5740   -6.6870  -21.7570 O.2       4 ALP1        0.0000 
     55 O         -22.8195   -9.5815  -21.8470 O.2       1 ALC1        0.0000 
     56 O         -21.4650   -9.6710  -21.9510 O.2       4 ALP1        0.0000 
     57 CA        -37.3357   -9.5133  -21.7658 C.3       3 GLC5        0.0000 
     58 CA        -36.2350  -10.9960  -22.9930 C.3       9 GLL5        0.0000 
     59 CA        -37.9840   -7.6950  -20.9430 C.3       6 GLP5        0.0000 
     60 CA        -33.7422  -10.0565  -21.3897 C.3       3 GLC5        0.0000 
     61 CA        -34.8520  -11.2340  -22.8770 C.3       9 GLL5        0.0000 
     62 CA        -32.8630   -8.4180  -20.3790 C.3       6 GLP5        0.0000 
     63 CA        -36.3317  -12.8845  -19.4375 C.3       3 GLC5        0.0000 
     64 CA        -35.3270  -12.8440  -21.1400 C.3       9 GLL5        0.0000 
     65 CA        -36.6510  -13.0450  -17.6800 C.3       6 GLP5        0.0000 
     66 CA        -29.7833  -14.7430  -18.7950 C.3       3 GLC5        0.0000 
     67 CA        -29.9340  -14.7550  -16.9890 C.3       6 GLP5        0.0000 
     68 CA        -28.2527  -11.2925  -24.4145 C.3       3 GLC5        0.0000 
     69 CA        -27.1490  -10.9590  -25.7690 C.3       6 GLP5        0.0000 
     70 CA        -25.0315  -13.6930  -20.8450 C.3       3 GLC5        0.0000 
     71 CA        -25.4980  -12.8110  -22.3960 C.3       9 GLL5        0.0000 
     72 CA        -25.0390  -15.0700  -19.4520 C.3       6 GLP5        0.0000 
@<TRIPOS>BOND
@<TRIPOS>SUBSTRUCTURE
     1 ALC1        8 GROUP        1 X    ALC  0     ROOT ALC X 1
     2 SEC2       18 GROUP        1 X    SEC  0     **** SEC X 2
     3 GLC5        1 GROUP        1 X    GLC  0     **** GLC X 6
     4 ALP1       10 GROUP        1 Y    ALP  0     ROOT ALP Y 8
     5 SEP2       20 GROUP        1 Y    SEP  0     **** SEP Y 9
     6 GLP5        3 GROUP        1 Y    GLP  0     **** GLP Y 13
     7 ALL1        9 GROUP        1 Z    ALL  0     ROOT ALL Z 15
     8 SEL2       19 GROUP        1 Z    SEL  0     **** SEL Z 16
     9 GLL5        2 GROUP        1 Z    GLL  0     **** GLL Z 20
@<TRIPOS>SET

