#    Name: 4l5b_1UX_2_ligand
#    Modification time : Mon Apr  7 23:55:58 2014

@<TRIPOS>MOLECULE
4l5b_1UX_2_ligand
   61    63     1     0     0
SMALL
NO_CHARGES


@<TRIPOS>ATOM
      1 CAC       -35.7460   -7.8470  -26.7170 C.3       1 1UX301      0.0000 
      2 CBF       -36.6980   -8.4100  -25.6530 C.3       1 1UX301      0.0000 
      3 CAD       -37.7550   -9.1810  -26.4250 C.3       1 1UX301      0.0000 
      4 OAG       -37.3450   -7.3620  -24.8890 O.3       1 1UX301      0.0000 
      5 CAN       -35.9030   -9.3100  -24.6520 C.3       1 1UX301      0.0000 
      6 OAT       -36.8170  -10.1060  -23.8550 O.3       1 1UX301      0.0000 
      7 CBB       -36.2350  -10.9960  -22.9930 C.ar      1 1UX301      0.0000 
      8 CAK       -34.8520  -11.2340  -22.8770 C.ar      1 1UX301      0.0000 
      9 CBA       -37.1400  -11.6670  -22.1840 C.ar      1 1UX301      0.0000 
     10 OAS       -38.4550  -11.3420  -22.3980 O.3       1 1UX301      0.0000 
     11 CAB       -39.3390  -11.2810  -21.2640 C.3       1 1UX301      0.0000 
     12 CAI       -36.6980  -12.6040  -21.2500 C.ar      1 1UX301      0.0000 
     13 CAH       -35.3270  -12.8440  -21.1400 C.ar      1 1UX301      0.0000 
     14 CAY       -34.3910  -12.1560  -21.9240 C.ar      1 1UX301      0.0000 
     15 CBE       -33.0870  -12.4730  -21.8000 C.2       1 1UX301      0.0000 
     16 NAR       -32.1610  -12.1910  -22.7010 N.2       1 1UX301      0.0000 
     17 SAV       -32.3380  -13.3660  -20.5550 S.3       1 1UX301      0.0000 
     18 CBD       -30.8770  -13.3480  -21.2450 C.2       1 1UX301      0.0000 
     19 CAM       -29.5700  -13.9700  -20.6780 C.3       1 1UX301      0.0000 
     20 CAL       -29.6950  -15.4920  -20.5240 C.3       1 1UX301      0.0000 
     21 CAA       -29.2350  -16.2490  -21.7840 C.3       1 1UX301      0.0000 
     22 CBC       -30.9550  -12.6800  -22.3930 C.2       1 1UX301      0.0000 
     23 CAO       -29.7250  -12.4420  -23.2720 C.3       1 1UX301      0.0000 
     24 SAU       -28.9880  -10.8100  -22.8480 S.3       1 1UX301      0.0000 
     25 C2        -27.2090  -11.2190  -22.5290 C.ar      1 1UX301      0.0000 
     26 N3        -26.3190  -10.2390  -22.2240 N.ar      1 1UX301      0.0000 
     27 N1        -26.7900  -12.4960  -22.6140 N.ar      1 1UX301      0.0000 
     28 C6        -25.4980  -12.8110  -22.3960 C.ar      1 1UX301      0.0000 
     29 NAE       -25.1480  -14.0930  -22.4760 N.pl3     1 1UX301      0.0000 
     30 C5        -24.5500  -11.8210  -22.0800 C.ar      1 1UX301      0.0000 
     31 C4        -25.0090  -10.5000  -22.0160 C.ar      1 1UX301      0.0000 
     32 NAF       -24.1740   -9.4920  -21.7430 N.pl3     1 1UX301      0.0000 
     33 H         -35.2978   -8.6460  -24.0308 H         1 1UX301      0.0000 
     34 H         -35.2316   -9.9363  -25.2436 H         1 1UX301      0.0000 
     35 H         -34.1947  -10.7416  -23.4789 H         1 1UX301      0.0000 
     36 H         -37.3605  -13.1026  -20.6608 H         1 1UX301      0.0000 
     37 H         -34.9892  -13.5515  -20.4590 H         1 1UX301      0.0000 
     38 H         -29.3639  -13.5234  -19.7081 H         1 1UX301      0.0000 
     39 H         -28.7519  -13.7404  -21.3568 H         1 1UX301      0.0000 
     40 H         -30.7382  -15.7469  -20.3184 H         1 1UX301      0.0000 
     41 H         -29.0889  -15.8172  -19.6741 H         1 1UX301      0.0000 
     42 H         -29.9450  -12.3208  -24.2972 H         1 1UX301      0.0000 
     43 H         -28.9226  -13.0995  -23.0773 H         1 1UX301      0.0000 
     44 H         -24.1798  -14.2948  -22.3282 H         1 1UX301      0.0000 
     45 H         -25.8848  -14.7386  -22.6767 H         1 1UX301      0.0000 
     46 H         -23.5899  -12.0541  -21.9089 H         1 1UX301      0.0000 
     47 H         -24.5848   -8.5817  -21.6926 H         1 1UX301      0.0000 
     48 H         -23.2136   -9.7389  -21.6138 H         1 1UX301      0.0000 
     49 H         -35.0035   -7.3168  -26.3078 H         1 1UX301      0.0000 
     50 H         -35.3233   -8.5734  -27.2589 H         1 1UX301      0.0000 
     51 H         -36.2201   -7.2421  -27.3568 H         1 1UX301      0.0000 
     52 H         -37.3550   -9.9244  -26.9611 H         1 1UX301      0.0000 
     53 H         -38.4342   -9.5911  -25.8163 H         1 1UX301      0.0000 
     54 H         -38.2511   -8.5930  -27.0639 H         1 1UX301      0.0000 
     55 H         -39.3930  -12.1585  -20.7875 H         1 1UX301      0.0000 
     56 H         -39.0379  -10.6020  -20.5945 H         1 1UX301      0.0000 
     57 H         -40.2705  -11.0352  -21.5321 H         1 1UX301      0.0000 
     58 H         -28.2778  -16.0593  -22.0025 H         1 1UX301      0.0000 
     59 H         -29.3199  -17.2393  -21.6740 H         1 1UX301      0.0000 
     60 H         -29.7746  -15.9960  -22.5870 H         1 1UX301      0.0000 
     61 H         -36.6187   -6.7063  -24.6826 H         1 1UX301      0.0000 
@<TRIPOS>BOND
     1    2    1 1    
     2   49    1 1    
     3   50    1 1    
     4   51    1 1    
     5    3    2 1    
     6    4    2 1    
     7    5    2 1    
     8   52    3 1    
     9   53    3 1    
    10   54    3 1    
    11   61    4 1    
    12    6    5 1    
    13   33    5 1    
    14   34    5 1    
    15    7    6 1    
    16    8    7 ar   
    17    9    7 ar   
    18   14    8 ar   
    19   35    8 1    
    20   10    9 1    
    21   12    9 ar   
    22   11   10 1    
    23   55   11 1    
    24   56   11 1    
    25   57   11 1    
    26   13   12 ar   
    27   36   12 1    
    28   14   13 ar   
    29   37   13 1    
    30   15   14 1    
    31   16   15 2    
    32   17   15 1    
    33   22   16 1    
    34   18   17 1    
    35   19   18 1    
    36   22   18 2    
    37   20   19 1    
    38   38   19 1    
    39   39   19 1    
    40   21   20 1    
    41   40   20 1    
    42   41   20 1    
    43   58   21 1    
    44   59   21 1    
    45   60   21 1    
    46   23   22 1    
    47   24   23 1    
    48   42   23 1    
    49   43   23 1    
    50   25   24 1    
    51   26   25 ar   
    52   27   25 ar   
    53   31   26 ar   
    54   28   27 ar   
    55   29   28 1    
    56   30   28 ar   
    57   44   29 1    
    58   45   29 1    
    59   31   30 ar   
    60   46   30 1    
    61   32   31 1    
    62   47   32 1    
    63   48   32 1    
@<TRIPOS>SUBSTRUCTURE
     1 1UX301      1 GROUP   
@<TRIPOS>SET

