#    Name: 4frs_0V6_2_INTS_M
#    Modification time : Mon Mar 24 20:36:58 2014

@<TRIPOS>MOLECULE
4frs_0V6_2_INTS_M
   64     0     9     0     0
SMALL
NO_CHARGES


@<TRIPOS>ATOM
      1 CA         18.1640   36.1465   57.7515 C.3       3 GLC5        0.0000 
      2 CA         19.2290   34.9720   56.2240 C.3       9 GLL5        0.0000 
      3 CA         17.0990   37.3210   59.2790 C.3       6 GLP5        0.0000 
      4 CA         24.2770   32.6435   57.1315 C.3       3 GLC5        0.0000 
      5 CA         22.6850   33.4740   57.1920 C.3       9 GLL5        0.0000 
      6 CA         25.8690   31.8130   57.0710 C.3       6 GLP5        0.0000 
      7 OD1        20.9670   37.1235   58.4880 O.co2     2 ASC3        0.0000 
      8 OD1        21.0230   35.1780   58.8690 O.co2     8 ASL3        0.0000 
      9 OD1        20.1950   38.6690   59.0200 O.co2     5 ASP3        0.0000 
     10 OD1        21.4110   38.2100   57.2380 O.co2     5 ASP3        0.0000 
     11 OD1        20.1320   35.8495   61.0915 O.co2     2 ASC3        0.0000 
     12 OD1        19.7410   35.6620   62.4450 O.co2     5 ASP3        0.0000 
     13 O          21.5525   36.9120   57.4785 O.2       1 ALC1        0.0000 
     14 O          21.6940   35.6140   57.7190 O.2       7 ALL1        0.0000 
     15 O          21.4110   38.2100   57.2380 O.2       4 ALP1        0.0000 
     16 CA         23.8095   36.9380   56.7090 C.3       3 GLC5        0.0000 
     17 CA         22.9820   35.5130   55.6440 C.3       9 GLL5        0.0000 
     18 CA         24.6370   38.3630   57.7740 C.3       6 GLP5        0.0000 
     19 CA         21.6410   36.2805   54.2800 C.3       3 GLC5        0.0000 
     20 CA         20.3000   37.0480   52.9160 C.3       6 GLP5        0.0000 
     21 CA         16.6225   36.0820   57.6520 C.3       3 GLC5        0.0000 
     22 CA         16.1460   34.8430   56.0250 C.3       9 GLL5        0.0000 
     23 CA         12.1125   34.3985   54.4115 C.3       3 GLC5        0.0000 
     24 CA         14.0720   34.1940   54.9940 C.3       9 GLL5        0.0000 
     25 CA         10.1530   34.6030   53.8290 C.3       6 GLP5        0.0000 
     26 CA         15.2790   32.5830   52.3155 C.3       3 GLC5        0.0000 
     27 CA         16.1310   33.5230   54.0000 C.3       9 GLL5        0.0000 
     28 CA         14.4270   31.6430   50.6310 C.3       6 GLP5        0.0000 
     29 O          20.3590   37.3530   59.3790 O.2       1 ALC1        0.0000 
     30 O          20.5230   36.0370   59.7380 O.2       7 ALL1        0.0000 
     31 O          20.1950   38.6690   59.0200 O.2       4 ALP1        0.0000 
     32 O          20.9670   37.1235   58.4880 O.2       1 ALC1        0.0000 
     33 O          20.1320   35.8495   61.0915 O.2       1 ALC1        0.0000 
     34 O          19.7410   35.6620   62.4450 O.2       4 ALP1        0.0000 
     35 CA         18.3830   33.6195   61.4530 C.3       3 GLC5        0.0000 
     36 CA         20.1610   33.2410   60.2020 C.3       9 GLL5        0.0000 
     37 CA         16.6050   33.9980   62.7040 C.3       6 GLP5        0.0000 
     38 CA         14.4925   37.2025   55.7205 C.3       3 GLC5        0.0000 
     39 CA         13.9950   35.5130   57.0660 C.3       9 GLL5        0.0000 
     40 CA         14.9900   38.8920   54.3750 C.3       6 GLP5        0.0000 
     41 CA         10.5065   36.4145   59.0370 C.3       3 GLC5        0.0000 
     42 CA         12.6110   36.6620   59.0100 C.3       9 GLL5        0.0000 
     43 CA          8.4020   36.1670   59.0640 C.3       6 GLP5        0.0000 
     44 CA         12.2350   37.1750   57.1485 C.3       3 GLC5        0.0000 
     45 CA         11.8590   37.6880   55.2870 C.3       6 GLP5        0.0000 
     46 CA         11.7925   37.0700   60.4820 C.3       3 GLC5        0.0000 
     47 CA         10.9740   37.4780   61.9540 C.3       6 GLP5        0.0000 
     48 CA         18.0463   36.2350   55.0065 C.3       3 GLC5        0.0000 
     49 CA         17.3080   37.9530   54.3490 C.3       6 GLP5        0.0000 
     50 CA         24.0607   34.2458   55.4543 C.3       3 GLC5        0.0000 
     51 CA         22.0010   34.7040   56.5570 C.3       9 GLL5        0.0000 
     52 CA         25.6300   33.3830   54.8080 C.3       6 GLP5        0.0000 
     53 CA         13.1303   36.1080   55.4000 C.3       3 GLC5        0.0000 
     54 CA         14.7310   34.8620   56.0320 C.3       9 GLL5        0.0000 
     55 CA         16.4656   36.3175   55.0630 C.3       3 GLC5        0.0000 
     56 CA         12.7752   36.7343   56.3895 C.3       3 GLC5        0.0000 
     57 CA         15.3953   36.5508   58.3855 C.3       3 GLC5        0.0000 
     58 CA         13.3880   36.0480   57.9180 C.3       9 GLL5        0.0000 
     59 CA         12.5822   34.8995   59.8830 C.3       3 GLC5        0.0000 
     60 CA         12.1650   33.4440   61.3020 C.3       6 GLP5        0.0000 
     61 CA         19.2978   32.0205   55.7605 C.3       3 GLC5        0.0000 
     62 CA         19.1890   33.1760   54.4070 C.3       9 GLL5        0.0000 
     63 CA         18.8880   30.3350   56.4760 C.3       6 GLP5        0.0000 
     64 CA         19.9091   35.4215   54.0054 C.3       3 GLC5        0.0000 
@<TRIPOS>BOND
@<TRIPOS>SUBSTRUCTURE
     1 ALC1       13 GROUP        1 X    ALC  0     ROOT ALC X 1
     2 ASC3        7 GROUP        1 X    ASC  0     **** ASC X 3
     3 GLC5        1 GROUP        1 X    GLC  0     **** GLC X 6
     4 ALP1       15 GROUP        1 Y    ALP  0     ROOT ALP Y 8
     5 ASP3        9 GROUP        1 Y    ASP  0     **** ASP Y 10
     6 GLP5        3 GROUP        1 Y    GLP  0     **** GLP Y 13
     7 ALL1       14 GROUP        1 Z    ALL  0     ROOT ALL Z 15
     8 ASL3        8 GROUP        1 Z    ASL  0     **** ASL Z 17
     9 GLL5        2 GROUP        1 Z    GLL  0     **** GLL Z 20
@<TRIPOS>SET

