#    Name: 4frs_0V6_2_ligand
#    Modification time : Mon Mar 24 20:36:58 2014

@<TRIPOS>MOLECULE
4frs_0V6_2_ligand
   43    45     1     0     0
SMALL
NO_CHARGES


@<TRIPOS>ATOM
      1 C2         20.7440   34.2600   55.8250 C.2       1 0V6501      0.0000 
      2 S1         19.2290   34.9720   56.2240 S.3       1 0V6501      0.0000 
      3 C3         20.5570   33.3260   54.8440 C.2       1 0V6501      0.0000 
      4 C4         19.1890   33.1760   54.4070 C.2       1 0V6501      0.0000 
      5 C5         18.3400   34.0620   55.1040 C.2       1 0V6501      0.0000 
      6 C6         22.6850   33.4740   57.1920 C.3       1 0V6501      0.0000 
      7 C7         21.8120   32.8850   58.3250 C.2       1 0V6501      0.0000 
      8 N8         21.0130   33.8090   59.0990 N.am      1 0V6501      0.0000 
      9 C9         21.0230   35.1780   58.8690 C.cat     1 0V6501      0.0000 
     10 N10        21.6940   35.6140   57.7190 N.pl3     1 0V6501      0.0000 
     11 C11        22.0010   34.7040   56.5570 C.3       1 0V6501      0.0000 
     12 C12        22.9820   35.5130   55.6440 C.3       1 0V6501      0.0000 
     13 C14        16.8850   34.1610   55.0190 C.ar      1 0V6501      0.0000 
     14 C15        16.1460   34.8430   56.0250 C.ar      1 0V6501      0.0000 
     15 C16        14.7310   34.8620   56.0320 C.ar      1 0V6501      0.0000 
     16 C17        14.0720   34.1940   54.9940 C.ar      1 0V6501      0.0000 
     17 N18        14.7570   33.5370   53.9810 N.ar      1 0V6501      0.0000 
     18 C19        16.1310   33.5230   54.0000 C.ar      1 0V6501      0.0000 
     19 N20        20.5230   36.0370   59.7380 N.pl3     1 0V6501      0.0000 
     20 O21        21.8330   31.6690   58.5350 O.2       1 0V6501      0.0000 
     21 C22        20.1610   33.2410   60.2020 C.3       1 0V6501      0.0000 
     22 C23        13.9950   35.5130   57.0660 C.1       1 0V6501      0.0000 
     23 C24        13.3880   36.0480   57.9180 C.1       1 0V6501      0.0000 
     24 C25        12.6110   36.6620   59.0100 C.3       1 0V6501      0.0000 
     25 H          21.2734   32.7792   54.4422 H         1 0V6501      0.0000 
     26 H          18.9147   32.5577   53.7377 H         1 0V6501      0.0000 
     27 H          22.8351   32.7168   56.4301 H         1 0V6501      0.0000 
     28 H          23.6441   33.7715   57.6018 H         1 0V6501      0.0000 
     29 H          22.0087   36.5889   57.6212 H         1 0V6501      0.0000 
     30 H          16.6604   35.3383   56.7714 H         1 0V6501      0.0000 
     31 H          13.0283   34.1923   54.9852 H         1 0V6501      0.0000 
     32 H          16.6571   33.0299   53.2453 H         1 0V6501      0.0000 
     33 H          20.1241   35.6433   60.5662 H         1 0V6501      0.0000 
     34 H          20.5886   37.0033   59.4891 H         1 0V6501      0.0000 
     35 H          23.8033   35.7953   56.1398 H         1 0V6501      0.0000 
     36 H          23.2850   34.9759   54.8568 H         1 0V6501      0.0000 
     37 H          22.5560   36.3437   55.2856 H         1 0V6501      0.0000 
     38 H          20.7114   32.7704   60.8916 H         1 0V6501      0.0000 
     39 H          19.6437   33.9535   60.6761 H         1 0V6501      0.0000 
     40 H          19.4971   32.5786   59.8549 H         1 0V6501      0.0000 
     41 H          12.4152   36.0074   59.7402 H         1 0V6501      0.0000 
     42 H          13.0986   37.4291   59.4270 H         1 0V6501      0.0000 
     43 H          11.7319   37.0136   58.6882 H         1 0V6501      0.0000 
@<TRIPOS>BOND
     1    2    1 1    
     2    3    1 2    
     3   11    1 1    
     4    5    2 1    
     5    4    3 1    
     6   25    3 1    
     7    5    4 2    
     8   26    4 1    
     9   13    5 1    
    10    7    6 1    
    11   11    6 1    
    12   27    6 1    
    13   28    6 1    
    14    8    7 am   
    15   20    7 2    
    16    9    8 ar   
    17   21    8 1    
    18   10    9 ar   
    19   19    9 ar   
    20   11   10 1    
    21   29   10 1    
    22   12   11 1    
    23   35   12 1    
    24   36   12 1    
    25   37   12 1    
    26   14   13 ar   
    27   18   13 ar   
    28   15   14 ar   
    29   30   14 1    
    30   16   15 ar   
    31   22   15 1    
    32   17   16 ar   
    33   31   16 1    
    34   18   17 ar   
    35   32   18 1    
    36   33   19 1    
    37   34   19 1    
    38   38   21 1    
    39   39   21 1    
    40   40   21 1    
    41   23   22 3    
    42   24   23 1    
    43   41   24 1    
    44   42   24 1    
    45   43   24 1    
@<TRIPOS>SUBSTRUCTURE
     1 0V6501      1 GROUP   
@<TRIPOS>SET

