#    Name: 4h2i_A12_1_INTS_M
#    Modification time : Tue Mar 25 00:08:28 2014

@<TRIPOS>MOLECULE
4h2i_A12_1_INTS_M
   72     0    15     0     0
SMALL
NO_CHARGES


@<TRIPOS>ATOM
      1 NZ        -18.7875   21.2540  -29.8570 N.4       3 LYC4        0.0000 
      2 NZ        -18.2110   20.3880  -28.7680 N.4      13 LYL4        0.0000 
      3 NZ        -19.3360   21.8400  -32.2490 N.4       8 LYP4        0.0000 
      4 Zn        -18.7560   20.5135  -27.9050 Zn        4 ZIC7        0.0000 
      5 Zn        -18.2110   20.3880  -28.7680 Zn       14 ZIL7        0.0000 
      6 Zn        -19.3010   20.6390  -27.0420 Zn        9 ZIP7        0.0000 
      7 N         -18.7875   21.2540  -29.8570 N.am      2 SEC2        0.0000 
      8 N         -18.2110   20.3880  -28.7680 N.am     12 SEL2        0.0000 
      9 N         -19.3640   22.1200  -30.9460 N.am      7 SEP2        0.0000 
     10 NZ        -17.5930   20.3945  -31.5490 N.4       3 LYC4        0.0000 
     11 NZ        -16.4730   20.0350  -30.3820 N.4      13 LYL4        0.0000 
     12 N         -16.1075   21.2170  -29.9790 N.am      2 SEC2        0.0000 
     13 N         -16.4730   20.0350  -30.3820 N.am     12 SEL2        0.0000 
     14 N         -15.7420   22.3990  -29.5760 N.am      7 SEP2        0.0000 
     15 N         -17.5930   20.3945  -31.5490 N.am      2 SEC2        0.0000 
     16 N         -18.7130   20.7540  -32.7160 N.am      7 SEP2        0.0000 
     17 Zn        -15.8965   19.4655  -27.0770 Zn        4 ZIC7        0.0000 
     18 Zn        -15.8760   19.5540  -28.1180 Zn       14 ZIL7        0.0000 
     19 Zn        -15.9170   19.3770  -26.0360 Zn        9 ZIP7        0.0000 
     20 N         -14.7165   20.1055  -27.9950 N.am      2 SEC2        0.0000 
     21 N         -15.8760   19.5540  -28.1180 N.am     12 SEL2        0.0000 
     22 N         -13.5570   20.6570  -27.8720 N.am      7 SEP2        0.0000 
     23 N         -21.2230   17.4015  -29.6835 N.am      2 SEC2        0.0000 
     24 N         -20.0110   18.0630  -30.3280 N.am     12 SEL2        0.0000 
     25 N         -22.4350   16.7400  -29.0390 N.am      7 SEP2        0.0000 
     26 NZ        -19.5075   15.4835  -32.0020 N.4       3 LYC4        0.0000 
     27 NZ        -19.0530   15.8230  -30.6910 N.4      13 LYL4        0.0000 
     28 NZ        -20.5560   16.0520  -34.0930 N.4       8 LYP4        0.0000 
     29 N         -19.5075   15.4835  -32.0020 N.am      2 SEC2        0.0000 
     30 N         -19.0530   15.8230  -30.6910 N.am     12 SEL2        0.0000 
     31 N         -19.9620   15.1440  -33.3130 N.am      7 SEP2        0.0000 
     32 CA        -16.5995   16.8855  -27.3685 C.3       5 GLC5        0.0000 
     33 CA        -17.4670   17.6790  -29.2660 C.3      15 GLL5        0.0000 
     34 CA        -15.7320   16.0920  -25.4710 C.3      10 GLP5        0.0000 
     35 N         -19.2400   17.7000  -32.7785 N.am      2 SEC2        0.0000 
     36 N         -17.9940   18.0460  -31.7950 N.am     12 SEL2        0.0000 
     37 N         -20.4860   17.3540  -33.7620 N.am      7 SEP2        0.0000 
     38 N         -18.3535   19.4000  -32.2555 N.am      2 SEC2        0.0000 
     39 CA        -17.8235   17.6470  -35.4880 C.3       5 GLC5        0.0000 
     40 CA        -16.6810   17.5730  -33.8370 C.3      15 GLL5        0.0000 
     41 CA        -18.9660   17.7210  -37.1390 C.3      10 GLP5        0.0000 
     42 O         -14.1585   15.6600  -35.1195 O.2       1 ALC1        0.0000 
     43 O         -15.2180   15.9150  -34.4550 O.2      11 ALL1        0.0000 
     44 O         -13.0990   15.4050  -35.7840 O.2       6 ALP1        0.0000 
     45 CA        -13.1040   18.5580  -35.9445 C.3       5 GLC5        0.0000 
     46 CA        -14.9890   18.1820  -35.5230 C.3      15 GLL5        0.0000 
     47 CA        -11.2190   18.9340  -36.3660 C.3      10 GLP5        0.0000 
     48 N         -15.3065   18.3425  -37.8070 N.am      2 SEC2        0.0000 
     49 N         -15.6230   17.4420  -36.6200 N.am     12 SEL2        0.0000 
     50 N         -14.9900   19.2430  -38.9940 N.am      7 SEP2        0.0000 
     51 O         -14.3610   16.4235  -36.2020 O.2       1 ALC1        0.0000 
     52 O         -15.6230   17.4420  -36.6200 O.2      11 ALL1        0.0000 
     53 O         -14.7760   16.7230  -37.1195 O.2       1 ALC1        0.0000 
     54 O         -13.9290   16.0040  -37.6190 O.2       6 ALP1        0.0000 
     55 CA        -16.8110   20.2670  -36.7370 C.3       5 GLC5        0.0000 
     56 CA        -15.8490   19.3710  -35.1240 C.3      15 GLL5        0.0000 
     57 CA        -17.7730   21.1630  -38.3500 C.3      10 GLP5        0.0000 
     58 CA        -13.6890   25.1150  -35.6370 C.3       5 GLC5        0.0000 
     59 CA        -12.8250   23.1330  -35.2210 C.3      15 GLL5        0.0000 
     60 CA        -14.5530   27.0970  -36.0530 C.3      10 GLP5        0.0000 
     61 CA        -15.7545   21.8165  -37.8250 C.3       5 GLC5        0.0000 
     62 CA        -13.7360   22.4700  -37.3000 C.3      15 GLL5        0.0000 
     63 CA        -12.1640   22.2600  -38.2940 C.3       5 GLC5        0.0000 
     64 CA        -10.5920   22.0500  -39.2880 C.3      10 GLP5        0.0000 
     65 N         -14.7215   20.3465  -37.8955 N.am      2 SEC2        0.0000 
     66 N         -14.4530   21.4500  -36.7970 N.am     12 SEL2        0.0000 
     67 CA        -16.0975   21.2080  -36.8935 C.3       5 GLC5        0.0000 
     68 CA        -14.4220   21.2530  -35.4370 C.3      15 GLL5        0.0000 
     69 CA        -16.6487   15.9440  -35.2775 C.3       5 GLC5        0.0000 
     70 CA        -15.2320   17.3310  -34.2550 C.3      15 GLL5        0.0000 
     71 CA        -17.3410   14.4360  -36.5090 C.3      10 GLP5        0.0000 
     72 CA        -17.1925   18.2488  -36.2313 C.3       5 GLC5        0.0000 
@<TRIPOS>BOND
@<TRIPOS>SUBSTRUCTURE
     1 ALC1       42 GROUP        1 X    ALC  0     ROOT ALC X 1
     2 SEC2        7 GROUP        1 X    SEC  0     **** SEC X 2
     3 LYC4        1 GROUP        1 X    LYC  0     **** LYC X 4
     4 ZIC7        4 GROUP        1 X    ZIC  0     **** ZIC X 5
     5 GLC5       32 GROUP        1 X    GLC  0     **** GLC X 6
     6 ALP1       44 GROUP        1 Y    ALP  0     ROOT ALP Y 8
     7 SEP2        9 GROUP        1 Y    SEP  0     **** SEP Y 9
     8 LYP4        3 GROUP        1 Y    LYP  0     **** LYP Y 11
     9 ZIP7        6 GROUP        1 Y    ZIP  0     **** ZIP Y 12
    10 GLP5       34 GROUP        1 Y    GLP  0     **** GLP Y 13
    11 ALL1       43 GROUP        1 Z    ALL  0     ROOT ALL Z 15
    12 SEL2        8 GROUP        1 Z    SEL  0     **** SEL Z 16
    13 LYL4        2 GROUP        1 Z    LYL  0     **** LYL Z 18
    14 ZIL7        5 GROUP        1 Z    ZIL  0     **** ZIL Z 19
    15 GLL5       33 GROUP        1 Z    GLL  0     **** GLL Z 20
@<TRIPOS>SET

