#    Name: 4h2i_A12_1_ligand
#    Modification time : Tue Mar 25 00:08:29 2014

@<TRIPOS>MOLECULE
4h2i_A12_1_ligand
   41    43     1     0     0
SMALL
NO_CHARGES


@<TRIPOS>ATOM
      1 PB        -17.1280   19.4690  -29.0090 P.3       1 A12603      0.0000 
      2 O1B       -18.2110   20.3880  -28.7680 O.co2     1 A12603      0.0000 
      3 O2B       -16.4730   20.0350  -30.3820 O.co2     1 A12603      0.0000 
      4 O3B       -15.8760   19.5540  -28.1180 O.co2     1 A12603      0.0000 
      5 PA        -18.7420   17.3850  -30.5830 P.3       1 A12603      0.0000 
      6 O1A       -20.0110   18.0630  -30.3280 O.co2     1 A12603      0.0000 
      7 O2A       -19.0530   15.8230  -30.6910 O.co2     1 A12603      0.0000 
      8 C3A       -17.4670   17.6790  -29.2660 C.3       1 A12603      0.0000 
      9 O5'       -17.9940   18.0460  -31.7950 O.3       1 A12603      0.0000 
     10 C5'       -16.7990   17.4010  -32.2840 C.3       1 A12603      0.0000 
     11 C4'       -16.6810   17.5730  -33.8370 C.3       1 A12603      0.0000 
     12 O4'       -16.8100   18.9640  -34.1540 O.3       1 A12603      0.0000 
     13 C3'       -15.2320   17.3310  -34.2550 C.3       1 A12603      0.0000 
     14 O3'       -15.2180   15.9150  -34.4550 O.3       1 A12603      0.0000 
     15 C2'       -14.9890   18.1820  -35.5230 C.3       1 A12603      0.0000 
     16 O2'       -15.6230   17.4420  -36.6200 O.3       1 A12603      0.0000 
     17 C1'       -15.8490   19.3710  -35.1240 C.3       1 A12603      0.0000 
     18 N9        -14.9820   20.3820  -34.6140 N.pl3     1 A12603      0.0000 
     19 C8        -14.6150   20.6080  -33.3260 C.2       1 A12603      0.0000 
     20 N7        -13.7570   21.6650  -33.2640 N.2       1 A12603      0.0000 
     21 C5        -13.6100   22.0980  -34.5460 C.ar      1 A12603      0.0000 
     22 C6        -12.8250   23.1330  -35.2210 C.ar      1 A12603      0.0000 
     23 N6        -12.0610   23.9590  -34.4510 N.pl3     1 A12603      0.0000 
     24 N1        -12.9190   23.2350  -36.5770 N.ar      1 A12603      0.0000 
     25 C2        -13.7360   22.4700  -37.3000 C.ar      1 A12603      0.0000 
     26 N3        -14.4530   21.4500  -36.7970 N.ar      1 A12603      0.0000 
     27 C4        -14.4220   21.2530  -35.4370 C.ar      1 A12603      0.0000 
     28 H         -17.8736   17.3240  -28.3891 H         1 A12603      0.0000 
     29 H         -16.5940   17.2573  -29.6130 H         1 A12603      0.0000 
     30 H         -16.8020   16.3267  -32.0808 H         1 A12603      0.0000 
     31 H         -15.8942   17.8302  -31.8453 H         1 A12603      0.0000 
     32 H         -17.3133   16.9668  -34.3387 H         1 A12603      0.0000 
     33 H         -14.6156   17.6484  -33.4699 H         1 A12603      0.0000 
     34 H         -14.0336   18.4105  -35.6102 H         1 A12603      0.0000 
     35 H         -16.3394   19.7197  -36.0294 H         1 A12603      0.0000 
     36 H         -14.9181   20.0932  -32.5596 H         1 A12603      0.0000 
     37 H         -11.5306   24.6511  -34.9406 H         1 A12603      0.0000 
     38 H         -12.0983   23.8001  -33.4644 H         1 A12603      0.0000 
     39 H         -13.8309   22.6768  -38.3487 H         1 A12603      0.0000 
     40 H         -14.2507   15.6746  -34.5350 H         1 A12603      0.0000 
     41 H         -15.0990   16.5937  -36.6966 H         1 A12603      0.0000 
@<TRIPOS>BOND
     1    2    1 ar   
     2    3    1 ar   
     3    4    1 ar   
     4    8    1 1    
     5    6    5 ar   
     6    7    5 ar   
     7    8    5 1    
     8    9    5 1    
     9   28    8 1    
    10   29    8 1    
    11   10    9 1    
    12   11   10 1    
    13   30   10 1    
    14   31   10 1    
    15   12   11 1    
    16   13   11 1    
    17   32   11 1    
    18   17   12 1    
    19   14   13 1    
    20   15   13 1    
    21   33   13 1    
    22   40   14 1    
    23   16   15 1    
    24   17   15 1    
    25   34   15 1    
    26   41   16 1    
    27   18   17 1    
    28   35   17 1    
    29   19   18 1    
    30   27   18 1    
    31   20   19 2    
    32   36   19 1    
    33   21   20 1    
    34   22   21 ar   
    35   27   21 ar   
    36   23   22 1    
    37   24   22 ar   
    38   37   23 1    
    39   38   23 1    
    40   25   24 ar   
    41   26   25 ar   
    42   39   25 1    
    43   27   26 ar   
@<TRIPOS>SUBSTRUCTURE
     1 A12603      1 GROUP   
@<TRIPOS>SET

