#    Name: 3oxi_SYY_1_INTS_M
#    Modification time : Tue Mar 25 05:36:21 2014

@<TRIPOS>MOLECULE
3oxi_SYY_1_INTS_M
   57     0     6     0     0
SMALL
NO_CHARGES


@<TRIPOS>ATOM
      1 CA          3.6130   -1.8225  -28.7270 C.3       2 GLC5        0.0000 
      2 CA          1.8160   -1.6330  -29.3460 C.3       6 GLL5        0.0000 
      3 CA          5.4100   -2.0120  -28.1080 C.3       4 GLP5        0.0000 
      4 CA          1.0155   -4.8155  -31.8550 C.3       2 GLC5        0.0000 
      5 CA          1.0620   -2.8060  -31.5600 C.3       6 GLL5        0.0000 
      6 CA          0.9690   -6.8250  -32.1500 C.3       4 GLP5        0.0000 
      7 CA          1.7600   -2.9630  -33.5815 C.3       2 GLC5        0.0000 
      8 CA          2.4580   -3.1200  -35.6030 C.3       4 GLP5        0.0000 
      9 CA          0.9930   -0.9045  -33.0765 C.3       2 GLC5        0.0000 
     10 CA          0.1590   -1.7480  -31.3770 C.3       6 GLL5        0.0000 
     11 CA          1.8270   -0.0610  -34.7760 C.3       4 GLP5        0.0000 
     12 CA         -1.8525   -2.6865  -31.3530 C.3       2 GLC5        0.0000 
     13 CA         -3.8640   -3.6250  -31.3290 C.3       4 GLP5        0.0000 
     14 CA         -0.9270    1.7600  -33.2400 C.3       2 GLC5        0.0000 
     15 CA         -2.6190    1.2370  -34.2240 C.3       6 GLL5        0.0000 
     16 CA          0.7650    2.2830  -32.2560 C.3       4 GLP5        0.0000 
     17 CA         -0.6875   -1.8510  -28.8225 C.3       2 GLC5        0.0000 
     18 CA          0.4330   -0.9710  -30.1370 C.3       6 GLL5        0.0000 
     19 CA         -1.8080   -2.7310  -27.5080 C.3       4 GLP5        0.0000 
     20 N          -0.2320   -3.4065  -34.8400 N.am      1 SEC2        0.0000 
     21 N          -0.6620   -2.9490  -33.6310 N.am      5 SEL2        0.0000 
     22 N           0.1980   -3.8640  -36.0490 N.am      3 SEP2        0.0000 
     23 CA          2.0215   -4.8315  -30.7965 C.3       2 GLC5        0.0000 
     24 CA          2.0100   -2.8640  -30.5450 C.3       6 GLL5        0.0000 
     25 CA          2.0330   -6.7990  -31.0480 C.3       4 GLP5        0.0000 
     26 CA          3.5105   -3.3070  -29.2625 C.3       2 GLC5        0.0000 
     27 CA          5.0110   -3.7500  -27.9800 C.3       4 GLP5        0.0000 
     28 CA          0.1830    2.9615  -30.1130 C.3       2 GLC5        0.0000 
     29 CA         -0.5830    2.2240  -28.3940 C.3       6 GLL5        0.0000 
     30 CA          0.9490    3.6990  -31.8320 C.3       4 GLP5        0.0000 
     31 CA         -0.5475    3.7915  -28.1215 C.3       2 GLC5        0.0000 
     32 CA         -0.5120    5.3590  -27.8490 C.3       4 GLP5        0.0000 
     33 CA          1.1965    2.5925  -28.2425 C.3       2 GLC5        0.0000 
     34 CA          2.9760    2.9610  -28.0910 C.3       4 GLP5        0.0000 
     35 CA         -2.1680   -3.3050  -35.0005 C.3       2 GLC5        0.0000 
     36 CA         -2.4540   -1.4610  -33.9770 C.3       6 GLL5        0.0000 
     37 CA         -1.8820   -5.1490  -36.0240 C.3       4 GLP5        0.0000 
     38 CA         -4.9965   -0.6195  -34.0815 C.3       2 GLC5        0.0000 
     39 CA         -3.9130    0.0820  -32.3230 C.3       6 GLL5        0.0000 
     40 CA         -6.0800   -1.3210  -35.8400 C.3       4 GLP5        0.0000 
     41 CA         -5.9130   -0.9430  -32.4285 C.3       2 GLC5        0.0000 
     42 CA         -7.9130   -1.9680  -32.5340 C.3       4 GLP5        0.0000 
     43 CA         -3.8885   -1.7715  -31.8260 C.3       2 GLC5        0.0000 
     44 CA         -1.7965    3.4630  -32.8160 C.3       2 GLC5        0.0000 
     45 CA         -3.5620    2.2280  -33.1660 C.3       6 GLL5        0.0000 
     46 CA         -0.0310    4.6980  -32.4660 C.3       4 GLP5        0.0000 
     47 CA          2.2142    0.3500  -29.5018 C.3       2 GLC5        0.0000 
     48 CA          3.3040    2.0020  -29.2620 C.3       4 GLP5        0.0000 
     49 CA          0.5605   -3.3742  -29.4578 C.3       2 GLC5        0.0000 
     50 CA         -0.7920   -4.5000  -28.9700 C.3       4 GLP5        0.0000 
     51 CA         -0.0907   -3.3885  -30.2192 C.3       2 GLC5        0.0000 
     52 CA          0.5305    0.4617  -31.5065 C.3       2 GLC5        0.0000 
     53 CA         -4.4175   -1.0785  -34.7648 C.3       2 GLC5        0.0000 
     54 CA         -3.3095   -2.2305  -32.5092 C.3       2 GLC5        0.0000 
     55 CA         -3.0560   -0.2110  -33.4020 C.3       6 GLL5        0.0000 
     56 CA          2.7269   -1.3195  -31.4099 C.3       2 GLC5        0.0000 
     57 CA          4.3650   -0.4590  -32.0140 C.3       4 GLP5        0.0000 
@<TRIPOS>BOND
@<TRIPOS>SUBSTRUCTURE
     1 SEC2       20 GROUP        1 X    SEC  0     ROOT SEC X 2
     2 GLC5        1 GROUP        1 X    GLC  0     **** GLC X 6
     3 SEP2       22 GROUP        1 Y    SEP  0     ROOT SEP Y 9
     4 GLP5        3 GROUP        1 Y    GLP  0     **** GLP Y 13
     5 SEL2       21 GROUP        1 Z    SEL  0     ROOT SEL Z 16
     6 GLL5        2 GROUP        1 Z    GLL  0     **** GLL Z 20
@<TRIPOS>SET

