#    Name: 3oxi_SYY_1_ligand
#    Modification time : Tue Mar 25 05:36:21 2014

@<TRIPOS>MOLECULE
3oxi_SYY_1_ligand
   29    30     1     0     0
SMALL
NO_CHARGES


@<TRIPOS>ATOM
      1 S           1.8160   -1.6330  -29.3460 S.3       1 SYY1        0.0000 
      2 C1          1.0620   -2.8060  -31.5600 C.2       1 SYY1        0.0000 
      3 N1         -0.9070   -1.3110  -32.0950 N.am      1 SYY1        0.0000 
      4 O1         -1.3960    0.5210  -30.0000 O.2       1 SYY1        0.0000 
      5 C2          0.1590   -1.7480  -31.3770 C.2       1 SYY1        0.0000 
      6 O2          0.2060    1.0350  -28.5700 O.3       1 SYY1        0.0000 
      7 S2         -2.6190    1.2370  -34.2240 S.3       1 SYY1        0.0000 
      8 C3          0.4330   -0.9710  -30.1370 C.2       1 SYY1        0.0000 
      9 O3         -0.6620   -2.9490  -33.6310 O.2       1 SYY1        0.0000 
     10 C5          2.0100   -2.8640  -30.5450 C.2       1 SYY1        0.0000 
     11 C6         -0.3010    0.2010  -29.5950 C.2       1 SYY1        0.0000 
     12 C9         -0.5830    2.2240  -28.3940 C.3       1 SYY1        0.0000 
     13 C11        -1.2560   -1.9560  -33.2110 C.2       1 SYY1        0.0000 
     14 C12        -2.4540   -1.4610  -33.9770 C.3       1 SYY1        0.0000 
     15 C14        -3.0560   -0.2110  -33.4020 C.2       1 SYY1        0.0000 
     16 C15        -3.9130    0.0820  -32.3230 C.2       1 SYY1        0.0000 
     17 C16        -4.1860    1.4540  -32.1980 C.2       1 SYY1        0.0000 
     18 C17        -3.5620    2.2280  -33.1660 C.2       1 SYY1        0.0000 
     19 H           1.0235   -3.4220  -32.3102 H         1 SYY1        0.0000 
     20 H          -1.4406   -0.4803  -31.7703 H         1 SYY1        0.0000 
     21 H           2.7325   -3.4329  -30.3770 H         1 SYY1        0.0000 
     22 H          -3.2210   -2.2564  -34.0015 H         1 SYY1        0.0000 
     23 H          -2.1601   -1.2742  -35.0260 H         1 SYY1        0.0000 
     24 H          -4.2768   -0.5971  -31.7275 H         1 SYY1        0.0000 
     25 H          -4.7613    1.8198  -31.4939 H         1 SYY1        0.0000 
     26 H          -3.5373    3.1195  -33.3657 H         1 SYY1        0.0000 
     27 H          -0.2193    2.8069  -27.6674 H         1 SYY1        0.0000 
     28 H          -0.6120    2.7771  -29.2266 H         1 SYY1        0.0000 
     29 H          -1.5291    2.0094  -28.1516 H         1 SYY1        0.0000 
@<TRIPOS>BOND
     1    8    1 1    
     2   10    1 1    
     3    5    2 1    
     4   10    2 2    
     5   19    2 1    
     6    5    3 1    
     7   13    3 am   
     8   20    3 1    
     9   11    4 2    
    10    8    5 2    
    11   11    6 1    
    12   12    6 1    
    13   15    7 1    
    14   18    7 1    
    15   11    8 1    
    16   13    9 2    
    17   21   10 1    
    18   27   12 1    
    19   28   12 1    
    20   29   12 1    
    21   14   13 1    
    22   15   14 1    
    23   22   14 1    
    24   23   14 1    
    25   16   15 2    
    26   17   16 1    
    27   24   16 1    
    28   18   17 2    
    29   25   17 1    
    30   26   18 1    
@<TRIPOS>SUBSTRUCTURE
     1 SYY1        1 GROUP   
@<TRIPOS>SET

