#    Name: 4btk_DTQ_1_INTS_M
#    Modification time : Tue Mar 25 08:21:13 2014

@<TRIPOS>MOLECULE
4btk_DTQ_1_INTS_M
   73     0     9     0     0
SMALL
NO_CHARGES


@<TRIPOS>ATOM
      1 CA         66.8425   19.9650   26.7160 C.3       3 GLC5        0.0000 
      2 CA         66.2050   19.1560   25.2280 C.3       9 GLL5        0.0000 
      3 CA         67.4800   20.7740   28.2040 C.3       6 GLP5        0.0000 
      4 CA         65.9735   17.3435   25.1750 C.3       3 GLC5        0.0000 
      5 CA         65.7420   15.5310   25.1220 C.3       6 GLP5        0.0000 
      6 CA         68.2240   19.1295   25.4540 C.3       3 GLC5        0.0000 
      7 CA         70.2430   19.1030   25.6800 C.3       6 GLP5        0.0000 
      8 CA         66.9845   17.8990   23.7730 C.3       3 GLC5        0.0000 
      9 CA         67.7640   16.6420   22.3180 C.3       6 GLP5        0.0000 
     10 CA         64.8525   18.3690   23.7260 C.3       3 GLC5        0.0000 
     11 CA         63.5000   17.5820   22.2240 C.3       6 GLP5        0.0000 
     12 N          68.1560   19.4850   23.9255 N.am      2 SEC2        0.0000 
     13 N          66.9080   19.9880   24.4600 N.am      8 SEL2        0.0000 
     14 N          69.4040   18.9820   23.3910 N.am      5 SEP2        0.0000 
     15 CA         66.8605   20.8900   26.0620 C.3       3 GLC5        0.0000 
     16 CA         66.2410   21.0060   23.9200 C.3       9 GLL5        0.0000 
     17 CA         67.1900   19.4700   22.7355 C.3       3 GLC5        0.0000 
     18 CA         68.1390   17.9340   21.5510 C.3       6 GLP5        0.0000 
     19 CA         63.8725   18.9205   23.6055 C.3       3 GLC5        0.0000 
     20 CA         64.2450   20.2590   24.9870 C.3       9 GLL5        0.0000 
     21 CA         68.1780   20.2460   22.5520 C.3       3 GLC5        0.0000 
     22 CA         66.9010   21.9020   23.1050 C.3       9 GLL5        0.0000 
     23 CA         69.4550   18.5900   21.9990 C.3       6 GLP5        0.0000 
     24 CA         61.6070   18.9965   24.2110 C.3       3 GLC5        0.0000 
     25 CA         62.0970   19.5370   26.0450 C.3       9 GLL5        0.0000 
     26 CA         61.1170   18.4560   22.3770 C.3       6 GLP5        0.0000 
     27 CA         64.0130   16.8485   25.6130 C.3       3 GLC5        0.0000 
     28 CA         62.2840   18.1660   26.1040 C.3       9 GLL5        0.0000 
     29 CA         63.0580   18.8045   27.7780 C.3       3 GLC5        0.0000 
     30 CA         63.8320   19.4430   29.4520 C.3       6 GLP5        0.0000 
     31 N          58.5665   21.0665   28.5730 N.am      2 SEC2        0.0000 
     32 N          59.2700   19.8870   28.2490 N.am      8 SEL2        0.0000 
     33 N          57.8630   22.2460   28.8970 N.am      5 SEP2        0.0000 
     34 O          58.4000   19.2305   28.8205 O.2       1 ALC1        0.0000 
     35 O          59.2700   19.8870   28.2490 O.2       7 ALL1        0.0000 
     36 O          57.5300   18.5740   29.3920 O.2       4 ALP1        0.0000 
     37 CA         67.7150   24.3340   23.6975 C.3       3 GLC5        0.0000 
     38 CA         68.3220   23.8160   21.6770 C.3       9 GLL5        0.0000 
     39 CA         67.1080   24.8520   25.7180 C.3       6 GLP5        0.0000 
     40 CA         69.1495   23.0545   23.5155 C.3       3 GLC5        0.0000 
     41 CA         69.9770   22.2930   25.3540 C.3       6 GLP5        0.0000 
     42 CA         64.8895   25.5840   24.4800 C.3       3 GLC5        0.0000 
     43 CA         63.4820   24.9220   23.1960 C.3       9 GLL5        0.0000 
     44 CA         66.2970   26.2460   25.7640 C.3       6 GLP5        0.0000 
     45 CA         62.9040   26.8635   23.9200 C.3       3 GLC5        0.0000 
     46 CA         62.3260   28.8050   24.6440 C.3       6 GLP5        0.0000 
     47 CA         62.9475   25.3430   25.0905 C.3       3 GLC5        0.0000 
     48 CA         62.4130   25.7640   26.9850 C.3       6 GLP5        0.0000 
     49 CA         66.8395   23.1530   24.6153 C.3       3 GLC5        0.0000 
     50 CA         68.2740   21.8735   24.4333 C.3       3 GLC5        0.0000 
     51 CA         63.6580   20.6512   22.3858 C.3       3 GLC5        0.0000 
     52 CA         64.8900   21.1870   24.1810 C.3       9 GLL5        0.0000 
     53 CA         62.7610   19.5830   20.8760 C.3       6 GLP5        0.0000 
     54 CA         66.0046   23.7564   24.4311 C.3       3 GLC5        0.0000 
     55 CA         64.9070   23.1510   22.8090 C.3       9 GLL5        0.0000 
     56 CA         64.0304   22.0857   25.9055 C.3       3 GLC5        0.0000 
     57 CA         64.2200   22.2520   23.6100 C.3       9 GLL5        0.0000 
     58 CA         63.6670   22.6840   27.7140 C.3       6 GLP5        0.0000 
     59 CA         62.6260   21.2485   27.0630 C.3       3 GLC5        0.0000 
     60 CA         59.7030   19.3940   25.8050 C.3       3 GLC5        0.0000 
     61 CA         57.8210   18.9750   25.1980 C.3       6 GLP5        0.0000 
     62 CA         60.2848   20.9552   28.7532 C.3       3 GLC5        0.0000 
     63 CA         61.0730   20.0890   26.7790 C.3       9 GLL5        0.0000 
     64 CA         59.8920   22.2250   30.3360 C.3       6 GLP5        0.0000 
     65 CA         62.3828   19.4952   28.2195 C.3       3 GLC5        0.0000 
     66 CA         60.2820   19.2820   27.5620 C.3       9 GLL5        0.0000 
     67 CA         62.4540   17.6775   28.4790 C.3       3 GLC5        0.0000 
     68 CA         60.4590   17.9150   27.6330 C.3       9 GLL5        0.0000 
     69 CA         63.9360   17.7180   29.6960 C.3       6 GLP5        0.0000 
     70 CA         61.1377   17.4748   24.6898 C.3       3 GLC5        0.0000 
     71 CA         61.4850   17.3590   26.8910 C.3       9 GLL5        0.0000 
     72 CA         60.3910   17.1870   22.8820 C.3       6 GLP5        0.0000 
     73 CA         59.3744   18.4769   26.2211 C.3       3 GLC5        0.0000 
@<TRIPOS>BOND
@<TRIPOS>SUBSTRUCTURE
     1 ALC1       34 GROUP        1 X    ALC  0     ROOT ALC X 1
     2 SEC2       12 GROUP        1 X    SEC  0     **** SEC X 2
     3 GLC5        1 GROUP        1 X    GLC  0     **** GLC X 6
     4 ALP1       36 GROUP        1 Y    ALP  0     ROOT ALP Y 8
     5 SEP2       14 GROUP        1 Y    SEP  0     **** SEP Y 9
     6 GLP5        3 GROUP        1 Y    GLP  0     **** GLP Y 13
     7 ALL1       35 GROUP        1 Z    ALL  0     ROOT ALL Z 15
     8 SEL2       13 GROUP        1 Z    SEL  0     **** SEL Z 16
     9 GLL5        2 GROUP        1 Z    GLL  0     **** GLL Z 20
@<TRIPOS>SET

