#    Name: 4btk_DTQ_1_ligand
#    Modification time : Tue Mar 25 08:21:13 2014

@<TRIPOS>MOLECULE
4btk_DTQ_1_ligand
   37    39     1     0     0
SMALL
NO_CHARGES


@<TRIPOS>ATOM
      1 N1         64.9060   19.2270   25.5250 N.ar      1 DTQ1337     0.0000 
      2 C2         66.2050   19.1560   25.2280 C.ar      1 DTQ1337     0.0000 
      3 N3         66.9080   19.9880   24.4600 N.ar      1 DTQ1337     0.0000 
      4 C4         66.2410   21.0060   23.9200 C.ar      1 DTQ1337     0.0000 
      5 C5         64.8900   21.1870   24.1810 C.ar      1 DTQ1337     0.0000 
      6 C6         64.2450   20.2590   24.9870 C.ar      1 DTQ1337     0.0000 
      7 C7         66.9010   21.9020   23.1050 C.ar      1 DTQ1337     0.0000 
      8 C8         66.2580   22.9880   22.5480 C.ar      1 DTQ1337     0.0000 
      9 C9         64.9070   23.1510   22.8090 C.ar      1 DTQ1337     0.0000 
     10 C10        64.2200   22.2520   23.6100 C.ar      1 DTQ1337     0.0000 
     11 N12        62.8680   20.4170   25.2580 N.pl3     1 DTQ1337     0.0000 
     12 C14        62.0970   19.5370   26.0450 C.ar      1 DTQ1337     0.0000 
     13 C15        61.0730   20.0890   26.7790 C.ar      1 DTQ1337     0.0000 
     14 C16        60.2820   19.2820   27.5620 C.ar      1 DTQ1337     0.0000 
     15 C17        60.4590   17.9150   27.6330 C.ar      1 DTQ1337     0.0000 
     16 C18        61.4850   17.3590   26.8910 C.ar      1 DTQ1337     0.0000 
     17 C19        62.2840   18.1660   26.1040 C.ar      1 DTQ1337     0.0000 
     18 O21        59.2700   19.8870   28.2490 O.3       1 DTQ1337     0.0000 
     19 O26        66.9030   23.9280   21.7190 O.3       1 DTQ1337     0.0000 
     20 C27        68.3220   23.8160   21.6770 C.3       1 DTQ1337     0.0000 
     21 O31        64.2260   24.2010   22.2030 O.3       1 DTQ1337     0.0000 
     22 C32        63.4820   24.9220   23.1960 C.3       1 DTQ1337     0.0000 
     23 H          66.7580   18.3148   25.6674 H         1 DTQ1337     0.0000 
     24 H          67.9153   21.7543   22.9040 H         1 DTQ1337     0.0000 
     25 H          63.2121   22.3795   23.7779 H         1 DTQ1337     0.0000 
     26 H          62.3811   21.2556   24.8404 H         1 DTQ1337     0.0000 
     27 H          60.8993   21.1055   26.7418 H         1 DTQ1337     0.0000 
     28 H          59.8566   17.3358   28.2104 H         1 DTQ1337     0.0000 
     29 H          61.6533   16.3424   26.9254 H         1 DTQ1337     0.0000 
     30 H          63.0465   17.7337   25.5404 H         1 DTQ1337     0.0000 
     31 H          68.7315   24.5060   21.0802 H         1 DTQ1337     0.0000 
     32 H          68.7306   23.9318   22.5823 H         1 DTQ1337     0.0000 
     33 H          68.6141   22.9226   21.3356 H         1 DTQ1337     0.0000 
     34 H          64.0776   25.2988   23.9054 H         1 DTQ1337     0.0000 
     35 H          62.9782   25.6889   22.7984 H         1 DTQ1337     0.0000 
     36 H          62.8125   24.3380   23.6551 H         1 DTQ1337     0.0000 
     37 H          59.0396   19.2499   28.9845 H         1 DTQ1337     0.0000 
@<TRIPOS>BOND
     1    2    1 ar   
     2    6    1 ar   
     3    3    2 ar   
     4   23    2 1    
     5    4    3 ar   
     6    5    4 ar   
     7    7    4 ar   
     8    6    5 ar   
     9   10    5 ar   
    10   11    6 1    
    11    8    7 ar   
    12   24    7 1    
    13    9    8 ar   
    14   19    8 1    
    15   10    9 ar   
    16   21    9 1    
    17   25   10 1    
    18   12   11 1    
    19   26   11 1    
    20   13   12 ar   
    21   17   12 ar   
    22   14   13 ar   
    23   27   13 1    
    24   15   14 ar   
    25   18   14 1    
    26   16   15 ar   
    27   28   15 1    
    28   17   16 ar   
    29   29   16 1    
    30   30   17 1    
    31   37   18 1    
    32   20   19 1    
    33   31   20 1    
    34   32   20 1    
    35   33   20 1    
    36   22   21 1    
    37   34   22 1    
    38   35   22 1    
    39   36   22 1    
@<TRIPOS>SUBSTRUCTURE
     1 DTQ1337     1 GROUP   
@<TRIPOS>SET

