#    Name: 4cdw_VR2_1_INTS_M
#    Modification time : Tue Mar 25 09:13:58 2014

@<TRIPOS>MOLECULE
4cdw_VR2_1_INTS_M
   75     0     6     0     0
SMALL
NO_CHARGES


@<TRIPOS>ATOM
      1 CA         99.3615  263.4185  105.4435 C.3       2 GLC5        0.0000 
      2 CA         98.7890  261.6970  104.2490 C.3       6 GLL5        0.0000 
      3 CA         99.9340  265.1400  106.6380 C.3       4 GLP5        0.0000 
      4 CA         97.8280  261.1245  102.4115 C.3       2 GLC5        0.0000 
      5 CA         96.8670  260.5520  100.5740 C.3       4 GLP5        0.0000 
      6 CA         99.3560  260.9825  106.2145 C.3       2 GLC5        0.0000 
      7 CA         99.9230  260.2680  108.1800 C.3       4 GLP5        0.0000 
      8 CA         98.5285  263.6840  103.4925 C.3       2 GLC5        0.0000 
      9 CA         98.2680  265.6710  102.7360 C.3       4 GLP5        0.0000 
     10 CA         98.7100  260.5940  101.3125 C.3       2 GLC5        0.0000 
     11 CA        100.5530  260.6360  102.0510 C.3       6 GLL5        0.0000 
     12 CA        105.5685  262.6215  102.8135 C.3       2 GLC5        0.0000 
     13 CA        105.0990  261.7710  101.2590 C.3       6 GLL5        0.0000 
     14 CA        106.0380  263.4720  104.3680 C.3       4 GLP5        0.0000 
     15 CA        104.6465  259.8780  102.2580 C.3       2 GLC5        0.0000 
     16 CA        104.1940  257.9850  103.2570 C.3       4 GLP5        0.0000 
     17 CA        106.1150  260.6075   98.3955 C.3       2 GLC5        0.0000 
     18 CA        106.1930  261.4520  100.2390 C.3       6 GLL5        0.0000 
     19 CA        106.0370  259.7630   96.5520 C.3       4 GLP5        0.0000 
     20 CA        109.8365  260.8355  102.5265 C.3       2 GLC5        0.0000 
     21 CA        108.1710  261.6860  101.7310 C.3       6 GLL5        0.0000 
     22 CA        111.5020  259.9850  103.3220 C.3       4 GLP5        0.0000 
     23 CA        108.9540  262.7860  103.1720 C.3       2 GLC5        0.0000 
     24 CA        109.7370  263.8860  104.6130 C.3       4 GLP5        0.0000 
     25 CA        108.9835  260.1645   99.0670 C.3       2 GLC5        0.0000 
     26 CA        108.3440  262.2090   99.3040 C.3       6 GLL5        0.0000 
     27 CA        109.6230  258.1200   98.8300 C.3       4 GLP5        0.0000 
     28 CA        107.1905  260.9860   97.9280 C.3       2 GLC5        0.0000 
     29 CA        109.2405  265.0800  100.4765 C.3       2 GLC5        0.0000 
     30 CA        109.4100  263.3000   99.3990 C.3       6 GLL5        0.0000 
     31 CA        109.0710  266.8600  101.5540 C.3       4 GLP5        0.0000 
     32 CA        111.5435  263.7195   99.4045 C.3       2 GLC5        0.0000 
     33 CA        113.6770  264.1390   99.4100 C.3       4 GLP5        0.0000 
     34 N         109.5890  266.8625   98.3520 N.am      1 SEC2        0.0000 
     35 N         110.0870  265.4580   97.6200 N.am      5 SEL2        0.0000 
     36 N         109.0910  268.2670   99.0840 N.am      3 SEP2        0.0000 
     37 CA        111.3890  260.4295   97.5505 C.3       2 GLC5        0.0000 
     38 CA        110.7430  262.0630   97.5150 C.3       6 GLL5        0.0000 
     39 CA        112.0350  258.7960   97.5860 C.3       4 GLP5        0.0000 
     40 CA        112.2100  263.1010   98.4625 C.3       2 GLC5        0.0000 
     41 CA        112.5900  260.9455   96.7885 C.3       2 GLC5        0.0000 
     42 CA        111.8510  262.6480   96.6410 C.3       6 GLL5        0.0000 
     43 CA        113.3290  259.2430   96.9360 C.3       4 GLP5        0.0000 
     44 CA        112.7850  263.8150   97.4635 C.3       2 GLC5        0.0000 
     45 CA        113.7190  264.9820   98.2860 C.3       4 GLP5        0.0000 
     46 CA        111.4095  262.4245   94.7905 C.3       2 GLC5        0.0000 
     47 CA        110.9680  262.2010   92.9400 C.3       4 GLP5        0.0000 
     48 CA        102.5750  260.6570  104.0570 C.3       2 GLC5        0.0000 
     49 CA        102.8070  262.1700  102.6300 C.3       6 GLL5        0.0000 
     50 CA        102.9200  259.0740  105.1020 C.3       4 GLP5        0.0000 
     51 CA        101.7310  260.0813  103.8398 C.3       2 GLC5        0.0000 
     52 CA        100.5310  261.5410  103.1040 C.3       6 GLL5        0.0000 
     53 CA        101.9935  262.3264  100.1848 C.3       2 GLC5        0.0000 
     54 CA        101.7040  260.5040  101.2850 C.3       6 GLL5        0.0000 
     55 CA        101.7260  263.5420   98.6760 C.3       4 GLP5        0.0000 
     56 CA        103.2302  259.4348  102.3433 C.3       2 GLC5        0.0000 
     57 CA        102.8290  261.2650  101.5740 C.3       6 GLL5        0.0000 
     58 CA        103.2347  259.4742  100.6322 C.3       2 GLC5        0.0000 
     59 CA        104.2030  258.0640   99.8350 C.3       4 GLP5        0.0000 
     60 CA        100.5285  259.0481  102.6966 C.3       2 GLC5        0.0000 
     61 CA         99.9340  257.3000  103.4620 C.3       4 GLP5        0.0000 
     62 CA        105.1450  263.0377   99.8675 C.3       2 GLC5        0.0000 
     63 CA        104.6440  264.4640   98.9860 C.3       4 GLP5        0.0000 
     64 CA        104.9245  259.8378  100.2920 C.3       2 GLC5        0.0000 
     65 CA        106.2675  263.3565   99.4520 C.3       2 GLC5        0.0000 
     66 CA        107.4380  262.2890  100.5320 C.3       6 GLL5        0.0000 
     67 CA        106.9213  262.7297  102.7497 C.3       2 GLC5        0.0000 
     68 CA        115.1295  264.5068   94.4783 C.3       2 GLC5        0.0000 
     69 CA        112.8000  264.3660   94.5950 C.3       6 GLL5        0.0000 
     70 CA        117.1560  264.2170   94.8150 C.3       4 GLP5        0.0000 
     71 CA        111.9096  263.5555   93.6462 C.3       2 GLC5        0.0000 
     72 CA        113.4060  265.2270   93.6880 C.3       6 GLL5        0.0000 
     73 CA        112.3885  267.9290   95.9203 C.3       2 GLC5        0.0000 
     74 CA        111.3980  266.1530   95.3890 C.3       6 GLL5        0.0000 
     75 CA        113.0870  269.2710   96.9090 C.3       4 GLP5        0.0000 
@<TRIPOS>BOND
@<TRIPOS>SUBSTRUCTURE
     1 SEC2       34 GROUP        1 X    SEC  0     ROOT SEC X 2
     2 GLC5        1 GROUP        1 X    GLC  0     **** GLC X 6
     3 SEP2       36 GROUP        1 Y    SEP  0     ROOT SEP Y 9
     4 GLP5        3 GROUP        1 Y    GLP  0     **** GLP Y 13
     5 SEL2       35 GROUP        1 Z    SEL  0     ROOT SEL Z 16
     6 GLL5        2 GROUP        1 Z    GLL  0     **** GLL Z 20
@<TRIPOS>SET

