#    Name: 4cdw_VR2_1_ligand
#    Modification time : Tue Mar 25 09:13:58 2014

@<TRIPOS>MOLECULE
4cdw_VR2_1_ligand
   50    52     1     0     0
SMALL
NO_CHARGES


@<TRIPOS>ATOM
      1 CAJ       102.8070  262.1700  102.6300 C.ar      1 VR21298     0.0000 
      2 CAH       101.6530  262.3100  103.3940 C.ar      1 VR21298     0.0000 
      3 CAU       100.5310  261.5410  103.1040 C.ar      1 VR21298     0.0000 
      4 IAC        98.7890  261.6970  104.2490 I         1 VR21298     0.0000 
      5 CAI       100.5530  260.6360  102.0510 C.ar      1 VR21298     0.0000 
      6 CAK       101.7040  260.5040  101.2850 C.ar      1 VR21298     0.0000 
      7 CAV       102.8290  261.2650  101.5740 C.ar      1 VR21298     0.0000 
      8 OAS       103.9520  261.0290  100.8440 O.3       1 VR21298     0.0000 
      9 CAL       105.0990  261.7710  101.2590 C.3       1 VR21298     0.0000 
     10 CAM       106.1930  261.4520  100.2390 C.3       1 VR21298     0.0000 
     11 CAX       107.4380  262.2890  100.5320 C.3       1 VR21298     0.0000 
     12 CAA       108.1710  261.6860  101.7310 C.3       1 VR21298     0.0000 
     13 CAN       108.3440  262.2090   99.3040 C.3       1 VR21298     0.0000 
     14 CAO       109.4100  263.3000   99.3990 C.3       1 VR21298     0.0000 
     15 NAY       110.2470  263.2850   98.1820 N.am      1 VR21298     0.0000 
     16 CAT       110.5300  264.3300   97.4080 C.2       1 VR21298     0.0000 
     17 OAB       110.0870  265.4580   97.6200 O.2       1 VR21298     0.0000 
     18 CAP       110.7430  262.0630   97.5150 C.3       1 VR21298     0.0000 
     19 CAQ       111.8510  262.6480   96.6410 C.3       1 VR21298     0.0000 
     20 NAZ       111.3470  264.0190   96.4030 N.am      1 VR21298     0.0000 
     21 CAW       111.7930  264.8200   95.4390 C.ar      1 VR21298     0.0000 
     22 CAF       112.8000  264.3660   94.5950 C.ar      1 VR21298     0.0000 
     23 CAD       113.4060  265.2270   93.6880 C.ar      1 VR21298     0.0000 
     24 NAR       112.9900  266.5610   93.6180 N.ar      1 VR21298     0.0000 
     25 CAE       111.9820  267.0210   94.4740 C.ar      1 VR21298     0.0000 
     26 CAG       111.3980  266.1530   95.3890 C.ar      1 VR21298     0.0000 
     27 H         103.6383  262.7319  102.8446 H         1 VR21298     0.0000 
     28 H         101.6296  262.9811  104.1720 H         1 VR21298     0.0000 
     29 H          99.7248  260.0687  101.8402 H         1 VR21298     0.0000 
     30 H         101.7231  259.8380  100.4983 H         1 VR21298     0.0000 
     31 H         105.4512  261.4672  102.2339 H         1 VR21298     0.0000 
     32 H         104.9246  262.8369  101.2407 H         1 VR21298     0.0000 
     33 H         105.8322  261.6811   99.2421 H         1 VR21298     0.0000 
     34 H         106.4451  260.3989  100.3006 H         1 VR21298     0.0000 
     35 H         107.1711  263.2820  100.7224 H         1 VR21298     0.0000 
     36 H         107.7536  262.3600   98.4110 H         1 VR21298     0.0000 
     37 H         108.8228  261.2402   99.2728 H         1 VR21298     0.0000 
     38 H         110.0175  263.1150  100.2846 H         1 VR21298     0.0000 
     39 H         108.9118  264.2628   99.5100 H         1 VR21298     0.0000 
     40 H         110.0022  261.6370   96.8972 H         1 VR21298     0.0000 
     41 H         111.1668  261.3930   98.2102 H         1 VR21298     0.0000 
     42 H         111.9079  262.1000   95.7385 H         1 VR21298     0.0000 
     43 H         112.7550  262.6633   97.1894 H         1 VR21298     0.0000 
     44 H         113.1007  263.3788   94.6427 H         1 VR21298     0.0000 
     45 H         114.1528  264.8913   93.0728 H         1 VR21298     0.0000 
     46 H         111.6775  268.0002   94.4222 H         1 VR21298     0.0000 
     47 H         110.6710  266.4969   96.0318 H         1 VR21298     0.0000 
     48 H         108.4547  260.7430  101.5570 H         1 VR21298     0.0000 
     49 H         108.9959  262.2027  101.9602 H         1 VR21298     0.0000 
     50 H         107.5965  261.6730  102.5494 H         1 VR21298     0.0000 
@<TRIPOS>BOND
     1    2    1 ar   
     2    7    1 ar   
     3   27    1 1    
     4    3    2 ar   
     5   28    2 1    
     6    4    3 1    
     7    5    3 ar   
     8    6    5 ar   
     9   29    5 1    
    10    7    6 ar   
    11   30    6 1    
    12    8    7 1    
    13    9    8 1    
    14   10    9 1    
    15   31    9 1    
    16   32    9 1    
    17   11   10 1    
    18   33   10 1    
    19   34   10 1    
    20   12   11 1    
    21   13   11 1    
    22   35   11 1    
    23   48   12 1    
    24   49   12 1    
    25   50   12 1    
    26   14   13 1    
    27   36   13 1    
    28   37   13 1    
    29   15   14 1    
    30   38   14 1    
    31   39   14 1    
    32   16   15 am   
    33   18   15 1    
    34   17   16 2    
    35   20   16 am   
    36   19   18 1    
    37   40   18 1    
    38   41   18 1    
    39   20   19 1    
    40   42   19 1    
    41   43   19 1    
    42   21   20 1    
    43   22   21 ar   
    44   26   21 ar   
    45   23   22 ar   
    46   44   22 1    
    47   24   23 ar   
    48   45   23 1    
    49   25   24 ar   
    50   26   25 ar   
    51   46   25 1    
    52   47   26 1    
@<TRIPOS>SUBSTRUCTURE
     1 VR21298     1 GROUP   
@<TRIPOS>SET

