#    Name: 1xh5_R68_1_INTS_M
#    Modification time : Tue Mar 25 09:50:59 2014

@<TRIPOS>MOLECULE
1xh5_R68_1_INTS_M
  108     0    12     0     0
SMALL
NO_CHARGES


@<TRIPOS>ATOM
      1 CA          4.5565   10.1540    0.6635 C.3       4 GLC5        0.0000 
      2 CA          4.7130    9.5200    2.5260 C.3      12 GLL5        0.0000 
      3 CA          4.4000   10.7880   -1.1990 C.3       8 GLP5        0.0000 
      4 CA          3.0755   10.5410    1.1885 C.3       4 GLC5        0.0000 
      5 CA          3.4350    9.6350    3.0840 C.3      12 GLL5        0.0000 
      6 CA          2.7160   11.4470   -0.7070 C.3       8 GLP5        0.0000 
      7 CA          1.5170   10.3270    3.6990 C.3       4 GLC5        0.0000 
      8 CA         -0.4010   11.0190    4.3140 C.3       8 GLP5        0.0000 
      9 CA          2.1570    8.1910    3.1595 C.3       4 GLC5        0.0000 
     10 CA          0.8790    6.7470    3.2350 C.3       8 GLP5        0.0000 
     11 N           1.8490    9.2615    4.7735 N.am      2 SEC2        0.0000 
     12 N           3.2650    9.6370    4.4110 N.am     10 SEL2        0.0000 
     13 N           0.4330    8.8860    5.1360 N.am      6 SEP2        0.0000 
     14 CA          3.6935   11.2985    4.0365 C.3       4 GLC5        0.0000 
     15 CA          4.3100    9.5980    5.2250 C.3      12 GLL5        0.0000 
     16 CA          3.0770   12.9990    2.8480 C.3       8 GLP5        0.0000 
     17 CA          2.7445    8.0620    4.9730 C.3       4 GLC5        0.0000 
     18 CA          1.1790    6.5260    4.7210 C.3       8 GLP5        0.0000 
     19 O           8.4795    9.1705    5.0405 O.2       1 ALC1        0.0000 
     20 O           8.3090    9.1380    3.5610 O.2       9 ALL1        0.0000 
     21 O           8.6500    9.2030    6.5200 O.2       5 ALP1        0.0000 
     22 CA          9.5980    6.4065    5.3505 C.3       4 GLC5        0.0000 
     23 CA          9.9700    7.4310    3.4550 C.3      12 GLL5        0.0000 
     24 CA          9.2260    5.3820    7.2460 C.3       8 GLP5        0.0000 
     25 CA          8.3540    6.4365    3.8980 C.3       4 GLC5        0.0000 
     26 CA          6.7380    5.4420    4.3410 C.3       8 GLP5        0.0000 
     27 OD1        11.4220    7.6245    1.7375 O.co2     3 ASC3        0.0000 
     28 OD1        11.2460    6.9640    2.9110 O.co2    11 ASL3        0.0000 
     29 OD1        11.5980    8.2850    0.5640 O.co2     7 ASP3        0.0000 
     30 CA         13.1095    5.2755    4.3140 C.3       4 GLC5        0.0000 
     31 CA         12.4100    7.1760    3.8330 C.3      12 GLL5        0.0000 
     32 CA         13.8090    3.3750    4.7950 C.3       8 GLP5        0.0000 
     33 CA          9.8000   11.6225    2.6110 C.3       4 GLC5        0.0000 
     34 CA         10.6490    9.9820    3.4450 C.3      12 GLL5        0.0000 
     35 CA          8.9510   13.2630    1.7770 C.3       8 GLP5        0.0000 
     36 O          11.4220    9.4515    1.4280 O.2       1 ALC1        0.0000 
     37 O          11.2460   10.6180    2.2920 O.2       9 ALL1        0.0000 
     38 O          11.5980    8.2850    0.5640 O.2       5 ALP1        0.0000 
     39 N          10.8895   14.1005    3.2840 N.am      2 SEC2        0.0000 
     40 N          11.6770   12.5820    3.3050 N.am     10 SEL2        0.0000 
     41 N          10.1020   15.6190    3.2630 N.am      6 SEP2        0.0000 
     42 CA         13.8890   14.0320    2.9570 C.3       4 GLC5        0.0000 
     43 CA         13.1010   13.6530    1.1370 C.3      12 GLL5        0.0000 
     44 CA         14.6770   14.4110    4.7770 C.3       8 GLP5        0.0000 
     45 CA         14.4015   16.2335    0.4040 C.3       4 GLC5        0.0000 
     46 CA         14.0410   14.0660    0.2030 C.3      12 GLL5        0.0000 
     47 CA         14.7620   18.4010    0.6050 C.3       8 GLP5        0.0000 
     48 N          17.2425   15.6155   -1.2295 N.am      2 SEC2        0.0000 
     49 N          16.2950   14.5900   -1.3850 N.am     10 SEL2        0.0000 
     50 N          18.1900   16.6410   -1.0740 N.am      6 SEP2        0.0000 
     51 CA         17.6640   12.9765    0.4005 C.3       4 GLC5        0.0000 
     52 CA         18.1180   12.2450   -1.2520 C.3      12 GLL5        0.0000 
     53 CA         17.2100   13.7080    2.0530 C.3       8 GLP5        0.0000 
     54 CA         19.0275   14.0125   -0.4135 C.3       4 GLC5        0.0000 
     55 CA         19.9370   15.7800    0.4250 C.3       8 GLP5        0.0000 
     56 CA         19.1450    8.8265   -4.5540 C.3       4 GLC5        0.0000 
     57 CA         19.3580   10.3270   -2.9820 C.3      12 GLL5        0.0000 
     58 CA         18.9320    7.3260   -6.1260 C.3       8 GLP5        0.0000 
     59 CA         20.9805   13.9970   -1.5270 C.3       4 GLC5        0.0000 
     60 CA         20.6750   12.5880   -2.8390 C.3      12 GLL5        0.0000 
     61 CA         21.2860   15.4060   -0.2150 C.3       8 GLP5        0.0000 
     62 CA         20.3810   12.0150   -6.7310 C.3       4 GLC5        0.0000 
     63 CA         20.4400   11.3800   -5.0260 C.3      12 GLL5        0.0000 
     64 CA         20.3220   12.6500   -8.4360 C.3       8 GLP5        0.0000 
     65 CA         19.6860    9.3530   -5.5760 C.3       4 GLC5        0.0000 
     66 CA         23.5200    9.9075   -4.1140 C.3       4 GLC5        0.0000 
     67 CA         21.8990   10.4480   -3.2650 C.3      12 GLL5        0.0000 
     68 CA         25.1410    9.3670   -4.9630 C.3       8 GLP5        0.0000 
     69 CA         23.9175    9.8865   -2.7465 C.3       4 GLC5        0.0000 
     70 CA         22.0320    9.9580   -1.7980 C.3      12 GLL5        0.0000 
     71 CA         25.8030    9.8150   -3.6950 C.3       8 GLP5        0.0000 
     72 CA         21.2645    8.1505    0.5300 C.3       4 GLC5        0.0000 
     73 CA         20.7710    9.1690   -1.3510 C.3      12 GLL5        0.0000 
     74 CA         21.7580    7.1320    2.4110 C.3       8 GLP5        0.0000 
     75 CA         20.1970    7.2295   -1.8330 C.3       4 GLC5        0.0000 
     76 CA         19.6230    5.2900   -2.3150 C.3       8 GLP5        0.0000 
     77 CA          6.3470   11.5185    3.6690 C.3       4 GLC5        0.0000 
     78 CA          5.8510    9.4950    3.3630 C.3      12 GLL5        0.0000 
     79 CA          6.9530   13.5110    3.2820 C.3       8 GLP5        0.0000 
     80 CA          5.2880    7.6457    3.8438 C.3       4 GLC5        0.0000 
     81 CA          5.2940    5.7840    4.7430 C.3       8 GLP5        0.0000 
     82 CA          5.4535    7.8827    1.8458 C.3       4 GLC5        0.0000 
     83 CA          5.6250    6.2580    0.7470 C.3       8 GLP5        0.0000 
     84 CA          3.7178   11.2851    2.9311 C.3       4 GLC5        0.0000 
     85 CA          4.8708   11.3023    6.0000 C.3       4 GLC5        0.0000 
     86 CA          4.7710   13.0270    7.0130 C.3       8 GLP5        0.0000 
     87 CA          5.1087    7.9603    5.5865 C.3       4 GLC5        0.0000 
     88 CA          5.2470    6.3430    6.1860 C.3       8 GLP5        0.0000 
     89 CA         11.4637   11.3320    5.2835 C.3       4 GLC5        0.0000 
     90 CA         11.7290   12.8860    6.6170 C.3       8 GLP5        0.0000 
     91 CA         10.9300   13.1193    1.4800 C.3       4 GLC5        0.0000 
     92 CA         12.7170   12.2980    1.2290 C.3      12 GLL5        0.0000 
     93 CA         12.0070   12.8202   -0.6545 C.3       4 GLC5        0.0000 
     94 CA         11.1050   12.6650   -2.4920 C.3       8 GLP5        0.0000 
     95 CA         15.3905   13.7838    1.3615 C.3       4 GLC5        0.0000 
     96 CA         12.8375   15.3712    1.7505 C.3       4 GLC5        0.0000 
     97 CA         12.1040   16.8830    2.8310 C.3       8 GLP5        0.0000 
     98 CA         12.7193   13.1312   -1.3598 C.3       4 GLC5        0.0000 
     99 CA         13.6692   14.8948   -1.6907 C.3       4 GLC5        0.0000 
    100 CA         14.6260   13.1290   -0.6580 C.3      12 GLL5        0.0000 
    101 CA         13.0050   16.1920   -3.1540 C.3       8 GLP5        0.0000 
    102 CA         12.4625   12.1167   -1.2800 C.3       4 GLC5        0.0000 
    103 CA         14.2970   11.7750   -0.5250 C.3      12 GLL5        0.0000 
    104 CA         15.8358   13.0800    0.7308 C.3       4 GLC5        0.0000 
    105 CA         19.9348   13.2016   -4.8547 C.3       4 GLC5        0.0000 
    106 CA         19.3410   14.7680   -5.6060 C.3       8 GLP5        0.0000 
    107 CA         22.2719   12.7563   -4.0221 C.3       4 GLC5        0.0000 
    108 CA         23.3300   14.4710   -4.3600 C.3       8 GLP5        0.0000 
@<TRIPOS>BOND
@<TRIPOS>SUBSTRUCTURE
     1 ALC1       19 GROUP        1 X    ALC  0     ROOT ALC X 1
     2 SEC2       11 GROUP        1 X    SEC  0     **** SEC X 2
     3 ASC3       27 GROUP        1 X    ASC  0     **** ASC X 3
     4 GLC5        1 GROUP        1 X    GLC  0     **** GLC X 6
     5 ALP1       21 GROUP        1 Y    ALP  0     ROOT ALP Y 8
     6 SEP2       13 GROUP        1 Y    SEP  0     **** SEP Y 9
     7 ASP3       29 GROUP        1 Y    ASP  0     **** ASP Y 10
     8 GLP5        3 GROUP        1 Y    GLP  0     **** GLP Y 13
     9 ALL1       20 GROUP        1 Z    ALL  0     ROOT ALL Z 15
    10 SEL2       12 GROUP        1 Z    SEL  0     **** SEL Z 16
    11 ASL3       28 GROUP        1 Z    ASL  0     **** ASL Z 17
    12 GLL5        2 GROUP        1 Z    GLL  0     **** GLL Z 20
@<TRIPOS>SET

