#    Name: 1xh5_R68_1_ligand
#    Modification time : Tue Mar 25 09:50:59 2014

@<TRIPOS>MOLECULE
1xh5_R68_1_ligand
   79    83     1     0     0
SMALL
NO_CHARGES


@<TRIPOS>ATOM
      1 O22         7.3900    9.4140    1.5240 O.2       1 R681001     0.0000 
      2 C21         7.2020    9.3580    2.7540 C.2       1 R681001     0.0000 
      3 C14         5.8510    9.4950    3.3630 C.ar      1 R681001     0.0000 
      4 C13         4.7130    9.5200    2.5260 C.ar      1 R681001     0.0000 
      5 C12         3.4350    9.6350    3.0840 C.ar      1 R681001     0.0000 
      6 N11         3.2650    9.6370    4.4110 N.ar      1 R681001     0.0000 
      7 C16         4.3100    9.5980    5.2250 C.ar      1 R681001     0.0000 
      8 C15         5.6310    9.5570    4.7490 C.ar      1 R681001     0.0000 
      9 N23         8.3090    9.1380    3.5610 N.am      1 R681001     0.0000 
     10 C31         9.6570    8.8670    3.0180 C.3       1 R681001     0.0000 
     11 C32         9.9700    7.4310    3.4550 C.3       1 R681001     0.0000 
     12 N33        11.2460    6.9640    2.9110 N.4       1 R681001     0.0000 
     13 C34        12.4100    7.1760    3.8330 C.3       1 R681001     0.0000 
     14 C35        12.8210    8.6380    3.8300 C.3       1 R681001     0.0000 
     15 C36        11.7480    9.5740    4.4550 C.3       1 R681001     0.0000 
     16 C37        10.6490    9.9820    3.4450 C.3       1 R681001     0.0000 
     17 N41        11.2460   10.6180    2.2920 N.am      1 R681001     0.0000 
     18 C42        11.8060   11.8770    2.2920 C.2       1 R681001     0.0000 
     19 O43        11.6770   12.5820    3.3050 O.2       1 R681001     0.0000 
     20 C51        12.7170   12.2980    1.2290 C.ar      1 R681001     0.0000 
     21 C52        13.1010   13.6530    1.1370 C.ar      1 R681001     0.0000 
     22 C53        14.0410   14.0660    0.2030 C.ar      1 R681001     0.0000 
     23 C56        13.3430   11.3620    0.3890 C.ar      1 R681001     0.0000 
     24 C55        14.2970   11.7750   -0.5250 C.ar      1 R681001     0.0000 
     25 C54        14.6260   13.1290   -0.6580 C.ar      1 R681001     0.0000 
     26 C61        15.7030   13.5010   -1.5770 C.2       1 R681001     0.0000 
     27 O62        16.2950   14.5900   -1.3850 O.2       1 R681001     0.0000 
     28 C71        16.2360   12.5360   -2.5400 C.ar      1 R681001     0.0000 
     29 C72        15.5330   12.1720   -3.6690 C.ar      1 R681001     0.0000 
     30 O82        14.3630   12.7960   -3.8180 O.3       1 R681001     0.0000 
     31 C73        16.0100   11.2560   -4.5970 C.ar      1 R681001     0.0000 
     32 C74        17.2520   10.6560   -4.3780 C.ar      1 R681001     0.0000 
     33 C75        17.9960   10.9600   -3.2200 C.ar      1 R681001     0.0000 
     34 C76        17.4550   11.9040   -2.3500 C.ar      1 R681001     0.0000 
     35 F89        18.1180   12.2450   -1.2520 F         1 R681001     0.0000 
     36 C91        19.3580   10.3270   -2.9820 C.3       1 R681001     0.0000 
     37 C92        20.5590   11.1930   -3.5230 C.3       1 R681001     0.0000 
     38 C97        20.6750   12.5880   -2.8390 C.3       1 R681001     0.0000 
     39 C98        20.4400   11.3800   -5.0260 C.3       1 R681001     0.0000 
     40 C93        21.8990   10.4480   -3.2650 C.3       1 R681001     0.0000 
     41 C94        22.0320    9.9580   -1.7980 C.3       1 R681001     0.0000 
     42 C95        20.7710    9.1690   -1.3510 C.3       1 R681001     0.0000 
     43 N96        19.5140    9.9650   -1.5440 N.4       1 R681001     0.0000 
     44 H           4.8299    9.4536    1.5113 H         1 R681001     0.0000 
     45 H           2.6241    9.7186    2.4359 H         1 R681001     0.0000 
     46 H           4.1813    9.5965    6.2704 H         1 R681001     0.0000 
     47 H           6.4137    9.5719    5.3960 H         1 R681001     0.0000 
     48 H           8.2261    9.1567    4.5934 H         1 R681001     0.0000 
     49 H           9.5754    8.8708    1.9252 H         1 R681001     0.0000 
     50 H           9.1442    6.7865    3.1206 H         1 R681001     0.0000 
     51 H           9.9819    7.4054    4.5543 H         1 R681001     0.0000 
     52 H          13.2544    6.5674    3.5091 H         1 R681001     0.0000 
     53 H          12.1368    6.8844    4.8472 H         1 R681001     0.0000 
     54 H          13.0060    8.9674    2.8005 H         1 R681001     0.0000 
     55 H          13.7536    8.7605    4.3938 H         1 R681001     0.0000 
     56 H          12.2416   10.4741    4.8271 H         1 R681001     0.0000 
     57 H          11.2832    9.0603    5.2989 H         1 R681001     0.0000 
     58 H          10.0257   10.7634    3.9711 H         1 R681001     0.0000 
     59 H          11.2392   10.0555    1.3987 H         1 R681001     0.0000 
     60 H          12.6711   14.3382    1.7775 H         1 R681001     0.0000 
     61 H          14.3104   15.0538    0.1390 H         1 R681001     0.0000 
     62 H          13.0853   10.3689    0.4604 H         1 R681001     0.0000 
     63 H          14.7769   11.0792   -1.1207 H         1 R681001     0.0000 
     64 H          15.4646   11.0224   -5.4271 H         1 R681001     0.0000 
     65 H          17.6302    9.9890   -5.0608 H         1 R681001     0.0000 
     66 H          19.3791    9.3762   -3.5697 H         1 R681001     0.0000 
     67 H          22.7258   11.1222   -3.4893 H         1 R681001     0.0000 
     68 H          21.9580    9.5879   -3.9322 H         1 R681001     0.0000 
     69 H          22.1599   10.8174   -1.1479 H         1 R681001     0.0000 
     70 H          22.9000    9.3117   -1.7180 H         1 R681001     0.0000 
     71 H          20.8921    8.9037   -0.2966 H         1 R681001     0.0000 
     72 H          20.7252    8.2435   -1.9326 H         1 R681001     0.0000 
     73 H          20.8135   12.5073   -1.8519 H         1 R681001     0.0000 
     74 H          21.4433   13.1162   -3.2006 H         1 R681001     0.0000 
     75 H          19.8511   13.1382   -2.9754 H         1 R681001     0.0000 
     76 H          21.1898   11.9311   -5.3922 H         1 R681001     0.0000 
     77 H          20.4546   10.5058   -5.5113 H         1 R681001     0.0000 
     78 H          19.5884   11.8403   -5.2767 H         1 R681001     0.0000 
     79 H          13.9733   12.4179   -4.6577 H         1 R681001     0.0000 
@<TRIPOS>BOND
     1    2    1 2    
     2    3    2 1    
     3    9    2 am   
     4    4    3 ar   
     5    8    3 ar   
     6    5    4 ar   
     7   44    4 1    
     8    6    5 ar   
     9   45    5 1    
    10    7    6 ar   
    11    8    7 ar   
    12   46    7 1    
    13   47    8 1    
    14   10    9 1    
    15   48    9 1    
    16   11   10 1    
    17   16   10 1    
    18   49   10 1    
    19   12   11 1    
    20   50   11 1    
    21   51   11 1    
    22   13   12 1    
    23   14   13 1    
    24   52   13 1    
    25   53   13 1    
    26   15   14 1    
    27   54   14 1    
    28   55   14 1    
    29   16   15 1    
    30   56   15 1    
    31   57   15 1    
    32   17   16 1    
    33   58   16 1    
    34   18   17 am   
    35   59   17 1    
    36   19   18 2    
    37   20   18 1    
    38   21   20 ar   
    39   23   20 ar   
    40   22   21 ar   
    41   60   21 1    
    42   25   22 ar   
    43   61   22 1    
    44   24   23 ar   
    45   62   23 1    
    46   25   24 ar   
    47   63   24 1    
    48   26   25 1    
    49   27   26 2    
    50   28   26 1    
    51   29   28 ar   
    52   34   28 ar   
    53   30   29 1    
    54   31   29 ar   
    55   79   30 1    
    56   32   31 ar   
    57   64   31 1    
    58   33   32 ar   
    59   65   32 1    
    60   34   33 ar   
    61   36   33 1    
    62   35   34 1    
    63   37   36 1    
    64   43   36 1    
    65   66   36 1    
    66   38   37 1    
    67   39   37 1    
    68   40   37 1    
    69   73   38 1    
    70   74   38 1    
    71   75   38 1    
    72   76   39 1    
    73   77   39 1    
    74   78   39 1    
    75   41   40 1    
    76   67   40 1    
    77   68   40 1    
    78   42   41 1    
    79   69   41 1    
    80   70   41 1    
    81   43   42 1    
    82   71   42 1    
    83   72   42 1    
@<TRIPOS>SUBSTRUCTURE
     1 R681001     1 GROUP   
@<TRIPOS>SET

