#    Name: 1B0H_1_CAVITY_N1_6.mol2
#    Modification time : Mon Mar 10 14:02:57 2014

@<TRIPOS>MOLECULE
1B0H_1_CAVITY_N1_6.mol2
   72     0     6     0     0
SMALL
NO_CHARGES


@<TRIPOS>ATOM
      1 O           5.6408   23.3172   20.3377 O.2       2 ALA2        0.0000 
      2 CZ         -2.1629   22.7346   15.6460 C.ar      4 PHE5        0.0000 
      3 O          -2.9609   24.5123   12.9160 O.2       2 ALA2        0.0000 
      4 O          -3.2350   23.4897   13.9786 O.2       2 ALA2        0.0000 
      5 O          -3.5092   22.4670   15.0411 O.2       2 ALA2        0.0000 
      6 N          -3.7833   21.4444   16.1037 N.2       2 ALA2        0.0000 
      7 N          -4.3072   24.2448   12.3111 N.2       2 ALA2        0.0000 
      8 O          -4.5813   23.2222   13.3737 O.2       2 ALA2        0.0000 
      9 O          -4.8555   22.1995   14.4362 O.2       2 ALA2        0.0000 
     10 NZ          7.8632   23.5431   19.0111 N.2       3 LYS4        0.0000 
     11 N           7.5891   22.5205   20.0736 N.2       2 ALA2        0.0000 
     12 N           7.3149   21.4978   21.1362 N.2       2 ALA2        0.0000 
     13 NZ          6.5169   23.2756   18.4062 N.2       3 LYS4        0.0000 
     14 OG          6.2427   22.2529   19.4687 O.2       1 SER1        0.0000 
     15 O           5.9686   21.2303   20.5313 O.2       2 ALA2        0.0000 
     16 CA          5.1706   23.0080   17.8013 C.3       5 GLY6        0.0000 
     17 O           4.8964   21.9854   18.8639 O.2       2 ALA2        0.0000 
     18 O           4.6223   20.9627   19.9264 O.2       2 ALA2        0.0000 
     19 CA          3.8243   22.7405   17.1965 C.3       5 GLY6        0.0000 
     20 O           3.5501   21.7178   18.2590 O.2       2 ALA2        0.0000 
     21 N           2.2038   21.4503   17.6542 N.2       2 ALA2        0.0000 
     22 N           0.8575   21.1828   17.0493 N.2       2 ALA2        0.0000 
     23 CZ         -0.4888   20.9152   16.4444 C.ar      4 PHE5        0.0000 
     24 O          -0.7630   19.8926   17.5070 O.2       2 ALA2        0.0000 
     25 CZ         -1.2868   22.6930   13.7144 C.ar      4 PHE5        0.0000 
     26 CZ         -1.5610   21.6703   14.7770 C.ar      4 PHE5        0.0000 
     27 O          -1.8351   20.6477   15.8396 O.2       2 ALA2        0.0000 
     28 O          -2.1093   19.6250   16.9021 O.2       2 ALA2        0.0000 
     29 CA         -2.3590   23.4481   12.0470 C.3       5 GLY6        0.0000 
     30 OG         -2.6331   22.4254   13.1096 O.2       1 SER1        0.0000 
     31 OG         -2.9073   21.4028   14.1721 O.2       1 SER1        0.0000 
     32 N          -3.1815   20.3801   15.2347 N.2       2 ALA2        0.0000 
     33 CZ         -3.9795   22.1579   12.5047 C.ar      4 PHE5        0.0000 
     34 O          -4.2536   21.1353   13.5673 O.2       2 ALA2        0.0000 
     35 NZ          8.4651   22.4789   18.1421 N.2       3 LYS4        0.0000 
     36 CZ          8.1909   21.4562   19.2046 C.ar      4 PHE5        0.0000 
     37 CZ          7.1188   22.2113   17.5372 C.ar      4 PHE5        0.0000 
     38 CZ          6.8446   21.1887   18.5998 C.ar      4 PHE5        0.0000 
     39 N           6.0466   22.9664   15.8698 N.2       2 ALA2        0.0000 
     40 N           5.7725   21.9438   16.9324 N.2       2 ALA2        0.0000 
     41 CZ          5.4983   20.9211   17.9949 C.ar      4 PHE5        0.0000 
     42 N           4.4262   21.6763   16.3275 N.2       2 ALA2        0.0000 
     43 N           4.1520   20.6536   17.3900 N.2       2 ALA2        0.0000 
     44 CZ          3.0799   21.4087   15.7226 C.ar      4 PHE5        0.0000 
     45 N           2.8057   20.3861   16.7852 N.2       2 ALA2        0.0000 
     46 CZ          1.7335   21.1412   15.1178 C.ar      4 PHE5        0.0000 
     47 N           1.4594   20.1185   16.1803 N.2       2 ALA2        0.0000 
     48 CZ          0.3872   20.8736   14.5129 C.ar      4 PHE5        0.0000 
     49 N           0.1131   19.8510   15.5754 N.2       2 ALA2        0.0000 
     50 N          -0.1611   18.8283   16.6380 N.2       2 ALA2        0.0000 
     51 OG         -0.6849   21.6287   12.8455 O.2       1 SER1        0.0000 
     52 OG         -0.9591   20.6061   13.9080 O.2       1 SER1        0.0000 
     53 DU         -1.2332   19.5834   14.9706 H         6 CUB7        0.0000 
     54 OG         -1.5074   18.5608   16.0331 O.2       1 SER1        0.0000 
     55 OG         -2.5796   19.3159   14.3657 O.2       1 SER1        0.0000 
     56 OG         -2.8537   18.2933   15.4283 O.2       1 SER1        0.0000 
     57 CA          3.6817   20.3445   14.8537 C.3       5 GLY6        0.0000 
     58 N           3.4076   19.3218   15.9162 N.2       2 ALA2        0.0000 
     59 O           2.3354   20.0769   14.2488 O.2       2 ALA2        0.0000 
     60 N           2.0613   19.0543   15.3113 N.2       2 ALA2        0.0000 
     61 CA          0.9891   19.8094   13.6439 C.3       5 GLY6        0.0000 
     62 CA          0.7150   18.7867   14.7065 C.3       5 GLY6        0.0000 
     63 CA          0.4408   17.7641   15.7690 C.3       5 GLY6        0.0000 
     64 CA         -0.6314   18.5192   14.1016 C.3       5 GLY6        0.0000 
     65 CA         -0.9055   17.4966   15.1642 C.3       5 GLY6        0.0000 
     66 OG         -1.9777   18.2517   13.4967 O.2       1 SER1        0.0000 
     67 CZ         -2.2518   17.2290   14.5593 C.ar      4 PHE5        0.0000 
     68 OG         -3.3240   17.9841   12.8919 O.2       1 SER1        0.0000 
     69 CZ         -3.5981   16.9615   13.9544 C.ar      4 PHE5        0.0000 
     70 CA          2.6632   17.9900   14.4424 C.3       5 GLY6        0.0000 
     71 OG         -1.3758   17.1874   12.6278 O.2       1 SER1        0.0000 
     72 OG         -1.6499   16.1648   13.6903 O.2       1 SER1        0.0000 
@<TRIPOS>BOND
@<TRIPOS>SUBSTRUCTURE
     1 SER1       14 GROUP   
     2 ALA2        1 GROUP   
     3 LYS4       10 GROUP   
     4 PHE5        2 GROUP   
     5 GLY6       16 GROUP   
     6 CUB7       53 GROUP   
@<TRIPOS>SET

