#    Name: 1b0h_LYS_LYS_ALN_1_INTS_M
#    Modification time : Mon Mar 24 19:11:12 2014

@<TRIPOS>MOLECULE
1b0h_LYS_LYS_ALN_1_INTS_M
  102     0    12     0     0
SMALL
NO_CHARGES


@<TRIPOS>ATOM
      1 OD1         7.6420   16.0250   14.3375 O.co2     3 ASC3        0.0000 
      2 OD1         6.9090   16.7300   15.2530 O.co2    11 ASL3        0.0000 
      3 OD1         8.3750   15.3200   13.4220 O.co2     7 ASP3        0.0000 
      4 OD1         8.4500   16.0770   15.0770 O.co2     3 ASC3        0.0000 
      5 OD1         9.9910   15.4240   14.9010 O.co2     7 ASP3        0.0000 
      6 O           6.2350   15.5305   15.4585 O.2       1 ALC1        0.0000 
      7 O           6.9090   16.7300   15.2530 O.2       9 ALL1        0.0000 
      8 O           5.5610   14.3310   15.6640 O.2       5 ALP1        0.0000 
      9 O           7.6420   16.0250   14.3375 O.2       1 ALC1        0.0000 
     10 O           8.3750   15.3200   13.4220 O.2       5 ALP1        0.0000 
     11 O           8.4500   16.0770   15.0770 O.2       1 ALC1        0.0000 
     12 O           9.9910   15.4240   14.9010 O.2       5 ALP1        0.0000 
     13 CA          8.5620   18.3805   14.6275 C.3       4 GLC5        0.0000 
     14 CA          6.4360   18.0200   14.6830 C.3      12 GLL5        0.0000 
     15 CA         10.6880   18.7410   14.5720 C.3       8 GLP5        0.0000 
     16 CA          7.0000   18.3540   16.4185 C.3       4 GLC5        0.0000 
     17 CA          7.5640   18.6880   18.1540 C.3       8 GLP5        0.0000 
     18 N           3.8755   16.3850   16.4240 N.am      2 SEC2        0.0000 
     19 N           4.4670   17.5800   15.8650 N.am     10 SEL2        0.0000 
     20 N           3.2840   15.1900   16.9830 N.am      6 SEP2        0.0000 
     21 CA          5.5030   19.8880   12.7600 C.3       4 GLC5        0.0000 
     22 CA          6.2720   17.9240   13.1610 C.3      12 GLL5        0.0000 
     23 CA          4.7340   21.8520   12.3590 C.3       8 GLP5        0.0000 
     24 CA          4.0090   15.6060   13.6960 C.3       4 GLC5        0.0000 
     25 CA          5.3730   16.7960   12.6860 C.3      12 GLL5        0.0000 
     26 CA          2.6450   14.4160   14.7060 C.3       8 GLP5        0.0000 
     27 CA          8.6460   15.9845   10.8295 C.3       4 GLC5        0.0000 
     28 CA          6.6160   16.0710   10.5960 C.3      12 GLL5        0.0000 
     29 CA         10.6760   15.8980   11.0630 C.3       8 GLP5        0.0000 
     30 OD1         7.5295   14.9735   12.2070 O.co2     3 ASC3        0.0000 
     31 OD1         6.6840   14.6270   10.9920 O.co2    11 ASL3        0.0000 
     32 O           5.6735   14.1020   10.1740 O.2       1 ALC1        0.0000 
     33 O           6.6840   14.6270   10.9920 O.2       9 ALL1        0.0000 
     34 O           4.6630   13.5770    9.3560 O.2       5 ALP1        0.0000 
     35 O           7.5295   14.9735   12.2070 O.2       1 ALC1        0.0000 
     36 O           1.5440   19.2550   17.2800 O.2       1 ALC1        0.0000 
     37 O           1.4090   19.7920   15.9990 O.2       9 ALL1        0.0000 
     38 O           1.6790   18.7180   18.5610 O.2       5 ALP1        0.0000 
     39 CA          0.5375   21.6525   15.1695 C.3       4 GLC5        0.0000 
     40 CA          0.1730   19.7670   15.2560 C.3      12 GLL5        0.0000 
     41 CA          0.9020   23.5380   15.0830 C.3       8 GLP5        0.0000 
     42 CA         -3.3380   18.5445   11.6850 C.3       4 GLC5        0.0000 
     43 CA         -3.4240   17.0270   13.3120 C.3      12 GLL5        0.0000 
     44 CA         -3.2520   20.0620   10.0580 C.3       8 GLP5        0.0000 
     45 O          -2.6530   18.3935   11.3820 O.2       1 ALC1        0.0000 
     46 O          -3.1520   16.8360   11.8600 O.2       9 ALL1        0.0000 
     47 O          -2.1540   19.9510   10.9040 O.2       5 ALP1        0.0000 
     48 O          -4.6420   16.6300   11.7720 O.2       1 ALC1        0.0000 
     49 O          -6.1320   16.4240   11.6840 O.2       5 ALP1        0.0000 
     50 O          -3.6005   16.6425   10.6610 O.2       1 ALC1        0.0000 
     51 O          -4.0490   16.4490    9.4620 O.2       5 ALP1        0.0000 
     52 O          -2.1830   15.6660   11.6810 O.2       1 ALC1        0.0000 
     53 O          -1.2140   14.4960   11.5020 O.2       5 ALP1        0.0000 
     54 N          -1.6770   21.6760   17.8735 N.am      2 SEC2        0.0000 
     55 N          -0.8180   20.7360   17.2390 N.am     10 SEL2        0.0000 
     56 N          -2.5360   22.6160   18.5080 N.am      6 SEP2        0.0000 
     57 N          -1.8425   20.5615   18.2290 N.am      2 SEC2        0.0000 
     58 N          -2.8670   20.3870   19.2190 N.am      6 SEP2        0.0000 
     59 O           0.4305   19.7270   17.9000 O.2       1 ALC1        0.0000 
     60 O          -0.8180   20.7360   17.2390 O.2       9 ALL1        0.0000 
     61 O           5.9265   20.5200   14.8190 O.2       1 ALC1        0.0000 
     62 O           4.9980   19.7850   15.6180 O.2       9 ALL1        0.0000 
     63 O           6.8550   21.2550   14.0200 O.2       5 ALP1        0.0000 
     64 CA          4.2580   21.0335   14.3430 C.3       4 GLC5        0.0000 
     65 CA          3.7820   20.2150   16.3270 C.3      12 GLL5        0.0000 
     66 CA          5.1240   19.1440   17.5480 C.3       4 GLC5        0.0000 
     67 CA          6.4660   18.0730   18.7690 C.3       8 GLP5        0.0000 
     68 N           2.8570   20.4040   12.8040 N.am      2 SEC2        0.0000 
     69 N           2.5900   20.4070   14.2000 N.am     10 SEL2        0.0000 
     70 N           3.1240   20.4010   11.4080 N.am      6 SEP2        0.0000 
     71 CA          2.4130   22.6020   15.9625 C.3       4 GLC5        0.0000 
     72 CA          3.9240   21.6660   16.8420 C.3      12 GLL5        0.0000 
     73 CA          7.6030   23.5195   20.8985 C.3       4 GLC5        0.0000 
     74 CA          7.3670   22.1270   19.3670 C.3      12 GLL5        0.0000 
     75 CA          7.8390   24.9120   22.4300 C.3       8 GLP5        0.0000 
     76 CA          3.6060   18.4245   19.3445 C.3       4 GLC5        0.0000 
     77 CA          4.1150   20.4510   19.5690 C.3      12 GLL5        0.0000 
     78 CA          3.0970   16.3980   19.1200 C.3       8 GLP5        0.0000 
     79 CA          2.3990   20.3860   22.0050 C.3       4 GLC5        0.0000 
     80 CA          4.0960   19.8320   20.7520 C.3      12 GLL5        0.0000 
     81 CA          0.7020   20.9400   23.2580 C.3       8 GLP5        0.0000 
     82 CA          3.5955   17.2575   11.9785 C.3       4 GLC5        0.0000 
     83 CA          1.8400   17.7710   12.0350 C.3       8 GLP5        0.0000 
     84 CA          6.0267   17.5248    9.3470 C.3       4 GLC5        0.0000 
     85 CA          5.3290   16.6920   11.1580 C.3      12 GLL5        0.0000 
     86 CA          6.0810   18.6680    7.8170 C.3       8 GLP5        0.0000 
     87 CA          0.8598   18.4130   13.6268 C.3       4 GLC5        0.0000 
     88 CA          0.0555   17.6807   13.0245 C.3       4 GLC5        0.0000 
     89 CA         -2.0790   16.9220   14.0350 C.3      12 GLL5        0.0000 
     90 CA         -2.7483   15.0808   13.2368 C.3       4 GLC5        0.0000 
     91 CA         -2.7450   13.1870   12.8000 C.3       8 GLP5        0.0000 
     92 CA         -0.3099   16.2188   14.5575 C.3       4 GLC5        0.0000 
     93 CA          0.8680   14.8260   14.8040 C.3       8 GLP5        0.0000 
     94 CA         -3.6683   16.5158   15.2583 C.3       4 GLC5        0.0000 
     95 CA         -4.5850   16.0570   16.8430 C.3       8 GLP5        0.0000 
     96 CA          7.3990   23.6165   16.2880 C.3       4 GLC5        0.0000 
     97 CA          6.1730   22.5540   17.3290 C.3      12 GLL5        0.0000 
     98 CA          8.0560   24.6030   14.8530 C.3       8 GLP5        0.0000 
     99 CA          4.4994   23.8680   17.3855 C.3       4 GLC5        0.0000 
    100 CA          3.6570   25.5950   17.4450 C.3       8 GLP5        0.0000 
    101 CA          4.4363   17.9800   20.6438 C.3       4 GLC5        0.0000 
    102 CA          4.2060   16.0850   20.1230 C.3       8 GLP5        0.0000 
@<TRIPOS>BOND
@<TRIPOS>SUBSTRUCTURE
     1 ALC1        6 GROUP        1 X    ALC  0     ROOT ALC X 1
     2 SEC2       18 GROUP        1 X    SEC  0     **** SEC X 2
     3 ASC3        1 GROUP        1 X    ASC  0     **** ASC X 3
     4 GLC5       13 GROUP        1 X    GLC  0     **** GLC X 6
     5 ALP1        8 GROUP        1 Y    ALP  0     ROOT ALP Y 8
     6 SEP2       20 GROUP        1 Y    SEP  0     **** SEP Y 9
     7 ASP3        3 GROUP        1 Y    ASP  0     **** ASP Y 10
     8 GLP5       15 GROUP        1 Y    GLP  0     **** GLP Y 13
     9 ALL1        7 GROUP        1 Z    ALL  0     ROOT ALL Z 15
    10 SEL2       19 GROUP        1 Z    SEL  0     **** SEL Z 16
    11 ASL3        2 GROUP        1 Z    ASL  0     **** ASL Z 17
    12 GLL5       14 GROUP        1 Z    GLL  0     **** GLL Z 20
@<TRIPOS>SET

