#    Name: 1b0h_LYS_LYS_ALN_1_ligand
#    Modification time : Mon Mar 24 19:11:12 2014

@<TRIPOS>MOLECULE
1b0h_LYS_LYS_ALN_1_ligand
   74    75     3     0     0
SMALL
NO_CHARGES


@<TRIPOS>ATOM
      1 N           6.9090   16.7300   15.2530 N.4       1 LYS601      0.0000
      2 CA          6.4360   18.0200   14.6830 C.3       1 LYS601      0.0000
      3 C           5.1700   18.4740   15.4120 C.2       1 LYS601      0.0000
      4 O           4.4670   17.5800   15.8650 O.2       1 LYS601      0.0000
      5 CB          6.2720   17.9240   13.1610 C.3       1 LYS601      0.0000
      6 CG          5.3730   16.7960   12.6860 C.3       1 LYS601      0.0000
      7 CD          5.3290   16.6920   11.1580 C.3       1 LYS601      0.0000
      8 CE          6.6160   16.0710   10.5960 C.3       1 LYS601      0.0000
      9 NZ          6.6840   14.6270   10.9920 N.4       1 LYS601      0.0000
     10 HA          7.2165   18.7804   14.8829 H         1 LYS601      0.0000
     11 HB2         7.2739   17.8050   12.7062 H         1 LYS601      0.0000
     12 HB3         5.8728   18.8868   12.7890 H         1 LYS601      0.0000
     13 HG2         4.3560   16.9595   13.0592 H         1 LYS601      0.0000
     14 HG3         5.7340   15.8460   13.0953 H         1 LYS601      0.0000
     15 HD2         5.1997   17.6887   10.7341 H         1 LYS601      0.0000
     16 HD3         4.4783   16.0755   10.8647 H         1 LYS601      0.0000
     17 HE2         7.4676   16.6105   10.9969 H         1 LYS601      0.0000
     18 HE3         6.6048   16.1635    9.5151 H         1 LYS601      0.0000
     19 HNCA        6.2221   16.0092   15.1609 H         1 LYS601      0.0000
     20 H           7.7379   16.4047   14.7981 H         1 LYS601      0.0000
     21 H           7.1213   16.8100   16.2269 H         1 LYS601      0.0000
     22 HZ1         5.7734   14.2254   11.0898 H         1 LYS601      0.0000
     23 HZ2         7.1748   14.0789   10.3148 H         1 LYS601      0.0000
     24 HZ3         7.1543   14.5033   11.8658 H         1 LYS601      0.0000
     25 N           1.4090   19.7920   15.9990 N.am      2 LYS603      0.0000
     26 CA          0.1730   19.7670   15.2560 C.3       2 LYS603      0.0000
     27 C          -0.8960   20.5730   16.0140 C.2       2 LYS603      0.0000
     28 O          -1.8600   20.9460   15.3390 O.2       2 LYS603      0.0000
     29 CB         -0.4140   18.3430   15.1810 C.3       2 LYS603      0.0000
     30 CG         -1.3790   18.2590   13.9930 C.3       2 LYS603      0.0000
     31 CD         -2.0790   16.9220   14.0350 C.3       2 LYS603      0.0000
     32 CE         -3.4240   17.0270   13.3120 C.3       2 LYS603      0.0000
     33 NZ         -3.1520   16.8360   11.8600 N.4       2 LYS603      0.0000
     34 OXT        -0.8180   20.7360   17.2390 O.3       2 LYS603      0.0000
     35 HNCA        1.3588   19.5217   16.9985 H         2 LYS603      0.0000
     36 HA          0.2524   20.1541   14.2815 H         2 LYS603      0.0000
     37 HB2        -0.9478   18.1313   16.0951 H         2 LYS603      0.0000
     38 HB3         0.3896   17.6353   15.0438 H         2 LYS603      0.0000
     39 HG2        -0.8171   18.3532   13.0745 H         2 LYS603      0.0000
     40 HG3        -2.1032   19.0578   14.0693 H         2 LYS603      0.0000
     41 HD2        -2.2529   16.6289   15.0649 H         2 LYS603      0.0000
     42 HD3        -1.4702   16.1713   13.5424 H         2 LYS603      0.0000
     43 HE2        -3.8432   18.0020   13.4938 H         2 LYS603      0.0000
     44 HE3        -4.0792   16.2556   13.6793 H         2 LYS603      0.0000
     45 HZ1        -2.3630   16.2415   11.7050 H         2 LYS603      0.0000
     46 HZ2        -3.9295   16.4203   11.3881 H         2 LYS603      0.0000
     47 HZ3        -2.9601   17.7034   11.4009 H         2 LYS603      0.0000
     48 H           0.1331   20.5280   17.4676 H         2 LYS603      0.0000
     49 N           4.9980   19.7850   15.6180 N.am      3 ALN602      0.0000
     50 CA          3.7820   20.2150   16.3270 C.3       3 ALN602      0.0000
     51 C           2.5590   20.1490   15.4140 C.2       3 ALN602      0.0000
     52 O           2.5900   20.4070   14.2000 O.2       3 ALN602      0.0000
     53 CB          3.9240   21.6660   16.8420 C.3       3 ALN602      0.0000
     54 CG1         5.0970   21.7900   17.8040 C.ar      3 ALN602      0.0000
     55 CD1         6.1730   22.5540   17.3290 C.ar      3 ALN602      0.0000
     56 CE1         7.3110   22.7060   18.1170 C.ar      3 ALN602      0.0000
     57 CD2         5.1750   21.2140   19.0800 C.ar      3 ALN602      0.0000
     58 CE2         6.2950   21.3250   19.9340 C.ar      3 ALN602      0.0000
     59 CZ1         7.3670   22.1270   19.3670 C.ar      3 ALN602      0.0000
     60 CG2         4.1150   20.4510   19.5690 C.ar      3 ALN602      0.0000
     61 CD3         4.0960   19.8320   20.7520 C.ar      3 ALN602      0.0000
     62 CE3         5.2370   19.9180   21.5770 C.ar      3 ALN602      0.0000
     63 CZ2         6.3230   20.6880   21.1870 C.ar      3 ALN602      0.0000
     64 H           5.6429   20.5036   15.3220 H         3 ALN602      0.0000
     65 H           3.5960   19.5827   17.1838 H         3 ALN602      0.0000
     66 H           3.0034   21.9484   17.3484 H         3 ALN602      0.0000
     67 H           4.0774   22.3253   15.9903 H         3 ALN602      0.0000
     68 H           6.1177   22.9957   16.4073 H         3 ALN602      0.0000
     69 H           8.1081   23.2524   17.7603 H         3 ALN602      0.0000
     70 H           8.2166   22.2541   19.9656 H         3 ALN602      0.0000
     71 H           3.2592   20.3693   18.9274 H         3 ALN602      0.0000
     72 H           3.2874   19.2975   21.0851 H         3 ALN602      0.0000
     73 H           5.2536   19.4054   22.4665 H         3 ALN602      0.0000
     74 H           7.1349   20.7958   21.7950 H         3 ALN602      0.0000
@<TRIPOS>BOND
     1    2    1 1
     2   19    1 1
     3   20    1 1
     4   21    1 1
     5    3    2 1
     6    5    2 1
     7   10    2 1
     8    4    3 2
     9    6    5 1
    10   11    5 1
    11   12    5 1
    12    7    6 1
    13   13    6 1
    14   14    6 1
    15    8    7 1
    16   15    7 1
    17   16    7 1
    18    9    8 1
    19   17    8 1
    20   18    8 1
    21   22    9 1
    22   23    9 1
    23   24    9 1
    24   26   25 1
    25   35   25 1
    26   27   26 1
    27   29   26 1
    28   36   26 1
    29   28   27 2
    30   34   27 1
    31   30   29 1
    32   37   29 1
    33   38   29 1
    34   31   30 1
    35   39   30 1
    36   40   30 1
    37   32   31 1
    38   41   31 1
    39   42   31 1
    40   33   32 1
    41   43   32 1
    42   44   32 1
    43   45   33 1
    44   46   33 1
    45   47   33 1
    46   48   34 1
    47   50   49 1
    48   64   49 1
    49   51   50 1
    50   53   50 1
    51   65   50 1
    52   52   51 2
    53   54   53 1
    54   66   53 1
    55   67   53 1
    56   55   54 ar
    57   57   54 ar
    58   56   55 ar
    59   68   55 1
    60   59   56 ar
    61   69   56 1
    62   58   57 ar
    63   60   57 ar
    64   59   58 ar
    65   63   58 ar
    66   70   59 1
    67   61   60 ar
    68   71   60 1
    69   62   61 ar
    70   72   61 1
    71   63   62 ar
    72   73   62 1
    73   74   63 1
    74   49    3 1 
    75   51   25 am
@<TRIPOS>SUBSTRUCTURE
     1 LYS601      1 RESIDUE
     2 LYS603     25 RESIDUE
     3 ALN602     49 GROUP
@<TRIPOS>SET

