#    Name: 1sqf_SAM_1_INTS_M
#    Modification time : Tue Mar 25 02:38:44 2014

@<TRIPOS>MOLECULE
1sqf_SAM_1_INTS_M
   77     0    15     0     0
SMALL
NO_CHARGES


@<TRIPOS>ATOM
      1 OD1         4.4295   -2.5135   25.2475 O.co2     3 ASC3        0.0000 
      2 OD1         4.8670   -1.7580   26.2080 O.co2    13 ASL3        0.0000 
      3 OD1         3.9920   -3.2690   24.2870 O.co2     8 ASP3        0.0000 
      4 O           5.9510   -0.9595   25.7460 O.2       1 ALC1        0.0000 
      5 O           4.8670   -1.7580   26.2080 O.2      11 ALL1        0.0000 
      6 O           7.0350   -0.1610   25.2840 O.2       6 ALP1        0.0000 
      7 O           4.4295   -2.5135   25.2475 O.2       1 ALC1        0.0000 
      8 O           3.9920   -3.2690   24.2870 O.2       6 ALP1        0.0000 
      9 O           5.1600   -2.0590   27.6975 O.2       1 ALC1        0.0000 
     10 O           5.4530   -2.3600   29.1870 O.2       6 ALP1        0.0000 
     11 CA          5.5840   -0.3495   27.2645 C.3       5 GLC5        0.0000 
     12 CA          3.6960   -0.9440   26.4750 C.3      15 GLL5        0.0000 
     13 CA          7.4720    0.2450   28.0540 C.3      10 GLP5        0.0000 
     14 N           2.4545    0.1020   29.1015 N.am      2 SEC2        0.0000 
     15 N           1.8740   -0.6410   27.8890 N.am     12 SEL2        0.0000 
     16 N           3.0350    0.8450   30.3140 N.am      7 SEP2        0.0000 
     17 N           1.8410   -1.1215   29.3215 N.am      2 SEC2        0.0000 
     18 N           1.8080   -1.6020   30.7540 N.am      7 SEP2        0.0000 
     19 NZ          2.3560   -3.9690   26.2755 N.4       4 LYC4        0.0000 
     20 NZ          2.8150   -2.9290   27.2500 N.4      14 LYL4        0.0000 
     21 NZ          1.8970   -5.0090   25.3010 N.4       9 LYP4        0.0000 
     22 N           2.8140   -3.5605   28.7310 N.am      2 SEC2        0.0000 
     23 N           2.8150   -2.9290   27.2500 N.am     12 SEL2        0.0000 
     24 N           2.8130   -4.1920   30.2120 N.am      7 SEP2        0.0000 
     25 N           2.3560   -3.9690   26.2755 N.am      2 SEC2        0.0000 
     26 N           1.8970   -5.0090   25.3010 N.am      7 SEP2        0.0000 
     27 CA          5.9245    1.0245   19.8960 C.3       5 GLC5        0.0000 
     28 CA          5.3560    1.3570   21.9120 C.3      15 GLL5        0.0000 
     29 CA          6.4930    0.6920   17.8800 C.3      10 GLP5        0.0000 
     30 O           6.2170    4.0215   24.8765 O.2       1 ALC1        0.0000 
     31 O           5.1090    4.2690   24.1450 O.2      11 ALL1        0.0000 
     32 O           7.3250    3.7740   25.6080 O.2       6 ALP1        0.0000 
     33 O           7.2820    5.9270   24.0235 O.2       1 ALC1        0.0000 
     34 O           6.4470    6.0860   22.8410 O.2      11 ALL1        0.0000 
     35 O           8.1170    5.7680   25.2060 O.2       6 ALP1        0.0000 
     36 CA          8.2480    2.1560   22.8160 C.3       5 GLC5        0.0000 
     37 CA          7.6100    4.0670   22.3480 C.3      15 GLL5        0.0000 
     38 CA          8.8860    0.2450   23.2840 C.3      10 GLP5        0.0000 
     39 CA          8.8800    5.8985   22.2605 C.3       5 GLC5        0.0000 
     40 CA         10.1500    7.7300   22.1730 C.3      10 GLP5        0.0000 
     41 CA         11.8025    6.0260   21.5600 C.3       5 GLC5        0.0000 
     42 CA         12.0430    4.4680   20.2940 C.3      15 GLL5        0.0000 
     43 CA         11.5620    7.5840   22.8260 C.3      10 GLP5        0.0000 
     44 CA         13.9025    5.0870   21.3740 C.3       5 GLC5        0.0000 
     45 CA         15.7620    5.7060   22.4540 C.3      10 GLP5        0.0000 
     46 O          14.1950    5.0285   19.4240 O.2       1 ALC1        0.0000 
     47 O          12.7910    4.7320   19.2260 O.2      11 ALL1        0.0000 
     48 O          15.5990    5.3250   19.6220 O.2       6 ALP1        0.0000 
     49 N          14.0825    3.7085   21.6785 N.am      2 SEC2        0.0000 
     50 N          12.7160    4.0810   21.4030 N.am     12 SEL2        0.0000 
     51 N          15.4490    3.3360   21.9540 N.am      7 SEP2        0.0000 
     52 CA         12.8720    1.9930   23.5415 C.3       5 GLC5        0.0000 
     53 CA         12.0650    3.7360   22.5560 C.3      15 GLL5        0.0000 
     54 CA         13.6790    0.2500   24.5270 C.3      10 GLP5        0.0000 
     55 CA         11.1630    2.0625   22.3200 C.3       5 GLC5        0.0000 
     56 CA         10.2610    0.3890   22.0840 C.3      10 GLP5        0.0000 
     57 CA         11.3000    4.1895   24.5530 C.3       5 GLC5        0.0000 
     58 CA         10.5350    4.6430   26.5500 C.3      10 GLP5        0.0000 
     59 CA         11.8135    5.6600   22.6910 C.3       5 GLC5        0.0000 
     60 CA         13.9135    4.7210   22.5050 C.3       5 GLC5        0.0000 
     61 CA         13.9400    2.8480   22.1230 C.3       5 GLC5        0.0000 
     62 CA         15.8150    1.9600   21.6900 C.3      10 GLP5        0.0000 
     63 N          10.8240    5.0555   23.7325 N.am      2 SEC2        0.0000 
     64 N          10.7110    3.8070   22.6010 N.am     12 SEL2        0.0000 
     65 N          10.9370    6.3040   24.8640 N.am      7 SEP2        0.0000 
     66 CA         10.1220    2.2885   21.8085 C.3       5 GLC5        0.0000 
     67 CA          9.9830    4.1880   21.5330 C.3      15 GLL5        0.0000 
     68 CA          2.5258    0.8719   26.2835 C.3       5 GLC5        0.0000 
     69 CA          3.0800   -0.4730   25.1430 C.3      15 GLL5        0.0000 
     70 CA          1.3090    1.9090   27.4950 C.3      10 GLP5        0.0000 
     71 CA          7.2705    1.0955   22.7942 C.3       5 GLC5        0.0000 
     72 CA          4.6258    5.7835   23.6182 C.3       5 GLC5        0.0000 
     73 CA          5.2730    3.9070   22.7950 C.3      15 GLL5        0.0000 
     74 CA          3.4540    7.1840   24.7430 C.3      10 GLP5        0.0000 
     75 CA         10.2278    6.0438   21.5575 C.3       5 GLC5        0.0000 
     76 CA          9.4162    3.0232   19.6365 C.3       5 GLC5        0.0000 
     77 CA          8.5270    1.6890   18.3310 C.3      10 GLP5        0.0000 
@<TRIPOS>BOND
@<TRIPOS>SUBSTRUCTURE
     1 ALC1        4 GROUP        1 X    ALC  0     ROOT ALC X 1
     2 SEC2       14 GROUP        1 X    SEC  0     **** SEC X 2
     3 ASC3        1 GROUP        1 X    ASC  0     **** ASC X 3
     4 LYC4       19 GROUP        1 X    LYC  0     **** LYC X 4
     5 GLC5       11 GROUP        1 X    GLC  0     **** GLC X 6
     6 ALP1        6 GROUP        1 Y    ALP  0     ROOT ALP Y 8
     7 SEP2       16 GROUP        1 Y    SEP  0     **** SEP Y 9
     8 ASP3        3 GROUP        1 Y    ASP  0     **** ASP Y 10
     9 LYP4       21 GROUP        1 Y    LYP  0     **** LYP Y 11
    10 GLP5       13 GROUP        1 Y    GLP  0     **** GLP Y 13
    11 ALL1        5 GROUP        1 Z    ALL  0     ROOT ALL Z 15
    12 SEL2       15 GROUP        1 Z    SEL  0     **** SEL Z 16
    13 ASL3        2 GROUP        1 Z    ASL  0     **** ASL Z 17
    14 LYL4       20 GROUP        1 Z    LYL  0     **** LYL Z 18
    15 GLL5       12 GROUP        1 Z    GLL  0     **** GLL Z 20
@<TRIPOS>SET

