#    Name: 1sqf_SAM_1_ligand
#    Modification time : Tue Mar 25 02:38:44 2014

@<TRIPOS>MOLECULE
1sqf_SAM_1_ligand
   50    52     1     0     0
SMALL
NO_CHARGES


@<TRIPOS>ATOM
      1 N           4.8670   -1.7580   26.2080 N.4       1 SAM430      0.0000 
      2 CA          3.6960   -0.9440   26.4750 C.3       1 SAM430      0.0000 
      3 C           2.6230   -1.5670   27.4240 C.2       1 SAM430      0.0000 
      4 O           1.8740   -0.6410   27.8890 O.co2     1 SAM430      0.0000 
      5 OXT         2.8150   -2.9290   27.2500 O.co2     1 SAM430      0.0000 
      6 CB          3.0800   -0.4730   25.1430 C.3       1 SAM430      0.0000 
      7 CG          4.0970    0.3780   24.3350 C.3       1 SAM430      0.0000 
      8 SD          3.7600    0.8570   22.5960 S.3       1 SAM430      0.0000 
      9 CE          3.4010   -0.6870   21.7020 C.3       1 SAM430      0.0000 
     10 C5'         5.3560    1.3570   21.9120 C.3       1 SAM430      0.0000 
     11 C4'         5.9540    2.5350   22.6970 C.3       1 SAM430      0.0000 
     12 O4'         7.1770    2.7900   22.0550 O.3       1 SAM430      0.0000 
     13 C3'         5.2730    3.9070   22.7950 C.3       1 SAM430      0.0000 
     14 O3'         5.1090    4.2690   24.1450 O.3       1 SAM430      0.0000 
     15 C2'         6.3220    4.8590   22.1920 C.3       1 SAM430      0.0000 
     16 O2'         6.4470    6.0860   22.8410 O.3       1 SAM430      0.0000 
     17 C1'         7.6100    4.0670   22.3480 C.3       1 SAM430      0.0000 
     18 N9          8.6390    4.3310   21.3440 N.pl3     1 SAM430      0.0000 
     19 C8          8.4440    4.7520   20.0360 C.2       1 SAM430      0.0000 
     20 N7          9.6610    4.8700   19.4910 N.2       1 SAM430      0.0000 
     21 C5         10.6280    4.5270   20.3510 C.ar      1 SAM430      0.0000 
     22 C6         12.0430    4.4680   20.2940 C.ar      1 SAM430      0.0000 
     23 N6         12.7910    4.7320   19.2260 N.pl3     1 SAM430      0.0000 
     24 N1         12.7160    4.0810   21.4030 N.ar      1 SAM430      0.0000 
     25 C2         12.0650    3.7360   22.5560 C.ar      1 SAM430      0.0000 
     26 N3         10.7110    3.8070   22.6010 N.ar      1 SAM430      0.0000 
     27 C4          9.9830    4.1880   21.5330 C.ar      1 SAM430      0.0000 
     28 H           4.0356    0.0073   26.9828 H         1 SAM430      0.0000 
     29 H           2.2017    0.1297   25.3467 H         1 SAM430      0.0000 
     30 H           2.7981   -1.3375   24.5520 H         1 SAM430      0.0000 
     31 H           5.0823   -0.1194   24.2435 H         1 SAM430      0.0000 
     32 H           4.2890    1.3622   24.8053 H         1 SAM430      0.0000 
     33 H           5.1124    1.6021   20.9040 H         1 SAM430      0.0000 
     34 H           5.9328    0.4642   21.9866 H         1 SAM430      0.0000 
     35 H           6.1841    2.1882   23.7145 H         1 SAM430      0.0000 
     36 H           4.4248    3.9244   22.2129 H         1 SAM430      0.0000 
     37 H           6.1274    4.9280   21.1400 H         1 SAM430      0.0000 
     38 H           7.9630    4.1426   23.3257 H         1 SAM430      0.0000 
     39 H           7.6012    4.9158   19.6346 H         1 SAM430      0.0000 
     40 H          13.7805    4.6654   19.3545 H         1 SAM430      0.0000 
     41 H          12.2963    4.9731   18.3910 H         1 SAM430      0.0000 
     42 H          12.6038    3.4254   23.3808 H         1 SAM430      0.0000 
     43 H           4.6244   -2.6286   25.7799 H         1 SAM430      0.0000 
     44 H           5.5072   -1.2974   25.5931 H         1 SAM430      0.0000 
     45 H           5.3687   -1.9731   27.0459 H         1 SAM430      0.0000 
     46 H           4.1699   -1.3253   21.7395 H         1 SAM430      0.0000 
     47 H           2.6075   -1.1612   22.0835 H         1 SAM430      0.0000 
     48 H           3.2058   -0.5198   20.7356 H         1 SAM430      0.0000 
     49 H           5.9730    4.0246   24.5852 H         1 SAM430      0.0000 
     50 H           7.0134    5.8977   23.6433 H         1 SAM430      0.0000 
@<TRIPOS>BOND
     1    2    1 1    
     2   43    1 1    
     3   44    1 1    
     4   45    1 1    
     5    3    2 1    
     6    6    2 1    
     7   28    2 1    
     8    4    3 ar   
     9    5    3 ar   
    10    7    6 1    
    11   29    6 1    
    12   30    6 1    
    13    8    7 1    
    14   31    7 1    
    15   32    7 1    
    16    9    8 1    
    17   10    8 1    
    18   46    9 1    
    19   47    9 1    
    20   48    9 1    
    21   11   10 1    
    22   33   10 1    
    23   34   10 1    
    24   12   11 1    
    25   13   11 1    
    26   35   11 1    
    27   17   12 1    
    28   14   13 1    
    29   15   13 1    
    30   36   13 1    
    31   49   14 1    
    32   16   15 1    
    33   17   15 1    
    34   37   15 1    
    35   50   16 1    
    36   18   17 1    
    37   38   17 1    
    38   19   18 1    
    39   27   18 1    
    40   20   19 2    
    41   39   19 1    
    42   21   20 1    
    43   22   21 ar   
    44   27   21 ar   
    45   23   22 1    
    46   24   22 ar   
    47   40   23 1    
    48   41   23 1    
    49   25   24 ar   
    50   26   25 ar   
    51   42   25 1    
    52   27   26 ar   
@<TRIPOS>SUBSTRUCTURE
     1 SAM430      1 GROUP   
@<TRIPOS>SET

