#    Name: 1tl3_H20_1_INTS_M
#    Modification time : Tue Mar 25 05:29:11 2014

@<TRIPOS>MOLECULE
1tl3_H20_1_INTS_M
   74     0     6     0     0
SMALL
NO_CHARGES


@<TRIPOS>ATOM
      1 CA          2.6120  -37.7175   24.9325 C.3       2 GLC5        0.0000 
      2 CA          3.2980  -36.2200   23.4220 C.3       6 GLL5        0.0000 
      3 CA          1.9260  -39.2150   26.4430 C.3       4 GLP5        0.0000 
      4 CA          5.5495  -34.1475   23.5730 C.3       2 GLC5        0.0000 
      5 CA          3.6290  -35.0170   24.2910 C.3       6 GLL5        0.0000 
      6 CA          7.4700  -33.2780   22.8550 C.3       4 GLP5        0.0000 
      7 CA          4.5495  -33.4320   25.3935 C.3       2 GLC5        0.0000 
      8 CA          5.4700  -31.8470   26.4960 C.3       4 GLP5        0.0000 
      9 CA          2.1750  -36.2390   27.0480 C.3       2 GLC5        0.0000 
     10 CA          2.8810  -35.1160   25.5880 C.3       6 GLL5        0.0000 
     11 CA          1.4690  -37.3620   28.5080 C.3       4 GLP5        0.0000 
     12 CA          3.5885  -33.5490   26.4205 C.3       2 GLC5        0.0000 
     13 CA          4.2960  -31.9820   27.2530 C.3       4 GLP5        0.0000 
     14 CA          0.9340  -36.2620   26.4570 C.3       2 GLC5        0.0000 
     15 CA          1.3810  -34.9300   25.3560 C.3       6 GLL5        0.0000 
     16 CA          0.4870  -37.5940   27.5580 C.3       4 GLP5        0.0000 
     17 CA          1.7360  -33.3515   26.5915 C.3       2 GLC5        0.0000 
     18 CA          2.0910  -31.7730   27.8270 C.3       4 GLP5        0.0000 
     19 CA         -1.2790  -35.9775   24.7660 C.3       2 GLC5        0.0000 
     20 CA          0.7790  -35.9160   24.2690 C.3       6 GLL5        0.0000 
     21 CA         -3.3370  -36.0390   25.2630 C.3       4 GLP5        0.0000 
     22 O           0.5770  -36.8625   16.6675 O.2       1 ALC1        0.0000 
     23 O           0.7080  -37.0310   18.0430 O.2       5 ALL1        0.0000 
     24 O           0.4460  -36.6940   15.2920 O.2       3 ALP1        0.0000 
     25 CA          3.1485  -36.0005   19.6140 C.3       2 GLC5        0.0000 
     26 CA          2.0490  -37.8820   19.9320 C.3       6 GLL5        0.0000 
     27 CA          4.2480  -34.1190   19.2960 C.3       4 GLP5        0.0000 
     28 CA         -0.3320  -38.2385   17.7860 C.3       2 GLC5        0.0000 
     29 CA         -0.2180  -36.5540   18.9210 C.3       6 GLL5        0.0000 
     30 CA         -0.4460  -39.9230   16.6510 C.3       4 GLP5        0.0000 
     31 CA         -1.6805  -36.2280   16.2795 C.3       2 GLC5        0.0000 
     32 CA         -1.4090  -36.0190   18.4150 C.3       6 GLL5        0.0000 
     33 CA         -1.9520  -36.4370   14.1440 C.3       4 GLP5        0.0000 
     34 CA         -1.6665  -38.0385   17.6970 C.3       2 GLC5        0.0000 
     35 CA         -1.9240  -40.0580   16.9790 C.3       4 GLP5        0.0000 
     36 CA         -4.9470  -36.5795   22.6410 C.3       2 GLC5        0.0000 
     37 CA         -3.4920  -35.2840   21.7150 C.3       6 GLL5        0.0000 
     38 CA         -6.4020  -37.8750   23.5670 C.3       4 GLP5        0.0000 
     39 CA         -3.4145  -35.6615   23.4890 C.3       2 GLC5        0.0000 
     40 CA         -5.0500  -34.1405   21.2260 C.3       2 GLC5        0.0000 
     41 CA         -6.6080  -32.9970   20.7370 C.3       4 GLP5        0.0000 
     42 CA         -4.7200  -35.6450   20.1020 C.3       2 GLC5        0.0000 
     43 CA         -5.9480  -36.0060   18.4890 C.3       4 GLP5        0.0000 
     44 CA          4.3885  -36.1610   19.9490 C.3       2 GLC5        0.0000 
     45 CA          4.5290  -38.2030   20.6020 C.3       6 GLL5        0.0000 
     46 CA          5.3425  -38.7735   22.2230 C.3       2 GLC5        0.0000 
     47 CA          6.1560  -39.3440   23.8440 C.3       4 GLP5        0.0000 
     48 CA          3.3345  -40.9705   19.9385 C.3       2 GLC5        0.0000 
     49 CA          2.7580  -39.9620   21.3560 C.3       6 GLL5        0.0000 
     50 CA          3.9110  -41.9790   18.5210 C.3       4 GLP5        0.0000 
     51 CA          4.4570  -39.6530   22.6000 C.3       2 GLC5        0.0000 
     52 CA          2.4665  -40.0735   23.3365 C.3       2 GLC5        0.0000 
     53 CA          2.1750  -40.1850   25.3170 C.3       4 GLP5        0.0000 
     54 CA          0.9915  -37.3128   25.0808 C.3       2 GLC5        0.0000 
     55 CA          1.7470  -36.2970   22.9900 C.3       6 GLL5        0.0000 
     56 CA          0.7200  -38.5190   26.5320 C.3       4 GLP5        0.0000 
     57 CA          4.6881  -36.4236   25.1376 C.3       2 GLC5        0.0000 
     58 CA          6.2040  -37.4800   25.5530 C.3       4 GLP5        0.0000 
     59 CA          0.3480  -33.6645   24.4672 C.3       2 GLC5        0.0000 
     60 CA         -0.3840  -31.9060   24.1220 C.3       4 GLP5        0.0000 
     61 CA          1.2000  -35.1987   20.0060 C.3       2 GLC5        0.0000 
     62 CA         -0.0300  -36.7040   20.3290 C.3       6 GLL5        0.0000 
     63 CA          1.8610  -33.3730   19.4320 C.3       4 GLP5        0.0000 
     64 CA          0.5237  -34.8297   19.0500 C.3       2 GLC5        0.0000 
     65 CA         -1.3820  -38.2540   20.1345 C.3       2 GLC5        0.0000 
     66 CA         -2.6400  -39.8790   20.6440 C.3       4 GLP5        0.0000 
     67 CA         -2.7930  -33.8970   22.2372 C.3       2 GLC5        0.0000 
     68 CA         -2.2680  -35.7640   20.6700 C.3       6 GLL5        0.0000 
     69 CA         -2.7060  -32.2700   23.2820 C.3       4 GLP5        0.0000 
     70 CA         -4.1513  -35.8498   19.2360 C.3       2 GLC5        0.0000 
     71 CA         -2.3489  -37.8524   20.3777 C.3       2 GLC5        0.0000 
     72 CA         -2.4410  -35.6230   19.2960 C.3       6 GLL5        0.0000 
     73 CA          3.8792  -40.2553   19.4968 C.3       2 GLC5        0.0000 
     74 CA          3.1660  -38.8600   20.3430 C.3       6 GLL5        0.0000 
@<TRIPOS>BOND
@<TRIPOS>SUBSTRUCTURE
     1 ALC1       22 GROUP        1 X    ALC  0     ROOT ALC X 1
     2 GLC5        1 GROUP        1 X    GLC  0     **** GLC X 6
     3 ALP1       24 GROUP        1 Y    ALP  0     ROOT ALP Y 8
     4 GLP5        3 GROUP        1 Y    GLP  0     **** GLP Y 13
     5 ALL1       23 GROUP        1 Z    ALL  0     ROOT ALL Z 15
     6 GLL5        2 GROUP        1 Z    GLL  0     **** GLL Z 20
@<TRIPOS>SET

