#    Name: 1tl3_H20_1_ligand
#    Modification time : Tue Mar 25 05:29:12 2014

@<TRIPOS>MOLECULE
1tl3_H20_1_ligand
   44    46     1     0     0
SMALL
NO_CHARGES


@<TRIPOS>ATOM
      1 CA          1.7470  -36.2970   22.9900 C.3       1 H20999      0.0000 
      2 CB          3.2980  -36.2200   23.4220 C.3       1 H20999      0.0000 
      3 CC          3.6290  -35.0170   24.2910 C.3       1 H20999      0.0000 
      4 CD          2.8810  -35.1160   25.5880 C.3       1 H20999      0.0000 
      5 CE          1.3810  -34.9300   25.3560 C.3       1 H20999      0.0000 
      6 CF          0.7790  -35.9160   24.2690 C.3       1 H20999      0.0000 
      7 N1          0.7080  -37.0310   18.0430 N.am      1 H20999      0.0000 
      8 C6          1.8470  -37.6930   18.4820 C.2       1 H20999      0.0000 
      9 O2          2.6940  -38.0800   17.6570 O.2       1 H20999      0.0000 
     10 C5          2.0490  -37.8820   19.9320 C.2       1 H20999      0.0000 
     11 C4          1.1080  -37.3450   20.8310 C.2       1 H20999      0.0000 
     12 O4          1.3080  -37.4730   22.2570 O.3       1 H20999      0.0000 
     13 C2         -0.2180  -36.5540   18.9210 C.ar      1 H20999      0.0000 
     14 C3         -0.0300  -36.7040   20.3290 C.ar      1 H20999      0.0000 
     15 C7         -1.0810  -36.2930   21.1840 C.ar      1 H20999      0.0000 
     16 C8         -2.2680  -35.7640   20.6700 C.ar      1 H20999      0.0000 
     17 C9         -2.4410  -35.6230   19.2960 C.ar      1 H20999      0.0000 
     18 C10        -1.4090  -36.0190   18.4150 C.ar      1 H20999      0.0000 
     19 CL         -3.4920  -35.2840   21.7150 Cl        1 H20999      0.0000 
     20 C11         3.1660  -38.8600   20.3430 C.3       1 H20999      0.0000 
     21 C12         4.5290  -38.2030   20.6020 C.3       1 H20999      0.0000 
     22 C13         2.7580  -39.9620   21.3560 C.3       1 H20999      0.0000 
     23 H           1.6123  -35.3721   22.3162 H         1 H20999      0.0000 
     24 H           3.8838  -36.1981   22.4993 H         1 H20999      0.0000 
     25 H           3.5266  -37.1487   23.9514 H         1 H20999      0.0000 
     26 H           3.3428  -34.1091   23.7665 H         1 H20999      0.0000 
     27 H           4.6990  -34.9982   24.4808 H         1 H20999      0.0000 
     28 H           3.2283  -34.3467   26.2779 H         1 H20999      0.0000 
     29 H           3.0484  -36.0935   26.0408 H         1 H20999      0.0000 
     30 H           1.1802  -33.9069   25.0226 H         1 H20999      0.0000 
     31 H           0.8366  -35.0955   26.2911 H         1 H20999      0.0000 
     32 H           0.5065  -36.8625   24.7526 H         1 H20999      0.0000 
     33 H          -0.1370  -35.4780   23.8531 H         1 H20999      0.0000 
     34 H           0.5690  -36.9020   17.0174 H         1 H20999      0.0000 
     35 H          -0.9607  -36.3890   22.2041 H         1 H20999      0.0000 
     36 H          -3.3075  -35.2356   18.9160 H         1 H20999      0.0000 
     37 H          -1.5384  -35.9119   17.4047 H         1 H20999      0.0000 
     38 H           3.3559  -39.4790   19.3446 H         1 H20999      0.0000 
     39 H           5.2205  -38.8746   20.8680 H         1 H20999      0.0000 
     40 H           4.8746  -37.7323   19.7902 H         1 H20999      0.0000 
     41 H           4.4812  -37.5252   21.3357 H         1 H20999      0.0000 
     42 H           3.5258  -40.5615   21.5819 H         1 H20999      0.0000 
     43 H           2.4276  -39.5723   22.2157 H         1 H20999      0.0000 
     44 H           2.0275  -40.5436   20.9979 H         1 H20999      0.0000 
@<TRIPOS>BOND
     1    2    1 1    
     2    6    1 1    
     3   12    1 1    
     4   23    1 1    
     5    3    2 1    
     6   24    2 1    
     7   25    2 1    
     8    4    3 1    
     9   26    3 1    
    10   27    3 1    
    11    5    4 1    
    12   28    4 1    
    13   29    4 1    
    14    6    5 1    
    15   30    5 1    
    16   31    5 1    
    17   32    6 1    
    18   33    6 1    
    19    8    7 am   
    20   13    7 1    
    21   34    7 1    
    22    9    8 2    
    23   10    8 1    
    24   11   10 2    
    25   20   10 1    
    26   12   11 1    
    27   14   11 1    
    28   14   13 ar   
    29   18   13 ar   
    30   15   14 ar   
    31   16   15 ar   
    32   35   15 1    
    33   17   16 ar   
    34   19   16 1    
    35   18   17 ar   
    36   36   17 1    
    37   37   18 1    
    38   21   20 1    
    39   22   20 1    
    40   38   20 1    
    41   39   21 1    
    42   40   21 1    
    43   41   21 1    
    44   42   22 1    
    45   43   22 1    
    46   44   22 1    
@<TRIPOS>SUBSTRUCTURE
     1 H20999      1 GROUP   
@<TRIPOS>SET

