#    Name: 3njo_PYV_3_INTS_M
#    Modification time : Tue Mar 25 01:42:36 2014

@<TRIPOS>MOLECULE
3njo_PYV_3_INTS_M
   42     0     6     0     0
SMALL
NO_CHARGES


@<TRIPOS>ATOM
      1 CA          3.4125   -3.3795   43.8805 C.3       2 GLC5        0.0000 
      2 CA          3.6070   -3.3750   45.4910 C.3       6 GLL5        0.0000 
      3 CA          3.2180   -3.3840   42.2700 C.3       4 GLP5        0.0000 
      4 O           7.8795   -9.5510   47.4420 O.2       1 ALC1        0.0000 
      5 O           8.0200   -8.2790   46.6060 O.2       5 ALL1        0.0000 
      6 O           7.7390  -10.8230   48.2780 O.2       3 ALP1        0.0000 
      7 CA          7.2645   -4.7415   49.2450 C.3       2 GLC5        0.0000 
      8 CA          6.8570   -4.9350   47.3350 C.3       6 GLL5        0.0000 
      9 CA          7.6720   -4.5480   51.1550 C.3       4 GLP5        0.0000 
     10 CA          5.2715   -2.1910   47.8175 C.3       2 GLC5        0.0000 
     11 CA          6.0030   -3.9920   46.8390 C.3       6 GLL5        0.0000 
     12 CA          4.5400   -0.3900   48.7960 C.3       4 GLP5        0.0000 
     13 CA          7.3735   -3.5530   45.1315 C.3       2 GLC5        0.0000 
     14 CA          8.7440   -3.1140   43.4240 C.3       4 GLP5        0.0000 
     15 CA         10.3170   -9.3235   45.7050 C.3       2 GLC5        0.0000 
     16 CA          9.0420   -7.7980   45.7260 C.3       6 GLL5        0.0000 
     17 CA         11.5920  -10.8490   45.6840 C.3       4 GLP5        0.0000 
     18 CA          6.6900   -9.9380   43.7245 C.3       2 GLC5        0.0000 
     19 CA          6.6240   -7.9310   43.0220 C.3       6 GLL5        0.0000 
     20 CA          6.7560  -11.9450   44.4270 C.3       4 GLP5        0.0000 
     21 CA          3.2537   -4.6608   47.3880 C.3       2 GLC5        0.0000 
     22 CA          4.8960   -4.4560   46.1930 C.3       6 GLL5        0.0000 
     23 CA          2.2560   -5.4060   48.9340 C.3       4 GLP5        0.0000 
     24 CA          2.7252   -3.0568   46.5135 C.3       2 GLC5        0.0000 
     25 CA          1.1990   -2.1980   47.1850 C.3       4 GLP5        0.0000 
     26 CA          3.6190   -5.8037   47.5960 C.3       2 GLC5        0.0000 
     27 CA          4.5710   -5.7410   46.0120 C.3       6 GLL5        0.0000 
     28 CA          4.2242   -9.6110   47.4688 C.3       2 GLC5        0.0000 
     29 CA          5.1170   -7.9860   46.3570 C.3       6 GLL5        0.0000 
     30 CA          3.9020  -11.0540   48.9150 C.3       4 GLP5        0.0000 
     31 CA          2.7630   -6.0667   47.1055 C.3       2 GLC5        0.0000 
     32 CA          3.1250   -7.3930   45.1950 C.3       6 GLL5        0.0000 
     33 CA          1.3360   -7.1232   45.5270 C.3       2 GLC5        0.0000 
     34 CA          3.4150   -6.0620   45.3590 C.3       6 GLL5        0.0000 
     35 CA         -0.5980   -7.5190   45.7770 C.3       4 GLP5        0.0000 
     36 CA          6.1645   -8.9642   41.8440 C.3       2 GLC5        0.0000 
     37 CA          5.4370  -10.3940   41.1510 C.3       4 GLP5        0.0000 
     38 CA          7.7423   -5.8830   40.2878 C.3       2 GLC5        0.0000 
     39 CA          7.1600   -7.1380   42.0520 C.3       6 GLL5        0.0000 
     40 CA          7.7280   -4.9350   38.4070 C.3       4 GLP5        0.0000 
     41 CA          8.7035   -4.8742   43.1532 C.3       2 GLC5        0.0000 
     42 CA          8.3530   -6.5240   42.2850 C.3       6 GLL5        0.0000 
@<TRIPOS>BOND
@<TRIPOS>SUBSTRUCTURE
     1 ALC1        4 GROUP        1 X    ALC  0     ROOT ALC X 1
     2 GLC5        1 GROUP        1 X    GLC  0     **** GLC X 6
     3 ALP1        6 GROUP        1 Y    ALP  0     ROOT ALP Y 8
     4 GLP5        3 GROUP        1 Y    GLP  0     **** GLP Y 13
     5 ALL1        5 GROUP        1 Z    ALL  0     ROOT ALL Z 15
     6 GLL5        2 GROUP        1 Z    GLL  0     **** GLL Z 20
@<TRIPOS>SET

