#    Name: 3njo_PYV_3_ligand
#    Modification time : Tue Mar 25 01:42:36 2014

@<TRIPOS>MOLECULE
3njo_PYV_3_ligand
   35    37     1     0     0
SMALL
NO_CHARGES


@<TRIPOS>ATOM
      1 S           7.3550   -7.3360   47.6810 S.o2      1 PYV300      0.0000 
      2 BR          3.6070   -3.3750   45.4910 Br        1 PYV300      0.0000 
      3 C1          4.8960   -4.4560   46.1930 C.ar      1 PYV300      0.0000 
      4 N1          8.0200   -8.2790   46.6060 N.pl3     1 PYV300      0.0000 
      5 O1          8.2080   -6.7570   48.5840 O.2       1 PYV300      0.0000 
      6 C2          4.5710   -5.7410   46.0120 C.ar      1 PYV300      0.0000 
      7 N2          7.2300   -8.1290   44.1710 N.ar      1 PYV300      0.0000 
      8 O2          6.3770   -8.0070   48.3730 O.2       1 PYV300      0.0000 
      9 C3          5.3930   -6.6620   46.5040 C.ar      1 PYV300      0.0000 
     10 C4          6.5120   -6.2330   47.1220 C.ar      1 PYV300      0.0000 
     11 C5          6.8570   -4.9350   47.3350 C.ar      1 PYV300      0.0000 
     12 C6          6.0030   -3.9920   46.8390 C.ar      1 PYV300      0.0000 
     13 C7          5.1170   -7.9860   46.3570 C.ar      1 PYV300      0.0000 
     14 C8          3.9760   -8.3500   45.6880 C.ar      1 PYV300      0.0000 
     15 C9          3.1250   -7.3930   45.1950 C.ar      1 PYV300      0.0000 
     16 C10         3.4150   -6.0620   45.3590 C.ar      1 PYV300      0.0000 
     17 C11         9.0420   -7.7980   45.7260 C.3       1 PYV300      0.0000 
     18 C12         8.3890   -7.5590   44.4100 C.ar      1 PYV300      0.0000 
     19 C13         6.6240   -7.9310   43.0220 C.ar      1 PYV300      0.0000 
     20 C14         7.1600   -7.1380   42.0520 C.ar      1 PYV300      0.0000 
     21 C15         8.3530   -6.5240   42.2850 C.ar      1 PYV300      0.0000 
     22 C16         8.9730   -6.7450   43.4800 C.ar      1 PYV300      0.0000 
     23 H           7.6791   -9.2210   46.5869 H         1 PYV300      0.0000 
     24 H           7.7003   -4.6789   47.8337 H         1 PYV300      0.0000 
     25 H           6.1835   -3.0013   46.9460 H         1 PYV300      0.0000 
     26 H           5.7469   -8.7028   46.7373 H         1 PYV300      0.0000 
     27 H           3.7550   -9.3545   45.5539 H         1 PYV300      0.0000 
     28 H           2.2618   -7.6762   44.6980 H         1 PYV300      0.0000 
     29 H           2.7881   -5.3405   45.0050 H         1 PYV300      0.0000 
     30 H           9.8351   -8.5303   45.6015 H         1 PYV300      0.0000 
     31 H           9.4685   -6.8656   46.0857 H         1 PYV300      0.0000 
     32 H           5.6913   -8.3915   42.8237 H         1 PYV300      0.0000 
     33 H           6.6692   -7.0051   41.1551 H         1 PYV300      0.0000 
     34 H           8.7761   -5.9101   41.5799 H         1 PYV300      0.0000 
     35 H           9.8847   -6.2973   43.6833 H         1 PYV300      0.0000 
@<TRIPOS>BOND
     1    4    1 1    
     2    5    1 2    
     3    8    1 2    
     4   10    1 1    
     5    3    2 1    
     6    6    3 ar   
     7   12    3 ar   
     8   17    4 1    
     9   23    4 1    
    10    9    6 ar   
    11   16    6 ar   
    12   18    7 ar   
    13   19    7 ar   
    14   10    9 ar   
    15   13    9 ar   
    16   11   10 ar   
    17   12   11 ar   
    18   24   11 1    
    19   25   12 1    
    20   14   13 ar   
    21   26   13 1    
    22   15   14 ar   
    23   27   14 1    
    24   16   15 ar   
    25   28   15 1    
    26   29   16 1    
    27   18   17 1    
    28   30   17 1    
    29   31   17 1    
    30   22   18 ar   
    31   20   19 ar   
    32   32   19 1    
    33   21   20 ar   
    34   33   20 1    
    35   22   21 ar   
    36   34   21 1    
    37   35   22 1    
@<TRIPOS>SUBSTRUCTURE
     1 PYV300      1 GROUP   
@<TRIPOS>SET

