#    Name: 3gvu_STI_1_INTS_M
#    Modification time : Tue Mar 25 13:01:32 2014

@<TRIPOS>MOLECULE
3gvu_STI_1_INTS_M
  110     0     9     0     0
SMALL
NO_CHARGES


@<TRIPOS>ATOM
      1 CA          5.3915    7.8950   21.6985 C.3       3 GLC5        0.0000 
      2 CA          6.5740    7.6540   23.3390 C.3       9 GLL5        0.0000 
      3 CA          4.2090    8.1360   20.0580 C.3       6 GLP5        0.0000 
      4 CA          8.5770    4.2375   21.7920 C.3       3 GLC5        0.0000 
      5 CA          8.6330    6.3510   22.1020 C.3       9 GLL5        0.0000 
      6 CA          8.5210    2.1240   21.4820 C.3       6 GLP5        0.0000 
      7 CA          9.2245    5.1900   23.8430 C.3       3 GLC5        0.0000 
      8 CA          9.8160    4.0290   25.5840 C.3       6 GLP5        0.0000 
      9 CA         10.3150    6.8980   23.0025 C.3       3 GLC5        0.0000 
     10 CA         11.9970    7.4450   23.9030 C.3       6 GLP5        0.0000 
     11 N           8.1920    4.3510   23.3320 N.am      2 SEC2        0.0000 
     12 N           7.8150    5.6800   22.9090 N.am      8 SEL2        0.0000 
     13 N           8.5690    3.0220   23.7550 N.am      5 SEP2        0.0000 
     14 CA          6.0450    6.7590   21.4735 C.3       3 GLC5        0.0000 
     15 CA          6.8080    6.2840   23.5180 C.3       9 GLL5        0.0000 
     16 CA          5.2820    7.2340   19.4290 C.3       6 GLP5        0.0000 
     17 CA          7.7995    4.6320   24.3610 C.3       3 GLC5        0.0000 
     18 CA          8.7910    2.9800   25.2040 C.3       6 GLP5        0.0000 
     19 CA         10.6745    7.9175   22.4560 C.3       3 GLC5        0.0000 
     20 CA          9.3520    8.3900   21.0090 C.3       9 GLL5        0.0000 
     21 CA         10.0405    6.8920   19.0040 C.3       3 GLC5        0.0000 
     22 CA         11.2910    8.4030   19.6710 C.3       9 GLL5        0.0000 
     23 CA          8.7900    5.3810   18.3370 C.3       6 GLP5        0.0000 
     24 CA         11.6440    7.9240   21.7870 C.3       3 GLC5        0.0000 
     25 O          12.3920    6.2460   18.9050 O.2       1 ALC1        0.0000 
     26 O          12.3370    7.7430   19.1900 O.2       7 ALL1        0.0000 
     27 O          12.4470    4.7490   18.6200 O.2       4 ALP1        0.0000 
     28 CA         13.9875   10.5880   15.1700 C.3       3 GLC5        0.0000 
     29 CA         14.9980    9.0950   16.3390 C.3       9 GLL5        0.0000 
     30 CA         12.9770   12.0810   14.0010 C.3       6 GLP5        0.0000 
     31 CA         16.7445    8.5225   16.0755 C.3       3 GLC5        0.0000 
     32 CA         18.4910    7.9500   15.8120 C.3       6 GLP5        0.0000 
     33 CA         15.4500    7.6685   20.0170 C.3       3 GLC5        0.0000 
     34 CA         14.4110    8.7260   18.6160 C.3       9 GLL5        0.0000 
     35 CA         16.4890    6.6110   21.4180 C.3       6 GLP5        0.0000 
     36 O          16.7585   10.6365   16.9265 O.2       1 ALC1        0.0000 
     37 O          16.5710    9.6630   17.9920 O.2       7 ALL1        0.0000 
     38 O          16.9460   11.6100   15.8610 O.2       4 ALP1        0.0000 
     39 CA         18.5275    9.0865   17.5505 C.3       3 GLC5        0.0000 
     40 CA         18.5640   10.2230   19.2890 C.3       9 GLL5        0.0000 
     41 CA         17.8680    8.2860   20.9370 C.3       3 GLC5        0.0000 
     42 CA         19.2470    9.9610   20.4560 C.3       9 GLL5        0.0000 
     43 CA         17.9705   10.0820   22.0700 C.3       3 GLC5        0.0000 
     44 CA         16.6940   10.2030   23.6840 C.3       6 GLP5        0.0000 
     45 CA         23.6770   10.7195   18.1160 C.3       3 GLC5        0.0000 
     46 CA         22.7850   11.2550   19.7710 C.3       9 GLL5        0.0000 
     47 CA         24.5690   10.1840   16.4610 C.3       6 GLP5        0.0000 
     48 CA         20.2710   13.5585   20.5225 C.3       3 GLC5        0.0000 
     49 CA         22.2630   13.5090   20.0220 C.3       9 GLL5        0.0000 
     50 CA         18.2790   13.6080   21.0230 C.3       6 GLP5        0.0000 
     51 O          24.8155   15.3130   20.6240 O.2       1 ALC1        0.0000 
     52 O          23.9200   15.3340   19.5840 O.2       7 ALL1        0.0000 
     53 O          25.7110   15.2920   21.6640 O.2       4 ALP1        0.0000 
     54 CA         24.4835   18.5650   19.5610 C.3       3 GLC5        0.0000 
     55 CA         24.2840   16.4960   18.7780 C.3       9 GLL5        0.0000 
     56 CA         24.6830   20.6340   20.3440 C.3       6 GLP5        0.0000 
     57 CA         24.5280   11.5390   17.9600 C.3       3 GLC5        0.0000 
     58 CA         24.4870   12.8940   19.4590 C.3       9 GLL5        0.0000 
     59 CA         26.4500   12.1800   19.1460 C.3       3 GLC5        0.0000 
     60 CA         28.4130   11.4660   18.8330 C.3       6 GLP5        0.0000 
     61 N          16.5940   10.8595   21.1570 N.am      2 SEC2        0.0000 
     62 N          16.4480    9.7480   20.2870 N.am      8 SEL2        0.0000 
     63 N          16.7400   11.9710   22.0270 N.am      5 SEP2        0.0000 
     64 CA          9.6320    8.5390   16.7525 C.3       3 GLC5        0.0000 
     65 CA         11.5170    7.5620   16.4330 C.3       9 GLL5        0.0000 
     66 CA          7.7470    9.5160   17.0720 C.3       6 GLP5        0.0000 
     67 CA         10.1535    6.4715   17.3850 C.3       3 GLC5        0.0000 
     68 CA         10.1875    6.8220   15.0455 C.3       3 GLC5        0.0000 
     69 CA          8.8580    6.0820   13.6580 C.3       6 GLP5        0.0000 
     70 CA          6.5345    7.3205   25.4087 C.3       3 GLC5        0.0000 
     71 CA          6.3780    7.6720   27.3890 C.3       6 GLP5        0.0000 
     72 CA          8.9804    8.2610   23.8189 C.3       3 GLC5        0.0000 
     73 CA          8.4740    7.7180   21.8660 C.3       9 GLL5        0.0000 
     74 CA         10.2270    8.6530   25.2450 C.3       6 GLP5        0.0000 
     75 CA          6.7851    7.2178   20.7858 C.3       3 GLC5        0.0000 
     76 CA          7.4130    8.3860   22.5000 C.3       9 GLL5        0.0000 
     77 CA          8.8714    6.5466   19.9168 C.3       3 GLC5        0.0000 
     78 CA          8.5903   11.7050   19.9830 C.3       3 GLC5        0.0000 
     79 CA          9.1360    9.7250   20.6710 C.3       9 GLL5        0.0000 
     80 CA          7.5910   13.3810   19.7280 C.3       6 GLP5        0.0000 
     81 CA          8.6952    9.6056   18.6972 C.3       3 GLC5        0.0000 
     82 CA         10.0430   10.3330   19.8050 C.3       9 GLL5        0.0000 
     83 CA         15.0478    7.7805   14.7512 C.3       3 GLC5        0.0000 
     84 CA         13.7850    8.5730   15.9640 C.3       9 GLL5        0.0000 
     85 CA         15.7040    6.7270   13.3510 C.3       6 GLP5        0.0000 
     86 CA         14.4607    6.9815   16.7757 C.3       3 GLC5        0.0000 
     87 CA         14.5300    5.1290   17.4000 C.3       6 GLP5        0.0000 
     88 CA         16.4300    7.8040   17.5240 C.3       3 GLC5        0.0000 
     89 CA         17.9860    6.6490   16.9000 C.3       6 GLP5        0.0000 
     90 CA         14.7020    7.0440   17.7740 C.3       3 GLC5        0.0000 
     91 CA         15.3370    9.1920   17.6800 C.3       9 GLL5        0.0000 
     92 CA         18.5922   12.0655   19.8932 C.3       3 GLC5        0.0000 
     93 CA         19.3248   11.2455   16.3197 C.3       3 GLC5        0.0000 
     94 CA         19.2470   10.8230   18.2380 C.3       9 GLL5        0.0000 
     95 CA         18.7270   11.5030   14.3330 C.3       6 GLP5        0.0000 
     96 CA         20.0983    9.4365   17.1728 C.3       3 GLC5        0.0000 
     97 CA         20.2740    7.8850   16.0390 C.3       6 GLP5        0.0000 
     98 CA         19.6092   12.3140   19.9945 C.3       3 GLC5        0.0000 
     99 CA         20.5980   11.1530   18.3750 C.3       9 GLL5        0.0000 
    100 CA         19.0987   11.8653   20.7703 C.3       3 GLC5        0.0000 
    101 CA         20.5900   10.2840   20.5790 C.3       9 GLL5        0.0000 
    102 CA         22.9046    9.3081   19.8152 C.3       3 GLC5        0.0000 
    103 CA         21.2810   10.8870   19.5570 C.3       9 GLL5        0.0000 
    104 CA         23.9490    7.6960   19.7110 C.3       6 GLP5        0.0000 
    105 CA         23.1435   14.8373   21.6827 C.3       3 GLC5        0.0000 
    106 CA         23.8990   15.4730   23.6500 C.3       6 GLP5        0.0000 
    107 CA         11.9764    9.0154   14.9884 C.3       3 GLC5        0.0000 
    108 CA         12.8640    8.1260   16.9010 C.3       9 GLL5        0.0000 
    109 CA         11.5320   10.0750   13.5440 C.3       6 GLP5        0.0000 
    110 CA         13.3987    6.4980   17.2015 C.3       3 GLC5        0.0000 
@<TRIPOS>BOND
@<TRIPOS>SUBSTRUCTURE
     1 ALC1       25 GROUP        1 X    ALC  0     ROOT ALC X 1
     2 SEC2       11 GROUP        1 X    SEC  0     **** SEC X 2
     3 GLC5        1 GROUP        1 X    GLC  0     **** GLC X 6
     4 ALP1       27 GROUP        1 Y    ALP  0     ROOT ALP Y 8
     5 SEP2       13 GROUP        1 Y    SEP  0     **** SEP Y 9
     6 GLP5        3 GROUP        1 Y    GLP  0     **** GLP Y 13
     7 ALL1       26 GROUP        1 Z    ALL  0     ROOT ALL Z 15
     8 SEL2       12 GROUP        1 Z    SEL  0     **** SEL Z 16
     9 GLL5        2 GROUP        1 Z    GLL  0     **** GLL Z 20
@<TRIPOS>SET

