#    Name: 3gvu_STI_1_ligand
#    Modification time : Tue Mar 25 13:01:33 2014

@<TRIPOS>MOLECULE
3gvu_STI_1_ligand
   69    73     1     0     0
SMALL
NO_CHARGES


@<TRIPOS>ATOM
      1 C1          6.5740    7.6540   23.3390 C.ar      1 STI1001     0.0000 
      2 C6          7.4130    8.3860   22.5000 C.ar      1 STI1001     0.0000 
      3 C5          8.4740    7.7180   21.8660 C.ar      1 STI1001     0.0000 
      4 C4          8.6330    6.3510   22.1020 C.ar      1 STI1001     0.0000 
      5 N3          7.8150    5.6800   22.9090 N.ar      1 STI1001     0.0000 
      6 C2          6.8080    6.2840   23.5180 C.ar      1 STI1001     0.0000 
      7 C7          9.3520    8.3900   21.0090 C.ar      1 STI1001     0.0000 
      8 C12         9.1360    9.7250   20.6710 C.ar      1 STI1001     0.0000 
      9 C11        10.0430   10.3330   19.8050 C.ar      1 STI1001     0.0000 
     10 N10        11.0820    9.6760   19.3270 N.ar      1 STI1001     0.0000 
     11 C9         11.2910    8.4030   19.6710 C.ar      1 STI1001     0.0000 
     12 N8         10.4260    7.7590   20.4800 N.ar      1 STI1001     0.0000 
     13 N13        12.3370    7.7430   19.1900 N.pl3     1 STI1001     0.0000 
     14 C14        13.1720    8.2180   18.2450 C.ar      1 STI1001     0.0000 
     15 C19        12.8640    8.1260   16.9010 C.ar      1 STI1001     0.0000 
     16 C18        13.7850    8.5730   15.9640 C.ar      1 STI1001     0.0000 
     17 C17        14.9980    9.0950   16.3390 C.ar      1 STI1001     0.0000 
     18 C16        15.3370    9.1920   17.6800 C.ar      1 STI1001     0.0000 
     19 C15        14.4110    8.7260   18.6160 C.ar      1 STI1001     0.0000 
     20 N21        16.5710    9.6630   17.9920 N.am      1 STI1001     0.0000 
     21 C22        17.0770    9.8360   19.2270 C.2       1 STI1001     0.0000 
     22 C23        18.5640   10.2230   19.2890 C.ar      1 STI1001     0.0000 
     23 C25        19.2470   10.8230   18.2380 C.ar      1 STI1001     0.0000 
     24 C26        20.5980   11.1530   18.3750 C.ar      1 STI1001     0.0000 
     25 C27        21.2810   10.8870   19.5570 C.ar      1 STI1001     0.0000 
     26 C28        20.5900   10.2840   20.5790 C.ar      1 STI1001     0.0000 
     27 C29        19.2470    9.9610   20.4560 C.ar      1 STI1001     0.0000 
     28 C46        22.7850   11.2550   19.7710 C.3       1 STI1001     0.0000 
     29 N48        23.0820   12.6190   19.2840 N.3       1 STI1001     0.0000 
     30 C53        22.2630   13.5090   20.0220 C.3       1 STI1001     0.0000 
     31 C52        22.5130   14.8940   19.4090 C.3       1 STI1001     0.0000 
     32 N51        23.9200   15.3340   19.5840 N.4       1 STI1001     0.0000 
     33 C54        24.2840   16.4960   18.7780 C.3       1 STI1001     0.0000 
     34 C50        24.7180   14.3030   18.8430 C.3       1 STI1001     0.0000 
     35 C49        24.4870   12.8940   19.4590 C.3       1 STI1001     0.0000 
     36 O29        16.4480    9.7480   20.2870 O.2       1 STI1001     0.0000 
     37 C20        11.5170    7.5620   16.4330 C.3       1 STI1001     0.0000 
     38 H           5.7961    8.1085   23.8196 H         1 STI1001     0.0000 
     39 H           7.2651    9.3779   22.3476 H         1 STI1001     0.0000 
     40 H           9.4273    5.8655   21.6167 H         1 STI1001     0.0000 
     41 H           6.1581    5.7623   24.1486 H         1 STI1001     0.0000 
     42 H           8.3454   10.2365   21.0428 H         1 STI1001     0.0000 
     43 H           9.8671   11.3352   19.5475 H         1 STI1001     0.0000 
     44 H          12.5397    6.7583   19.5766 H         1 STI1001     0.0000 
     45 H          13.5435    8.5080   14.9513 H         1 STI1001     0.0000 
     46 H          15.6684    9.4201   15.6205 H         1 STI1001     0.0000 
     47 H          14.6612    8.7619   19.6285 H         1 STI1001     0.0000 
     48 H          17.2136    9.9265   17.1551 H         1 STI1001     0.0000 
     49 H          18.7598   11.0263   17.3551 H         1 STI1001     0.0000 
     50 H          21.0933   11.6003   17.5864 H         1 STI1001     0.0000 
     51 H          21.0816   10.0612   21.4713 H         1 STI1001     0.0000 
     52 H          18.7556    9.5177   21.2534 H         1 STI1001     0.0000 
     53 H          23.3855   10.5112   19.2402 H         1 STI1001     0.0000 
     54 H          22.9974   11.1669   20.8400 H         1 STI1001     0.0000 
     55 H          22.5360   13.5562   21.0651 H         1 STI1001     0.0000 
     56 H          21.2116   13.2879   19.9189 H         1 STI1001     0.0000 
     57 H          21.8287   15.6092   19.8840 H         1 STI1001     0.0000 
     58 H          22.2582   14.8492   18.3420 H         1 STI1001     0.0000 
     59 H          24.2349   15.3843   20.5443 H         1 STI1001     0.0000 
     60 H          25.7796   14.5299   18.9029 H         1 STI1001     0.0000 
     61 H          24.4184   14.2702   17.7984 H         1 STI1001     0.0000 
     62 H          25.1080   12.1983   18.9240 H         1 STI1001     0.0000 
     63 H          24.7667   12.9415   20.4960 H         1 STI1001     0.0000 
     64 H          25.2380   16.7611   18.9181 H         1 STI1001     0.0000 
     65 H          24.1691   16.3205   17.8002 H         1 STI1001     0.0000 
     66 H          23.7226   17.2930   19.0007 H         1 STI1001     0.0000 
     67 H          11.4413    7.5604   15.4359 H         1 STI1001     0.0000 
     68 H          11.3827    6.6194   16.7387 H         1 STI1001     0.0000 
     69 H          10.7483    8.0965   16.7844 H         1 STI1001     0.0000 
@<TRIPOS>BOND
     1    2    1 ar   
     2    6    1 ar   
     3   38    1 1    
     4    3    2 ar   
     5   39    2 1    
     6    4    3 ar   
     7    7    3 1    
     8    5    4 ar   
     9   40    4 1    
    10    6    5 ar   
    11   41    6 1    
    12    8    7 ar   
    13   12    7 ar   
    14    9    8 ar   
    15   42    8 1    
    16   10    9 ar   
    17   43    9 1    
    18   11   10 ar   
    19   12   11 ar   
    20   13   11 1    
    21   14   13 1    
    22   44   13 1    
    23   15   14 ar   
    24   19   14 ar   
    25   16   15 ar   
    26   37   15 1    
    27   17   16 ar   
    28   45   16 1    
    29   18   17 ar   
    30   46   17 1    
    31   19   18 ar   
    32   20   18 1    
    33   47   19 1    
    34   21   20 am   
    35   48   20 1    
    36   22   21 1    
    37   36   21 2    
    38   23   22 ar   
    39   27   22 ar   
    40   24   23 ar   
    41   49   23 1    
    42   25   24 ar   
    43   50   24 1    
    44   26   25 ar   
    45   28   25 1    
    46   27   26 ar   
    47   51   26 1    
    48   52   27 1    
    49   29   28 1    
    50   53   28 1    
    51   54   28 1    
    52   30   29 1    
    53   35   29 1    
    54   31   30 1    
    55   55   30 1    
    56   56   30 1    
    57   32   31 1    
    58   57   31 1    
    59   58   31 1    
    60   33   32 1    
    61   34   32 1    
    62   59   32 1    
    63   64   33 1    
    64   65   33 1    
    65   66   33 1    
    66   35   34 1    
    67   60   34 1    
    68   61   34 1    
    69   62   35 1    
    70   63   35 1    
    71   67   37 1    
    72   68   37 1    
    73   69   37 1    
@<TRIPOS>SUBSTRUCTURE
     1 STI1001     1 GROUP   
@<TRIPOS>SET

