#    Name: 3i0r_RT3_1_INTS_M
#    Modification time : Tue Mar 25 15:26:21 2014

@<TRIPOS>MOLECULE
3i0r_RT3_1_INTS_M
   75     0     9     0     0
SMALL
NO_CHARGES


@<TRIPOS>ATOM
      1 N           9.2645    5.4395   13.8145 N.am      2 SEC2        0.0000 
      2 N           8.2530    4.7270   14.0780 N.am      8 SEL2        0.0000 
      3 N          10.2760    6.1520   13.5510 N.am      5 SEP2        0.0000 
      4 O           6.8070    5.0890   11.2485 O.2       1 ALC1        0.0000 
      5 O           6.5360    4.3900   12.3100 O.2       7 ALL1        0.0000 
      6 O           7.0780    5.7880   10.1870 O.2       4 ALP1        0.0000 
      7 CA          6.0440    5.7495   16.5445 C.3       3 GLC5        0.0000 
      8 CA          6.4210    7.1350   15.0630 C.3       9 GLL5        0.0000 
      9 CA          5.6670    4.3640   18.0260 C.3       6 GLP5        0.0000 
     10 CA          7.2595    8.2325   18.0145 C.3       3 GLC5        0.0000 
     11 CA          5.9710    9.2100   16.7590 C.3       9 GLL5        0.0000 
     12 CA          8.5480    7.2550   19.2700 C.3       6 GLP5        0.0000 
     13 CA          5.4655   10.6290   18.3560 C.3       3 GLC5        0.0000 
     14 CA          4.9600   12.0480   19.9530 C.3       6 GLP5        0.0000 
     15 CA          3.9205    9.2350   17.1885 C.3       3 GLC5        0.0000 
     16 CA          1.8700    9.2600   17.6180 C.3       6 GLP5        0.0000 
     17 CA          7.4555    9.6550   11.0800 C.3       3 GLC5        0.0000 
     18 CA          6.3690    8.6770   12.6920 C.3       9 GLL5        0.0000 
     19 CA          8.5420   10.6330    9.4680 C.3       6 GLP5        0.0000 
     20 O           4.5320   10.4855   14.9050 O.2       1 ALC1        0.0000 
     21 O           5.9700   10.6740   13.9580 O.2       7 ALL1        0.0000 
     22 O           3.0940   10.2970   15.8520 O.2       4 ALP1        0.0000 
     23 N           6.7640   11.9015   11.1025 N.am      2 SEC2        0.0000 
     24 N           5.9060   12.1290   12.2340 N.am      8 SEL2        0.0000 
     25 N           7.6220   11.6740    9.9710 N.am      5 SEP2        0.0000 
     26 CA          7.2615   12.7810   11.5330 C.3       3 GLC5        0.0000 
     27 CA          8.0190   11.7290   13.1630 C.3       9 GLL5        0.0000 
     28 CA          6.5040   13.8330    9.9030 C.3       6 GLP5        0.0000 
     29 CA          8.5410    9.9885   14.0880 C.3       3 GLC5        0.0000 
     30 CA          9.0630    8.2480   15.0130 C.3       6 GLP5        0.0000 
     31 CA          8.2635   15.1470   14.3985 C.3       3 GLC5        0.0000 
     32 CA          8.3700   13.1350   14.1740 C.3       9 GLL5        0.0000 
     33 CA          8.1570   17.1590   14.6230 C.3       6 GLP5        0.0000 
     34 CA         13.6760   14.8710   18.7150 C.3       3 GLC5        0.0000 
     35 CA         11.9320   14.6460   18.8350 C.3       9 GLL5        0.0000 
     36 CA         15.4200   15.0960   18.5950 C.3       6 GLP5        0.0000 
     37 CA         12.7435   15.1725   21.0015 C.3       3 GLC5        0.0000 
     38 CA         11.0550   14.5570   21.1910 C.3       9 GLL5        0.0000 
     39 CA         14.4320   15.7880   20.8120 C.3       6 GLP5        0.0000 
     40 CA         12.2885   13.2630   21.4660 C.3       3 GLC5        0.0000 
     41 CA         13.5220   11.9690   21.7410 C.3       6 GLP5        0.0000 
     42 CA         10.1945   15.2725   22.6030 C.3       3 GLC5        0.0000 
     43 CA          9.3340   15.9880   24.0150 C.3       6 GLP5        0.0000 
     44 CA          8.0485    6.2005   12.2955 C.3       3 GLC5        0.0000 
     45 CA          6.6060    6.5250   13.8310 C.3       9 GLL5        0.0000 
     46 CA          9.5030    5.4900   11.3440 C.3       6 GLP5        0.0000 
     47 CA          7.7883    7.5390   14.7300 C.3       3 GLC5        0.0000 
     48 CA          4.7547    7.4755   14.3145 C.3       3 GLC5        0.0000 
     49 CA          2.9960    8.1210   14.1820 C.3       6 GLP5        0.0000 
     50 CA          7.5760    8.5512   15.4812 C.3       3 GLC5        0.0000 
     51 CA          6.2070    8.4990   15.1400 C.3       9 GLL5        0.0000 
     52 CA          4.5425    8.4878   15.0658 C.3       3 GLC5        0.0000 
     53 CA          7.6949    8.4527   14.1521 C.3       3 GLC5        0.0000 
     54 CA          4.6614    8.3893   13.7366 C.3       3 GLC5        0.0000 
     55 CA          6.1780    9.3280   13.9050 C.3       9 GLL5        0.0000 
     56 CA          9.2988   12.2170   12.0768 C.3       3 GLC5        0.0000 
     57 CA         10.4030   12.0020   10.4850 C.3       6 GLP5        0.0000 
     58 CA         12.5320   12.6965   18.2815 C.3       3 GLC5        0.0000 
     59 CA         10.6450   13.6160   17.0300 C.3       9 GLL5        0.0000 
     60 CA         13.8300   11.4070   19.3070 C.3       6 GLP5        0.0000 
     61 CA         11.2185   16.1685   16.5168 C.3       3 GLC5        0.0000 
     62 CA         11.8230   14.3560   17.4820 C.3       9 GLL5        0.0000 
     63 CA         10.1000   17.7800   16.0630 C.3       6 GLP5        0.0000 
     64 CA         14.0075   14.2704   14.4539 C.3       3 GLC5        0.0000 
     65 CA         12.8510   14.7580   16.4590 C.3       9 GLL5        0.0000 
     66 CA         15.5350   14.3140   13.1690 C.3       6 GLP5        0.0000 
     67 CA         13.9923   14.6150   17.3794 C.3       3 GLC5        0.0000 
     68 CA         12.7920   13.7110   15.3570 C.3       9 GLL5        0.0000 
     69 CA         12.6337   12.9273   19.2942 C.3       3 GLC5        0.0000 
     70 CA         10.9430   14.2490   19.7280 C.3       9 GLL5        0.0000 
     71 CA          8.4666   13.8501   19.8456 C.3       3 GLC5        0.0000 
     72 CA          6.5810   13.8760   20.5140 C.3       6 GLP5        0.0000 
     73 CA          9.4871   15.1875   17.8956 C.3       3 GLC5        0.0000 
     74 CA          9.8360   13.5550   19.2960 C.3       9 GLL5        0.0000 
     75 CA          8.2550   16.4050   16.9530 C.3       6 GLP5        0.0000 
@<TRIPOS>BOND
@<TRIPOS>SUBSTRUCTURE
     1 ALC1        4 GROUP        1 X    ALC  0     ROOT ALC X 1
     2 SEC2        1 GROUP        1 X    SEC  0     **** SEC X 2
     3 GLC5        7 GROUP        1 X    GLC  0     **** GLC X 6
     4 ALP1        6 GROUP        1 Y    ALP  0     ROOT ALP Y 8
     5 SEP2        3 GROUP        1 Y    SEP  0     **** SEP Y 9
     6 GLP5        9 GROUP        1 Y    GLP  0     **** GLP Y 13
     7 ALL1        5 GROUP        1 Z    ALL  0     ROOT ALL Z 15
     8 SEL2        2 GROUP        1 Z    SEL  0     **** SEL Z 16
     9 GLL5        8 GROUP        1 Z    GLL  0     **** GLL Z 20
@<TRIPOS>SET

