#    Name: 3i0r_RT3_1_ligand
#    Modification time : Tue Mar 25 15:26:21 2014

@<TRIPOS>MOLECULE
3i0r_RT3_1_ligand
   49    51     1     0     0
SMALL
NO_CHARGES


@<TRIPOS>ATOM
      1 O30         8.2530    4.7270   14.0780 O.2       1 RT3601      0.0000 
      2 S23         6.8620    4.9410   13.7840 S.o2      1 RT3601      0.0000 
      3 O26         6.0660    4.2760   14.7800 O.2       1 RT3601      0.0000 
      4 N29         6.5360    4.3900   12.3100 N.pl3     1 RT3601      0.0000 
      5 C19         6.6060    6.5250   13.8310 C.ar      1 RT3601      0.0000 
      6 C20         6.4210    7.1350   15.0630 C.ar      1 RT3601      0.0000 
      7 C21         6.2070    8.4990   15.1400 C.ar      1 RT3601      0.0000 
      8 CL22        5.9710    9.2100   16.7590 Cl        1 RT3601      0.0000 
      9 C18         6.5820    7.2970   12.6630 C.ar      1 RT3601      0.0000 
     10 C17         6.3690    8.6770   12.6920 C.ar      1 RT3601      0.0000 
     11 C16         6.1780    9.3280   13.9050 C.ar      1 RT3601      0.0000 
     12 N15         5.9700   10.6740   13.9580 N.am      1 RT3601      0.0000 
     13 C14         6.5300   11.5190   13.0840 C.2       1 RT3601      0.0000 
     14 O29         5.9060   12.1290   12.2340 O.2       1 RT3601      0.0000 
     15 C13         8.0190   11.7290   13.1630 C.3       1 RT3601      0.0000 
     16 S12         8.3700   13.1350   14.1740 S.3       1 RT3601      0.0000 
     17 C11         9.3080   12.6630   15.4720 C.2       1 RT3601      0.0000 
     18 O28         8.8640   11.8220   16.2320 O.2       1 RT3601      0.0000 
     19 N2         10.4570   13.2820   15.6930 N.am      1 RT3601      0.0000 
     20 C1         11.4260   13.6800   14.6800 C.3       1 RT3601      0.0000 
     21 C3         10.6450   13.6160   17.0300 C.ar      1 RT3601      0.0000 
     22 C7          9.6870   13.2440   17.9570 C.ar      1 RT3601      0.0000 
     23 C4         11.8230   14.3560   17.4820 C.ar      1 RT3601      0.0000 
     24 C5         12.8510   14.7580   16.4590 C.3       1 RT3601      0.0000 
     25 C6         12.7920   13.7110   15.3570 C.3       1 RT3601      0.0000 
     26 C10        11.9320   14.6460   18.8350 C.ar      1 RT3601      0.0000 
     27 C9         10.9430   14.2490   19.7280 C.ar      1 RT3601      0.0000 
     28 C27        11.0550   14.5570   21.1910 C.3       1 RT3601      0.0000 
     29 C8          9.8360   13.5550   19.2960 C.ar      1 RT3601      0.0000 
     30 H           7.0152    4.8397   11.5562 H         1 RT3601      0.0000 
     31 H           5.8784    3.6385   12.2566 H         1 RT3601      0.0000 
     32 H           6.4435    6.5671   15.9243 H         1 RT3601      0.0000 
     33 H           6.7274    6.8271   11.7468 H         1 RT3601      0.0000 
     34 H           6.3540    9.2097   11.8126 H         1 RT3601      0.0000 
     35 H           5.3428   11.0535   14.7199 H         1 RT3601      0.0000 
     36 H           8.4639   11.9835   12.2282 H         1 RT3601      0.0000 
     37 H           8.5355   10.9381   13.6572 H         1 RT3601      0.0000 
     38 H          11.2098   14.6678   14.2960 H         1 RT3601      0.0000 
     39 H          11.4607   12.9667   13.8676 H         1 RT3601      0.0000 
     40 H           8.8462   12.7249   17.6425 H         1 RT3601      0.0000 
     41 H          13.8301   14.7584   16.8998 H         1 RT3601      0.0000 
     42 H          12.6086   15.7210   16.0506 H         1 RT3601      0.0000 
     43 H          13.5582   13.9312   14.6083 H         1 RT3601      0.0000 
     44 H          13.0034   12.7261   15.7830 H         1 RT3601      0.0000 
     45 H          12.7567   15.1625   19.1834 H         1 RT3601      0.0000 
     46 H           9.1111   13.2636   19.9732 H         1 RT3601      0.0000 
     47 H          11.8717   14.1456   21.5957 H         1 RT3601      0.0000 
     48 H          11.1079   15.5411   21.3604 H         1 RT3601      0.0000 
     49 H          10.2686   14.2131   21.7042 H         1 RT3601      0.0000 
@<TRIPOS>BOND
     1    2    1 2    
     2    3    2 2    
     3    4    2 1    
     4    5    2 1    
     5   30    4 1    
     6   31    4 1    
     7    6    5 ar   
     8    9    5 ar   
     9    7    6 ar   
    10   32    6 1    
    11    8    7 1    
    12   11    7 ar   
    13   10    9 ar   
    14   33    9 1    
    15   11   10 ar   
    16   34   10 1    
    17   12   11 1    
    18   13   12 am   
    19   35   12 1    
    20   14   13 2    
    21   15   13 1    
    22   16   15 1    
    23   36   15 1    
    24   37   15 1    
    25   17   16 1    
    26   18   17 2    
    27   19   17 am   
    28   20   19 1    
    29   21   19 1    
    30   25   20 1    
    31   38   20 1    
    32   39   20 1    
    33   22   21 ar   
    34   23   21 ar   
    35   29   22 ar   
    36   40   22 1    
    37   24   23 1    
    38   26   23 ar   
    39   25   24 1    
    40   41   24 1    
    41   42   24 1    
    42   43   25 1    
    43   44   25 1    
    44   27   26 ar   
    45   45   26 1    
    46   28   27 1    
    47   29   27 ar   
    48   47   28 1    
    49   48   28 1    
    50   49   28 1    
    51   46   29 1    
@<TRIPOS>SUBSTRUCTURE
     1 RT3601      1 GROUP   
@<TRIPOS>SET

