#    Name: 3mzi_FMN_1_INTS_M
#    Modification time : Tue Mar 25 00:20:56 2014

@<TRIPOS>MOLECULE
3mzi_FMN_1_INTS_M
   46     0     9     0     0
SMALL
NO_CHARGES


@<TRIPOS>ATOM
      1 N         -34.3345   50.6885 -113.2220 N.am      2 SEC2        0.0000 
      2 N         -34.2830   51.9900 -113.3530 N.am      8 SEL2        0.0000 
      3 N         -34.3860   49.3870 -113.0910 N.am      5 SEP2        0.0000 
      4 N         -31.2795   53.2940 -109.8440 N.am      2 SEC2        0.0000 
      5 N         -30.6080   52.4680 -110.7230 N.am      8 SEL2        0.0000 
      6 N         -31.9510   54.1200 -108.9650 N.am      5 SEP2        0.0000 
      7 CA        -23.7580   52.5265 -113.2395 C.3       3 GLC5        0.0000 
      8 CA        -24.4690   51.2650 -114.5610 C.3       9 GLL5        0.0000 
      9 CA        -23.0470   53.7880 -111.9180 C.3       6 GLP5        0.0000 
     10 CA        -22.5345   51.6775 -114.7120 C.3       3 GLC5        0.0000 
     11 CA        -20.6000   52.0900 -114.8630 C.3       6 GLP5        0.0000 
     12 CA        -25.7120   52.1085 -117.9450 C.3       3 GLC5        0.0000 
     13 CA        -25.6560   50.6860 -117.1570 C.3       9 GLL5        0.0000 
     14 CA        -25.7680   53.5310 -118.7330 C.3       6 GLP5        0.0000 
     15 CA        -29.0240   49.7645 -113.7705 C.3       3 GLC5        0.0000 
     16 CA        -28.7260   51.3340 -115.0620 C.3       9 GLL5        0.0000 
     17 CA        -29.3220   48.1950 -112.4790 C.3       6 GLP5        0.0000 
     18 CA        -29.1475   52.6400 -116.5035 C.3       3 GLC5        0.0000 
     19 CA        -30.7060   51.0610 -116.5770 C.3       9 GLL5        0.0000 
     20 CA        -27.5890   54.2190 -116.4300 C.3       6 GLP5        0.0000 
     21 CA        -31.8885   52.6440 -116.5290 C.3       3 GLC5        0.0000 
     22 CA        -33.0710   54.2270 -116.4810 C.3       6 GLP5        0.0000 
     23 N         -30.8505   51.2700 -119.2765 N.am      2 SEC2        0.0000 
     24 N         -32.3480   50.9330 -118.5670 N.am      8 SEL2        0.0000 
     25 N         -29.3530   51.6070 -119.9860 N.am      5 SEP2        0.0000 
     26 O         -33.0040   52.2940 -118.1010 O.2       1 ALC1        0.0000 
     27 O         -32.3480   50.9330 -118.5670 O.2       7 ALL1        0.0000 
     28 O         -33.6600   53.6550 -117.6350 O.2       4 ALP1        0.0000 
     29 N         -34.4325   49.3950 -114.5625 N.am      2 SEC2        0.0000 
     30 N         -34.4790   49.4030 -116.0340 N.am      8 SEL2        0.0000 
     31 N         -37.4865   54.3645 -117.6740 N.am      2 SEC2        0.0000 
     32 N         -37.8540   53.0540 -117.3670 N.am      8 SEL2        0.0000 
     33 N         -37.1190   55.6750 -117.9810 N.am      5 SEP2        0.0000 
     34 CA        -27.5292   52.9078 -115.0867 C.3       3 GLC5        0.0000 
     35 CA        -28.1590   51.6070 -113.8250 C.3       9 GLL5        0.0000 
     36 CA        -28.0868   50.2287 -112.5143 C.3       3 GLC5        0.0000 
     37 CA        -28.7040   48.8610 -111.2850 C.3       6 GLP5        0.0000 
     38 CA        -25.6758   53.2460 -113.5832 C.3       3 GLC5        0.0000 
     39 CA        -26.7800   51.5860 -113.6620 C.3       9 GLL5        0.0000 
     40 CA        -24.9820   55.0550 -112.9640 C.3       6 GLP5        0.0000 
     41 CA        -26.9162   52.6850 -115.8970 C.3       3 GLC5        0.0000 
     42 CA        -25.9590   51.2880 -114.7430 C.3       9 GLL5        0.0000 
     43 CA        -27.9530   52.7022 -116.0163 C.3       3 GLC5        0.0000 
     44 CA        -27.9080   51.0370 -116.1430 C.3       9 GLL5        0.0000 
     45 CA        -33.6429   52.3121 -117.0503 C.3       3 GLC5        0.0000 
     46 CA        -32.6990   49.9430 -117.6270 C.3       9 GLL5        0.0000 
@<TRIPOS>BOND
@<TRIPOS>SUBSTRUCTURE
     1 ALC1       26 GROUP        1 X    ALC  0     ROOT ALC X 1
     2 SEC2        1 GROUP        1 X    SEC  0     **** SEC X 2
     3 GLC5        7 GROUP        1 X    GLC  0     **** GLC X 6
     4 ALP1       28 GROUP        1 Y    ALP  0     ROOT ALP Y 8
     5 SEP2        3 GROUP        1 Y    SEP  0     **** SEP Y 9
     6 GLP5        9 GROUP        1 Y    GLP  0     **** GLP Y 13
     7 ALL1       27 GROUP        1 Z    ALL  0     ROOT ALL Z 15
     8 SEL2        2 GROUP        1 Z    SEL  0     **** SEL Z 16
     9 GLL5        8 GROUP        1 Z    GLL  0     **** GLL Z 20
@<TRIPOS>SET

