#    Name: 3mzi_FMN_1_ligand
#    Modification time : Tue Mar 25 00:20:56 2014

@<TRIPOS>MOLECULE
3mzi_FMN_1_ligand
   50    52     1     0     0
SMALL
NO_CHARGES


@<TRIPOS>ATOM
      1 N1        -32.2560   51.6770 -114.2720 N.2       1 FMN154      0.0000 
      2 C2        -33.0610   51.9740 -113.1980 C.2       1 FMN154      0.0000 
      3 O2        -34.2830   51.9900 -113.3530 O.2       1 FMN154      0.0000 
      4 N3        -32.4970   52.2500 -111.9690 N.am      1 FMN154      0.0000 
      5 C4        -31.1280   52.2250 -111.8160 C.2       1 FMN154      0.0000 
      6 O4        -30.6080   52.4680 -110.7230 O.2       1 FMN154      0.0000 
      7 C4A       -30.3240   51.9230 -112.9050 C.2       1 FMN154      0.0000 
      8 N5        -28.9580   51.8980 -112.7490 N.2       1 FMN154      0.0000 
      9 C5A       -28.1590   51.6070 -113.8250 C.ar      1 FMN154      0.0000 
     10 C6        -26.7800   51.5860 -113.6620 C.ar      1 FMN154      0.0000 
     11 C7        -25.9590   51.2880 -114.7430 C.ar      1 FMN154      0.0000 
     12 C7M       -24.4690   51.2650 -114.5610 C.3       1 FMN154      0.0000 
     13 C8        -26.5280   51.0140 -115.9850 C.ar      1 FMN154      0.0000 
     14 C8M       -25.6560   50.6860 -117.1570 C.3       1 FMN154      0.0000 
     15 C9        -27.9080   51.0370 -116.1430 C.ar      1 FMN154      0.0000 
     16 C9A       -28.7260   51.3340 -115.0620 C.ar      1 FMN154      0.0000 
     17 N10       -30.0960   51.3450 -115.2240 N.pl3     1 FMN154      0.0000 
     18 C10       -30.8910   51.6490 -114.1380 C.2       1 FMN154      0.0000 
     19 C1'       -30.7060   51.0610 -116.5770 C.3       1 FMN154      0.0000 
     20 C2'       -31.5310   49.7780 -116.6540 C.3       1 FMN154      0.0000 
     21 O2'       -30.7010   48.7240 -117.0960 O.3       1 FMN154      0.0000 
     22 C3'       -32.6990   49.9430 -117.6270 C.3       1 FMN154      0.0000 
     23 O3'       -32.3480   50.9330 -118.5670 O.3       1 FMN154      0.0000 
     24 C4'       -33.9920   50.3760 -116.9370 C.3       1 FMN154      0.0000 
     25 O4'       -34.4790   49.4030 -116.0340 O.3       1 FMN154      0.0000 
     26 C5'       -35.0840   50.6350 -117.9570 C.3       1 FMN154      0.0000 
     27 O5'       -36.1130   51.2940 -117.2750 O.3       1 FMN154      0.0000 
     28 P         -37.3900   51.8050 -118.0730 P.3       1 FMN154      0.0000 
     29 O1P       -38.3300   50.6230 -118.0340 O.co2     1 FMN154      0.0000 
     30 O2P       -37.0570   52.1620 -119.5060 O.co2     1 FMN154      0.0000 
     31 O3P       -37.8540   53.0540 -117.3670 O.co2     1 FMN154      0.0000 
     32 H         -33.1029   52.4755 -111.1636 H         1 FMN154      0.0000 
     33 H         -26.3666   51.7905 -112.7432 H         1 FMN154      0.0000 
     34 H         -28.3233   50.8336 -117.0624 H         1 FMN154      0.0000 
     35 H         -29.8999   51.0078 -117.3360 H         1 FMN154      0.0000 
     36 H         -31.3509   51.9130 -116.8718 H         1 FMN154      0.0000 
     37 H         -31.9346   49.5784 -115.6743 H         1 FMN154      0.0000 
     38 H         -32.8727   48.9950 -118.1134 H         1 FMN154      0.0000 
     39 H         -33.8020   51.3194 -116.4243 H         1 FMN154      0.0000 
     40 H         -35.3969   49.6754 -118.3620 H         1 FMN154      0.0000 
     41 H         -34.6582   51.2371 -118.7563 H         1 FMN154      0.0000 
     42 H         -23.9942   51.0422 -115.4125 H         1 FMN154      0.0000 
     43 H         -24.1188   52.1496 -114.2529 H         1 FMN154      0.0000 
     44 H         -24.1882   50.5862 -113.8826 H         1 FMN154      0.0000 
     45 H         -25.0261   51.4324 -117.3716 H         1 FMN154      0.0000 
     46 H         -25.0998   49.8720 -116.9898 H         1 FMN154      0.0000 
     47 H         -26.1932   50.5095 -117.9818 H         1 FMN154      0.0000 
     48 H         -29.9883   49.1667 -117.6401 H         1 FMN154      0.0000 
     49 H         -32.7988   51.7659 -118.2460 H         1 FMN154      0.0000 
     50 H         -35.3339   49.7829 -115.6808 H         1 FMN154      0.0000 
@<TRIPOS>BOND
     1    2    1 1    
     2   18    1 2    
     3    3    2 2    
     4    4    2 am   
     5    5    4 am   
     6   32    4 1    
     7    6    5 2    
     8    7    5 1    
     9    8    7 2    
    10   18    7 1    
    11    9    8 1    
    12   10    9 ar   
    13   16    9 ar   
    14   11   10 ar   
    15   33   10 1    
    16   12   11 1    
    17   13   11 ar   
    18   42   12 1    
    19   43   12 1    
    20   44   12 1    
    21   14   13 1    
    22   15   13 ar   
    23   45   14 1    
    24   46   14 1    
    25   47   14 1    
    26   16   15 ar   
    27   34   15 1    
    28   17   16 1    
    29   18   17 1    
    30   19   17 1    
    31   20   19 1    
    32   35   19 1    
    33   36   19 1    
    34   21   20 1    
    35   22   20 1    
    36   37   20 1    
    37   48   21 1    
    38   23   22 1    
    39   24   22 1    
    40   38   22 1    
    41   49   23 1    
    42   25   24 1    
    43   26   24 1    
    44   39   24 1    
    45   50   25 1    
    46   27   26 1    
    47   40   26 1    
    48   41   26 1    
    49   28   27 1    
    50   29   28 ar   
    51   30   28 ar   
    52   31   28 ar   
@<TRIPOS>SUBSTRUCTURE
     1 FMN154      1 GROUP   
@<TRIPOS>SET

