#    Name: 2e5a_LAQ_1_INTS_M
#    Modification time : Tue Mar 25 10:37:07 2014

@<TRIPOS>MOLECULE
2e5a_LAQ_1_INTS_M
  109     0    12     0     0
SMALL
NO_CHARGES


@<TRIPOS>ATOM
      1 N          38.7795   22.6835    6.0270 N.am      2 SEC2        0.0000 
      2 N          38.8670   23.9390    6.6210 N.am     10 SEL2        0.0000 
      3 N          38.6920   21.4280    5.4330 N.am      6 SEP2        0.0000 
      4 NZ         36.9805   25.6325    4.5095 N.4       3 LYC4        0.0000 
      5 NZ         38.2780   25.9880    5.1190 N.4      11 LYL4        0.0000 
      6 NZ         35.8960   25.9160    2.7550 N.4       7 LYP4        0.0000 
      7 NZ         39.4345   26.8180    4.3495 N.4       3 LYC4        0.0000 
      8 NZ         40.5910   27.6480    3.5800 N.4       7 LYP4        0.0000 
      9 N          37.6915   26.2070    3.8070 N.am      2 SEC2        0.0000 
     10 N          38.2780   25.9880    5.1190 N.am     10 SEL2        0.0000 
     11 N          37.1050   26.4260    2.4950 N.am      6 SEP2        0.0000 
     12 N          36.9805   25.6325    4.5095 N.am      2 SEC2        0.0000 
     13 N          35.6830   25.2770    3.9000 N.am      6 SEP2        0.0000 
     14 CA         39.0330   26.3785    9.3190 C.3       4 GLC5        0.0000 
     15 CA         39.5100   28.3570    8.6740 C.3      12 GLL5        0.0000 
     16 CA         38.5560   24.4000    9.9640 C.3       8 GLP5        0.0000 
     17 CA         40.4170   30.4955    6.8840 C.3       4 GLC5        0.0000 
     18 CA         40.1700   29.7290    8.6980 C.3      12 GLL5        0.0000 
     19 CA         40.6640   31.2620    5.0700 C.3       8 GLP5        0.0000 
     20 CA         38.9665   31.2900    7.8185 C.3       4 GLC5        0.0000 
     21 CA         37.7630   32.8510    6.9390 C.3       8 GLP5        0.0000 
     22 CA         38.3810   30.7920   10.6605 C.3       4 GLC5        0.0000 
     23 CA         40.3060   30.2240   10.1290 C.3      12 GLL5        0.0000 
     24 CA         36.4560   31.3600   11.1920 C.3       8 GLP5        0.0000 
     25 CA         42.7310   29.9955   14.1575 C.3       4 GLC5        0.0000 
     26 CA         42.3180   31.1450   12.5350 C.3      12 GLL5        0.0000 
     27 CA         43.1440   28.8460   15.7800 C.3       8 GLP5        0.0000 
     28 CA         43.1980   29.8980   11.6460 C.3       4 GLC5        0.0000 
     29 CA         44.0780   28.6510   10.7570 C.3       8 GLP5        0.0000 
     30 CA         43.1650   34.0055   15.0190 C.3       4 GLC5        0.0000 
     31 CA         42.4720   32.5560   13.9770 C.3      12 GLL5        0.0000 
     32 CA         43.8580   35.4550   16.0610 C.3       8 GLP5        0.0000 
     33 CA         42.8080   30.7010   14.8785 C.3       4 GLC5        0.0000 
     34 CA         41.0005   31.3515   14.3220 C.3       4 GLC5        0.0000 
     35 CA         39.5290   30.1470   14.6670 C.3       8 GLP5        0.0000 
     36 CA         42.7510   35.2385   14.1755 C.3       4 GLC5        0.0000 
     37 CA         42.2220   33.9770   12.9670 C.3      12 GLL5        0.0000 
     38 CA         43.2800   36.5000   15.3840 C.3       8 GLP5        0.0000 
     39 CA         43.8635   35.3960   12.5690 C.3       4 GLC5        0.0000 
     40 CA         45.5050   36.8150   12.1710 C.3       8 GLP5        0.0000 
     41 CA         40.5795   34.7355   13.0420 C.3       4 GLC5        0.0000 
     42 CA         38.9370   35.4940   13.1170 C.3       8 GLP5        0.0000 
     43 CA         41.3155   34.5985    9.9010 C.3       4 GLC5        0.0000 
     44 CA         41.7530   33.5140   11.5820 C.3      12 GLL5        0.0000 
     45 CA         40.8780   35.6830    8.2200 C.3       8 GLP5        0.0000 
     46 N          40.3955   27.8980    4.9685 N.am      2 SEC2        0.0000 
     47 N          40.2000   28.1480    6.3570 N.am     10 SEL2        0.0000 
     48 N          40.5910   27.6480    3.5800 N.am      6 SEP2        0.0000 
     49 N          40.6345   26.4770    4.5040 N.am      2 SEC2        0.0000 
     50 N          40.6780   25.3060    5.4280 N.am     10 SEL2        0.0000 
     51 CA         42.6090   26.2665    7.2375 C.3       4 GLC5        0.0000 
     52 CA         41.7890   24.6480    6.0360 C.3      12 GLL5        0.0000 
     53 CA         43.4290   27.8850    8.4390 C.3       8 GLP5        0.0000 
     54 CA         47.2130   24.1990    4.8665 C.3       4 GLC5        0.0000 
     55 CA         45.1010   24.0380    4.4070 C.3      12 GLL5        0.0000 
     56 CA         49.3250   24.3600    5.3260 C.3       8 GLP5        0.0000 
     57 N          43.9985   22.8375    2.1180 N.am      2 SEC2        0.0000 
     58 N          44.8000   23.4970    3.1210 N.am     10 SEL2        0.0000 
     59 N          43.1970   22.1780    1.1150 N.am      6 SEP2        0.0000 
     60 CA         43.2905   26.9525    3.6770 C.3       4 GLC5        0.0000 
     61 CA         44.8050   25.5170    4.2710 C.3      12 GLL5        0.0000 
     62 CA         41.7760   28.3880    3.0830 C.3       8 GLP5        0.0000 
     63 N          47.0315   26.8935    8.4520 N.am      2 SEC2        0.0000 
     64 N          46.7250   27.0910    6.9780 N.am     10 SEL2        0.0000 
     65 N          47.3380   26.6960    9.9260 N.am      6 SEP2        0.0000 
     66 CA         48.1785   27.4430    6.0405 C.3       4 GLC5        0.0000 
     67 CA         46.3080   28.1800    6.3040 C.3      12 GLL5        0.0000 
     68 CA         50.0490   26.7060    5.7770 C.3       8 GLP5        0.0000 
     69 CA         45.4905   28.7690    7.9635 C.3       4 GLC5        0.0000 
     70 CA         46.4560   29.6510    6.4230 C.3      12 GLL5        0.0000 
     71 CA         44.5250   27.8870    9.5040 C.3       8 GLP5        0.0000 
     72 CA         45.6655   31.3765    6.9530 C.3       4 GLC5        0.0000 
     73 CA         44.8750   33.1020    7.4830 C.3       8 GLP5        0.0000 
     74 CA         48.0245   30.2965    5.8775 C.3       4 GLC5        0.0000 
     75 CA         49.5930   30.9420    5.3320 C.3       8 GLP5        0.0000 
     76 O          48.0500   29.6275    8.4835 O.2       1 ALC1        0.0000 
     77 O          47.1580   30.2170    7.4350 O.2       9 ALL1        0.0000 
     78 O          48.9420   29.0380    9.5320 O.2       5 ALP1        0.0000 
     79 N          45.0535   31.4365    5.9275 N.am      2 SEC2        0.0000 
     80 N          45.8610   30.4210    5.4830 N.am     10 SEL2        0.0000 
     81 N          44.2460   32.4520    6.3720 N.am      6 SEP2        0.0000 
     82 CA         43.4620   29.1500    3.7745 C.3       4 GLC5        0.0000 
     83 CA         45.1480   29.9120    4.4660 C.3      12 GLL5        0.0000 
     84 CA         44.2455   31.4960    3.7630 C.3       4 GLC5        0.0000 
     85 CA         43.3430   33.0800    3.0600 C.3       8 GLP5        0.0000 
     86 CA         45.0115   31.5070    5.9745 C.3       4 GLC5        0.0000 
     87 CA         46.8850   29.9705    3.8390 C.3       4 GLC5        0.0000 
     88 CA         48.6220   30.0290    3.2120 C.3       8 GLP5        0.0000 
     89 CA         43.6505   28.0420    4.1235 C.3       4 GLC5        0.0000 
     90 CA         45.5250   27.6960    5.1640 C.3      12 GLL5        0.0000 
     91 CA         46.2095   26.9835    3.3760 C.3       4 GLC5        0.0000 
     92 CA         46.8940   26.2710    1.5880 C.3       8 GLP5        0.0000 
     93 CA         41.6345   28.4640    8.5625 C.3       4 GLC5        0.0000 
     94 CA         42.3522   29.7825   10.4525 C.3       4 GLC5        0.0000 
     95 CA         40.6358   30.8843   13.3665 C.3       4 GLC5        0.0000 
     96 CA         41.1670   32.0980   11.5970 C.3      12 GLL5        0.0000 
     97 CA         39.8735   33.6020   12.1227 C.3       4 GLC5        0.0000 
     98 CA         38.2870   34.3980   12.6560 C.3       8 GLP5        0.0000 
     99 CA         42.9440   32.5367    9.9975 C.3       4 GLC5        0.0000 
    100 CA         44.4830   32.3910    8.7630 C.3       8 GLP5        0.0000 
    101 CA         42.8045   22.3203    3.9180 C.3       4 GLC5        0.0000 
    102 CA         42.8350   24.4190    4.9470 C.3      12 GLL5        0.0000 
    103 CA         42.1760   20.6350    2.6690 C.3       8 GLP5        0.0000 
    104 CA         45.7500   23.3810    6.4775 C.3       4 GLC5        0.0000 
    105 CA         44.0310   23.5920    5.3870 C.3      12 GLL5        0.0000 
    106 CA         46.9340   22.9470    8.0580 C.3       8 GLP5        0.0000 
    107 CA         45.9235   25.5242    2.9635 C.3       4 GLC5        0.0000 
    108 CA         44.6728   27.9115    7.0865 C.3       4 GLC5        0.0000 
    109 CA         47.2692   28.9835    4.4730 C.3       4 GLC5        0.0000 
@<TRIPOS>BOND
@<TRIPOS>SUBSTRUCTURE
     1 ALC1       76 GROUP        1 X    ALC  0     ROOT ALC X 1
     2 SEC2        1 GROUP        1 X    SEC  0     **** SEC X 2
     3 LYC4        4 GROUP        1 X    LYC  0     **** LYC X 4
     4 GLC5       14 GROUP        1 X    GLC  0     **** GLC X 6
     5 ALP1       78 GROUP        1 Y    ALP  0     ROOT ALP Y 8
     6 SEP2        3 GROUP        1 Y    SEP  0     **** SEP Y 9
     7 LYP4        6 GROUP        1 Y    LYP  0     **** LYP Y 11
     8 GLP5       16 GROUP        1 Y    GLP  0     **** GLP Y 13
     9 ALL1       77 GROUP        1 Z    ALL  0     ROOT ALL Z 15
    10 SEL2        2 GROUP        1 Z    SEL  0     **** SEL Z 16
    11 LYL4        5 GROUP        1 Z    LYL  0     **** LYL Z 18
    12 GLL5       15 GROUP        1 Z    GLL  0     **** GLL Z 20
@<TRIPOS>SET

