#    Name: 2e5a_LAQ_1_ligand
#    Modification time : Tue Mar 25 10:37:07 2014

@<TRIPOS>MOLECULE
2e5a_LAQ_1_ligand
   59    62     1     0     0
SMALL
NO_CHARGES


@<TRIPOS>ATOM
      1 O2P        38.8670   23.9390    6.6210 O.co2     1 LAQ2001     0.0000 
      2 P          39.2100   25.2980    6.0680 P.3       1 LAQ2001     0.0000 
      3 O1P        38.2780   25.9880    5.1190 O.co2     1 LAQ2001     0.0000 
      4 O3P        39.4280   26.2060    7.3790 O.3       1 LAQ2001     0.0000 
      5 C10        39.7500   27.6180    7.3720 C.2       1 LAQ2001     0.0000 
      6 C11        39.5100   28.3570    8.6740 C.3       1 LAQ2001     0.0000 
      7 C12        40.1700   29.7290    8.6980 C.3       1 LAQ2001     0.0000 
      8 C13        40.3060   30.2240   10.1290 C.3       1 LAQ2001     0.0000 
      9 C14        40.9470   31.6040   10.1670 C.3       1 LAQ2001     0.0000 
     10 C15        41.1670   32.0980   11.5970 C.3       1 LAQ2001     0.0000 
     11 S15        42.3180   31.1450   12.5350 S.3       1 LAQ2001     0.0000 
     12 S17        42.4720   32.5560   13.9770 S.3       1 LAQ2001     0.0000 
     13 C17        42.2220   33.9770   12.9670 C.3       1 LAQ2001     0.0000 
     14 C16        41.7530   33.5140   11.5820 C.3       1 LAQ2001     0.0000 
     15 O10        40.2000   28.1480    6.3570 O.2       1 LAQ2001     0.0000 
     16 O5'        40.6780   25.3060    5.4280 O.3       1 LAQ2001     0.0000 
     17 C5'        41.7890   24.6480    6.0360 C.3       1 LAQ2001     0.0000 
     18 C4'        42.8350   24.4190    4.9470 C.3       1 LAQ2001     0.0000 
     19 C3'        44.0310   23.5920    5.3870 C.3       1 LAQ2001     0.0000 
     20 O3'        43.7540   22.1950    5.3080 O.3       1 LAQ2001     0.0000 
     21 C2'        45.1010   24.0380    4.4070 C.3       1 LAQ2001     0.0000 
     22 O2'        44.8000   23.4970    3.1210 O.3       1 LAQ2001     0.0000 
     23 C1'        44.8050   25.5170    4.2710 C.3       1 LAQ2001     0.0000 
     24 O4'        43.4050   25.6660    4.5400 O.3       1 LAQ2001     0.0000 
     25 N9         45.5250   26.3750    5.2430 N.pl3     1 LAQ2001     0.0000 
     26 C8         46.2350   26.0070    6.3300 C.2       1 LAQ2001     0.0000 
     27 N7         46.7250   27.0910    6.9780 N.2       1 LAQ2001     0.0000 
     28 C5         46.3080   28.1800    6.3040 C.ar      1 LAQ2001     0.0000 
     29 C6         46.4560   29.6510    6.4230 C.ar      1 LAQ2001     0.0000 
     30 N6         47.1580   30.2170    7.4350 N.pl3     1 LAQ2001     0.0000 
     31 N1         45.8610   30.4210    5.4830 N.ar      1 LAQ2001     0.0000 
     32 C2         45.1480   29.9120    4.4660 C.ar      1 LAQ2001     0.0000 
     33 N3         44.9800   28.5880    4.3010 N.ar      1 LAQ2001     0.0000 
     34 C4         45.5250   27.6960    5.1640 C.ar      1 LAQ2001     0.0000 
     35 H          39.8997   27.7580    9.5078 H         1 LAQ2001     0.0000 
     36 H          38.4295   28.4771    8.8286 H         1 LAQ2001     0.0000 
     37 H          39.5633   30.4302    8.1289 H         1 LAQ2001     0.0000 
     38 H          41.1561   29.6620    8.2433 H         1 LAQ2001     0.0000 
     39 H          40.9220   29.5253   10.6959 H         1 LAQ2001     0.0000 
     40 H          39.3189   30.2728   10.5897 H         1 LAQ2001     0.0000 
     41 H          40.3043   32.3158    9.6387 H         1 LAQ2001     0.0000 
     42 H          41.9112   31.5691    9.6495 H         1 LAQ2001     0.0000 
     43 H          40.2867   32.0841   12.1812 H         1 LAQ2001     0.0000 
     44 H          43.1712   34.4425   12.9455 H         1 LAQ2001     0.0000 
     45 H          41.4861   34.5307   13.4866 H         1 LAQ2001     0.0000 
     46 H          40.9933   34.2115   11.2111 H         1 LAQ2001     0.0000 
     47 H          42.6024   33.5422   10.8900 H         1 LAQ2001     0.0000 
     48 H          41.5150   23.6800    6.4467 H         1 LAQ2001     0.0000 
     49 H          42.2439   25.2523    6.8162 H         1 LAQ2001     0.0000 
     50 H          42.3789   23.9312    4.1028 H         1 LAQ2001     0.0000 
     51 H          44.3135   23.9235    6.3590 H         1 LAQ2001     0.0000 
     52 H          46.0272   23.8833    4.7564 H         1 LAQ2001     0.0000 
     53 H          45.0169   25.8274    3.2685 H         1 LAQ2001     0.0000 
     54 H          46.3787   25.0796    6.6151 H         1 LAQ2001     0.0000 
     55 H          46.8492   31.1200    7.7335 H         1 LAQ2001     0.0000 
     56 H          47.9226   29.6814    7.7935 H         1 LAQ2001     0.0000 
     57 H          44.7026   30.5741    3.7700 H         1 LAQ2001     0.0000 
     58 H          43.8532   21.9659    4.3396 H         1 LAQ2001     0.0000 
     59 H          44.4929   24.2780    2.5772 H         1 LAQ2001     0.0000 
@<TRIPOS>BOND
     1    2    1 ar   
     2    3    2 ar   
     3    4    2 1    
     4   16    2 1    
     5    5    4 1    
     6    6    5 1    
     7   15    5 2    
     8    7    6 1    
     9   35    6 1    
    10   36    6 1    
    11    8    7 1    
    12   37    7 1    
    13   38    7 1    
    14    9    8 1    
    15   39    8 1    
    16   40    8 1    
    17   10    9 1    
    18   41    9 1    
    19   42    9 1    
    20   11   10 1    
    21   14   10 1    
    22   43   10 1    
    23   12   11 1    
    24   13   12 1    
    25   14   13 1    
    26   44   13 1    
    27   45   13 1    
    28   46   14 1    
    29   47   14 1    
    30   17   16 1    
    31   18   17 1    
    32   48   17 1    
    33   49   17 1    
    34   19   18 1    
    35   24   18 1    
    36   50   18 1    
    37   20   19 1    
    38   21   19 1    
    39   51   19 1    
    40   58   20 1    
    41   22   21 1    
    42   23   21 1    
    43   52   21 1    
    44   59   22 1    
    45   24   23 1    
    46   25   23 1    
    47   53   23 1    
    48   26   25 1    
    49   34   25 1    
    50   27   26 2    
    51   54   26 1    
    52   28   27 1    
    53   29   28 ar   
    54   34   28 ar   
    55   30   29 1    
    56   31   29 ar   
    57   55   30 1    
    58   56   30 1    
    59   32   31 ar   
    60   33   32 ar   
    61   57   32 1    
    62   34   33 ar   
@<TRIPOS>SUBSTRUCTURE
     1 LAQ2001     1 GROUP   
@<TRIPOS>SET

