#    Name: 3d3f_NDP_1_INTS_M
#    Modification time : Mon Mar 24 22:38:14 2014

@<TRIPOS>MOLECULE
3d3f_NDP_1_INTS_M
  116     0    12     0     0
SMALL
NO_CHARGES


@<TRIPOS>ATOM
      1 N         -20.7145   17.0945  -29.5340 N.am      2 SEC2        0.0000 
      2 N         -19.2510   17.5370  -29.8480 N.am     10 SEL2        0.0000 
      3 N         -22.1780   16.6520  -29.2200 N.am      6 SEP2        0.0000 
      4 N         -16.4740   17.4425  -31.0640 N.am      2 SEC2        0.0000 
      5 N         -17.1230   18.5520  -30.4530 N.am     10 SEL2        0.0000 
      6 N         -15.8250   16.3330  -31.6750 N.am      6 SEP2        0.0000 
      7 N         -16.3205   19.7090  -30.8400 N.am      2 SEC2        0.0000 
      8 N         -15.5180   20.8660  -31.2270 N.am      6 SEP2        0.0000 
      9 CA        -22.0710   20.6060  -29.8700 C.3       4 GLC5        0.0000 
     10 CA        -20.4090   20.4320  -31.1100 C.3      12 GLL5        0.0000 
     11 CA        -23.7330   20.7800  -28.6300 C.3       8 GLP5        0.0000 
     12 CA        -22.7610   21.5370  -30.2930 C.3       4 GLC5        0.0000 
     13 CA        -21.7890   22.2940  -31.9560 C.3      12 GLL5        0.0000 
     14 N         -23.9515   22.6300  -35.0635 N.am      2 SEC2        0.0000 
     15 N         -23.5240   22.5740  -33.5780 N.am     10 SEL2        0.0000 
     16 N         -24.3790   22.6860  -36.5490 N.am      6 SEP2        0.0000 
     17 N         -23.1500   16.3245  -34.4145 N.am      2 SEC2        0.0000 
     18 N         -22.9010   17.7660  -34.8620 N.am     10 SEL2        0.0000 
     19 N         -23.3990   14.8830  -33.9670 N.am      6 SEP2        0.0000 
     20 CA        -21.2900   16.3805  -37.6355 C.3       4 GLC5        0.0000 
     21 CA        -22.8490   17.6550  -37.3470 C.3      12 GLL5        0.0000 
     22 CA        -19.7310   15.1060  -37.9240 C.3       8 GLP5        0.0000 
     23 O         -22.9645   15.4355  -38.8205 O.2       1 ALC1        0.0000 
     24 O         -22.8860   16.3180  -37.4750 O.2       9 ALL1        0.0000 
     25 O         -23.0430   14.5530  -40.1660 O.2       5 ALP1        0.0000 
     26 O         -22.8755   15.2325  -36.7695 O.2       1 ALC1        0.0000 
     27 O         -22.8650   14.1470  -36.0640 O.2       5 ALP1        0.0000 
     28 CA        -20.3710   19.6735  -38.2600 C.3       4 GLC5        0.0000 
     29 CA        -22.0930   19.7260  -38.3340 C.3      12 GLL5        0.0000 
     30 CA        -18.6490   19.6210  -38.1860 C.3       8 GLP5        0.0000 
     31 CA        -23.9270   19.5880  -38.0170 C.3       4 GLC5        0.0000 
     32 CA        -25.7610   19.4500  -37.7000 C.3       8 GLP5        0.0000 
     33 CA        -20.4250   19.5890  -37.0840 C.3       4 GLC5        0.0000 
     34 CA        -22.2010   19.5570  -35.9820 C.3      12 GLL5        0.0000 
     35 N         -16.5155   20.3415  -26.6420 N.am      2 SEC2        0.0000 
     36 N         -17.8550   20.6300  -26.5720 N.am     10 SEL2        0.0000 
     37 N         -15.1760   20.0530  -26.7120 N.am      6 SEP2        0.0000 
     38 N         -17.0185   17.6650  -26.6095 N.am      2 SEC2        0.0000 
     39 N         -18.4530   18.2040  -26.7300 N.am     10 SEL2        0.0000 
     40 N         -15.5840   17.1260  -26.4890 N.am      6 SEP2        0.0000 
     41 CA        -17.4765   17.6130  -27.1285 C.3       4 GLC5        0.0000 
     42 CA        -19.5340   17.3180  -26.5370 C.3      12 GLL5        0.0000 
     43 CA        -15.4190   17.9080  -27.7200 C.3       8 GLP5        0.0000 
     44 CA        -18.2095   16.4130  -27.4550 C.3       4 GLC5        0.0000 
     45 CA        -16.8850   15.5080  -28.3730 C.3       8 GLP5        0.0000 
     46 CA        -20.2685   15.9215  -28.0285 C.3       4 GLC5        0.0000 
     47 CA        -21.0030   14.5250  -29.5200 C.3       8 GLP5        0.0000 
     48 CA        -21.2820   17.9060  -27.1810 C.3       4 GLC5        0.0000 
     49 CA        -23.0300   18.4940  -27.8250 C.3       8 GLP5        0.0000 
     50 CA        -19.3885   15.3800  -24.1660 C.3       4 GLC5        0.0000 
     51 CA        -19.6720   17.0590  -25.0560 C.3      12 GLL5        0.0000 
     52 CA        -19.1050   13.7010  -23.2760 C.3       8 GLP5        0.0000 
     53 CA        -21.6675   18.3665  -26.0780 C.3       4 GLC5        0.0000 
     54 CA        -20.3050   18.2390  -24.3310 C.3      12 GLL5        0.0000 
     55 N         -22.5440   19.4410  -23.8835 N.am      2 SEC2        0.0000 
     56 N         -21.6770   18.4270  -24.6340 N.am     10 SEL2        0.0000 
     57 N         -23.4110   20.4550  -23.1330 N.am      6 SEP2        0.0000 
     58 CA        -20.9295   18.6180  -21.3680 C.3       4 GLC5        0.0000 
     59 CA        -20.0140   17.8650  -22.9000 C.3      12 GLL5        0.0000 
     60 CA        -21.8450   19.3710  -19.8360 C.3       8 GLP5        0.0000 
     61 O         -20.8735   16.0715  -21.3085 O.2       1 ALC1        0.0000 
     62 O         -20.9720   16.9580  -22.4030 O.2       9 ALL1        0.0000 
     63 O         -20.7750   15.1850  -20.2140 O.2       5 ALP1        0.0000 
     64 CA        -16.9785   16.6355  -23.2685 C.3       4 GLC5        0.0000 
     65 CA        -18.6260   17.2160  -23.0290 C.3      12 GLL5        0.0000 
     66 CA        -15.3310   16.0550  -23.5080 C.3       8 GLP5        0.0000 
     67 N         -13.4620   18.7825  -18.3185 N.am      2 SEC2        0.0000 
     68 N         -14.6700   19.2370  -18.8880 N.am     10 SEL2        0.0000 
     69 N         -12.2540   18.3280  -17.7490 N.am      6 SEP2        0.0000 
     70 O         -14.8790   16.4340  -18.1375 O.2       1 ALC1        0.0000 
     71 O         -15.6190   17.0450  -19.0960 O.2       9 ALL1        0.0000 
     72 O         -14.1390   15.8230  -17.1790 O.2       5 ALP1        0.0000 
     73 O         -16.4275   15.8670  -19.7450 O.2       1 ALC1        0.0000 
     74 O         -17.2360   14.6890  -20.3940 O.2       5 ALP1        0.0000 
     75 CA        -19.2095   20.3245  -23.2460 C.3       4 GLC5        0.0000 
     76 CA        -17.2570   19.2960  -23.3210 C.3      12 GLL5        0.0000 
     77 CA        -21.1620   21.3530  -23.1710 C.3       8 GLP5        0.0000 
     78 NZ        -26.7790   24.1140  -34.5055 N.4       3 LYC4        0.0000 
     79 NZ        -25.7870   23.5910  -33.8970 N.4      11 LYL4        0.0000 
     80 NZ        -27.7710   24.6370  -35.1140 N.4       7 LYP4        0.0000 
     81 N         -26.7790   24.1140  -34.5055 N.am      2 SEC2        0.0000 
     82 N         -25.7870   23.5910  -33.8970 N.am     10 SEL2        0.0000 
     83 N         -27.7710   24.6370  -35.1140 N.am      6 SEP2        0.0000 
     84 N         -25.0830   23.1385  -35.2230 N.am      2 SEC2        0.0000 
     85 NZ        -25.1100   22.5275  -30.5365 N.4       3 LYC4        0.0000 
     86 NZ        -25.4000   22.1710  -31.8050 N.4      11 LYL4        0.0000 
     87 NZ        -24.8200   22.8840  -29.2680 N.4       7 LYP4        0.0000 
     88 N         -25.1100   22.5275  -30.5365 N.am      2 SEC2        0.0000 
     89 N         -25.4000   22.1710  -31.8050 N.am     10 SEL2        0.0000 
     90 N         -24.8200   22.8840  -29.2680 N.am      6 SEP2        0.0000 
     91 N         -26.6535   21.2990  -31.4355 N.am      2 SEC2        0.0000 
     92 N         -27.9070   20.4270  -31.0660 N.am      6 SEP2        0.0000 
     93 NZ        -24.9905   21.9275  -35.2775 N.4       3 LYC4        0.0000 
     94 NZ        -25.6020   21.1690  -34.0060 N.4      11 LYL4        0.0000 
     95 NZ        -24.7680   21.7240  -37.3920 N.4       7 LYP4        0.0000 
     96 N         -26.1620   20.1535  -33.7370 N.am      2 SEC2        0.0000 
     97 N         -25.6020   21.1690  -34.0060 N.am     10 SEL2        0.0000 
     98 N         -26.7220   19.1380  -33.4680 N.am      6 SEP2        0.0000 
     99 N         -25.4530   20.8820  -35.4515 N.am      2 SEC2        0.0000 
    100 N         -25.3040   20.5950  -36.8970 N.am      6 SEP2        0.0000 
    101 N         -24.9905   21.9275  -35.2775 N.am      2 SEC2        0.0000 
    102 CA        -18.4235   21.5042  -31.4010 C.3       4 GLC5        0.0000 
    103 CA        -20.4410   21.5950  -32.0960 C.3      12 GLL5        0.0000 
    104 CA        -16.4220   21.9950  -31.1990 C.3       8 GLP5        0.0000 
    105 CA        -21.0862   17.7330  -34.8927 C.3       4 GLC5        0.0000 
    106 CA        -19.7270   16.5650  -33.7440 C.3       8 GLP5        0.0000 
    107 CA        -24.1231   19.1018  -37.0265 C.3       4 GLC5        0.0000 
    108 CA        -22.6900   18.2450  -36.1010 C.3      12 GLL5        0.0000 
    109 CA        -21.4190   16.5633  -25.1617 C.3       4 GLC5        0.0000 
    110 CA        -23.2350   15.9380  -24.5270 C.3       8 GLP5        0.0000 
    111 CA        -21.6972   16.9950  -24.0712 C.3       4 GLC5        0.0000 
    112 CA        -20.6608   19.7025  -23.3932 C.3       4 GLC5        0.0000 
    113 CA        -19.2125   15.6208  -23.1202 C.3       4 GLC5        0.0000 
    114 CA        -15.9272   17.1852  -22.3343 C.3       4 GLC5        0.0000 
    115 CA        -17.0340   17.9220  -21.4240 C.3      12 GLL5        0.0000 
    116 CA        -15.9582   17.8684  -23.1516 C.3       4 GLC5        0.0000 
@<TRIPOS>BOND
@<TRIPOS>SUBSTRUCTURE
     1 ALC1       23 GROUP        1 X    ALC  0     ROOT ALC X 1
     2 SEC2        1 GROUP        1 X    SEC  0     **** SEC X 2
     3 LYC4       78 GROUP        1 X    LYC  0     **** LYC X 4
     4 GLC5        9 GROUP        1 X    GLC  0     **** GLC X 6
     5 ALP1       25 GROUP        1 Y    ALP  0     ROOT ALP Y 8
     6 SEP2        3 GROUP        1 Y    SEP  0     **** SEP Y 9
     7 LYP4       80 GROUP        1 Y    LYP  0     **** LYP Y 11
     8 GLP5       11 GROUP        1 Y    GLP  0     **** GLP Y 13
     9 ALL1       24 GROUP        1 Z    ALL  0     ROOT ALL Z 15
    10 SEL2        2 GROUP        1 Z    SEL  0     **** SEL Z 16
    11 LYL4       79 GROUP        1 Z    LYL  0     **** LYL Z 18
    12 GLL5       10 GROUP        1 Z    GLL  0     **** GLL Z 20
@<TRIPOS>SET

