#    Name: 3d3f_NDP_1_ligand
#    Modification time : Mon Mar 24 22:38:14 2014

@<TRIPOS>MOLECULE
3d3f_NDP_1_ligand
   74    78     1     0     0
SMALL
NO_CHARGES


@<TRIPOS>ATOM
      1 PA        -18.5240   18.8100  -30.0680 P.3       1 NDP1        0.0000 
      2 O1A       -19.2510   17.5370  -29.8480 O.co2     1 NDP1        0.0000 
      3 O2A       -17.1230   18.5520  -30.4530 O.co2     1 NDP1        0.0000 
      4 O5B       -19.2080   19.7260  -31.2190 O.3       1 NDP1        0.0000 
      5 C5B       -20.4090   20.4320  -31.1100 C.3       1 NDP1        0.0000 
      6 C4B       -20.4410   21.5950  -32.0960 C.3       1 NDP1        0.0000 
      7 O4B       -20.3810   21.0580  -33.3950 O.3       1 NDP1        0.0000 
      8 C3B       -21.7890   22.2940  -31.9560 C.3       1 NDP1        0.0000 
      9 O3B       -21.7530   23.7110  -32.1560 O.3       1 NDP1        0.0000 
     10 C2B       -22.6320   21.6530  -33.0390 C.3       1 NDP1        0.0000 
     11 O2B       -23.5240   22.5740  -33.5780 O.3       1 NDP1        0.0000 
     12 C1B       -21.6480   21.1420  -34.0720 C.3       1 NDP1        0.0000 
     13 N9A       -22.1030   19.8550  -34.6470 N.pl3     1 NDP1        0.0000 
     14 C8A       -22.5390   18.7300  -33.9730 C.2       1 NDP1        0.0000 
     15 N7A       -22.9010   17.7660  -34.8620 N.2       1 NDP1        0.0000 
     16 C5A       -22.6900   18.2450  -36.1010 C.ar      1 NDP1        0.0000 
     17 C6A       -22.8490   17.6550  -37.3470 C.ar      1 NDP1        0.0000 
     18 N6A       -22.8860   16.3180  -37.4750 N.pl3     1 NDP1        0.0000 
     19 N1A       -22.5630   18.4250  -38.4480 N.ar      1 NDP1        0.0000 
     20 C2A       -22.0930   19.7260  -38.3340 C.ar      1 NDP1        0.0000 
     21 N3A       -21.9040   20.2900  -37.0820 N.ar      1 NDP1        0.0000 
     22 C4A       -22.2010   19.5570  -35.9820 C.ar      1 NDP1        0.0000 
     23 O3        -18.5490   19.8570  -28.8140 O.3       1 NDP1        0.0000 
     24 PN        -18.8160   19.6920  -27.2090 P.3       1 NDP1        0.0000 
     25 O1N       -17.8550   20.6300  -26.5720 O.co2     1 NDP1        0.0000 
     26 O2N       -20.2880   19.7980  -26.9420 O.co2     1 NDP1        0.0000 
     27 O5D       -18.4530   18.2040  -26.7300 O.3       1 NDP1        0.0000 
     28 C5D       -19.5340   17.3180  -26.5370 C.3       1 NDP1        0.0000 
     29 C4D       -19.6720   17.0590  -25.0560 C.3       1 NDP1        0.0000 
     30 O4D       -18.4310   16.8390  -24.3880 O.3       1 NDP1        0.0000 
     31 C3D       -20.3050   18.2390  -24.3310 C.3       1 NDP1        0.0000 
     32 O3D       -21.6770   18.4270  -24.6340 O.3       1 NDP1        0.0000 
     33 C2D       -20.0140   17.8650  -22.9000 C.3       1 NDP1        0.0000 
     34 O2D       -20.9720   16.9580  -22.4030 O.3       1 NDP1        0.0000 
     35 C1D       -18.6260   17.2160  -23.0290 C.3       1 NDP1        0.0000 
     36 N1N       -17.6200   18.1990  -22.5890 N.pl3     1 NDP1        0.0000 
     37 C2N       -17.0340   17.9220  -21.4240 C.2       1 NDP1        0.0000 
     38 C3N       -16.0130   18.7090  -20.8970 C.2       1 NDP1        0.0000 
     39 C7N       -15.4140   18.2830  -19.5800 C.2       1 NDP1        0.0000 
     40 O7N       -14.6700   19.2370  -18.8880 O.2       1 NDP1        0.0000 
     41 N7N       -15.6190   17.0450  -19.0960 N.am      1 NDP1        0.0000 
     42 C4N       -15.5520   19.9570  -21.6260 C.3       1 NDP1        0.0000 
     43 C5N       -16.2760   20.1780  -22.9130 C.2       1 NDP1        0.0000 
     44 C6N       -17.2570   19.2960  -23.3210 C.2       1 NDP1        0.0000 
     45 P2B       -25.0790   22.3940  -33.2780 P.3       1 NDP1        0.0000 
     46 O1X       -25.7870   23.5910  -33.8970 O.co2     1 NDP1        0.0000 
     47 O2X       -25.4000   22.1710  -31.8050 O.co2     1 NDP1        0.0000 
     48 O3X       -25.6020   21.1690  -34.0060 O.co2     1 NDP1        0.0000 
     49 H         -20.5576   20.8548  -30.1008 H         1 NDP1        0.0000 
     50 H         -21.2889   19.7994  -31.3220 H         1 NDP1        0.0000 
     51 H         -19.6705   22.2659  -31.8798 H         1 NDP1        0.0000 
     52 H         -22.2163   22.0122  -31.0137 H         1 NDP1        0.0000 
     53 H         -23.1198   20.7948  -32.6002 H         1 NDP1        0.0000 
     54 H         -21.5963   21.8987  -34.8554 H         1 NDP1        0.0000 
     55 H         -22.5767   18.6515  -33.0094 H         1 NDP1        0.0000 
     56 H         -23.0248   15.9684  -38.4015 H         1 NDP1        0.0000 
     57 H         -22.7714   15.7920  -36.6323 H         1 NDP1        0.0000 
     58 H         -21.8845   20.2728  -39.1819 H         1 NDP1        0.0000 
     59 H         -19.3730   16.3580  -27.0357 H         1 NDP1        0.0000 
     60 H         -20.4780   17.7363  -26.8976 H         1 NDP1        0.0000 
     61 H         -20.3356   16.2071  -24.9003 H         1 NDP1        0.0000 
     62 H         -19.6860   19.1006  -24.5621 H         1 NDP1        0.0000 
     63 H         -19.9030   18.7524  -22.3368 H         1 NDP1        0.0000 
     64 H         -18.6148   16.3625  -22.3743 H         1 NDP1        0.0000 
     65 H         -17.3363   17.0826  -20.8623 H         1 NDP1        0.0000 
     66 H         -15.1549   16.8256  -18.2378 H         1 NDP1        0.0000 
     67 H         -16.2172   16.4543  -19.6375 H         1 NDP1        0.0000 
     68 H         -14.4694   19.8754  -21.8182 H         1 NDP1        0.0000 
     69 H         -15.6963   20.8272  -20.9645 H         1 NDP1        0.0000 
     70 H         -16.0099   20.9950  -23.4556 H         1 NDP1        0.0000 
     71 H         -17.7440   19.4808  -24.2370 H         1 NDP1        0.0000 
     72 H         -22.4232   23.8876  -32.8769 H         1 NDP1        0.0000 
     73 H         -21.6845   18.9300  -25.4982 H         1 NDP1        0.0000 
     74 H         -20.5361   16.5290  -21.6118 H         1 NDP1        0.0000 
@<TRIPOS>BOND
     1    2    1 ar   
     2    3    1 ar   
     3    4    1 1    
     4   23    1 1    
     5    5    4 1    
     6    6    5 1    
     7   49    5 1    
     8   50    5 1    
     9    7    6 1    
    10    8    6 1    
    11   51    6 1    
    12   12    7 1    
    13    9    8 1    
    14   10    8 1    
    15   52    8 1    
    16   72    9 1    
    17   11   10 1    
    18   12   10 1    
    19   53   10 1    
    20   45   11 1    
    21   13   12 1    
    22   54   12 1    
    23   14   13 1    
    24   22   13 1    
    25   15   14 2    
    26   55   14 1    
    27   16   15 1    
    28   17   16 ar   
    29   22   16 ar   
    30   18   17 1    
    31   19   17 ar   
    32   56   18 1    
    33   57   18 1    
    34   20   19 ar   
    35   21   20 ar   
    36   58   20 1    
    37   22   21 ar   
    38   24   23 1    
    39   25   24 ar   
    40   26   24 ar   
    41   27   24 1    
    42   28   27 1    
    43   29   28 1    
    44   59   28 1    
    45   60   28 1    
    46   30   29 1    
    47   31   29 1    
    48   61   29 1    
    49   35   30 1    
    50   32   31 1    
    51   33   31 1    
    52   62   31 1    
    53   73   32 1    
    54   34   33 1    
    55   35   33 1    
    56   63   33 1    
    57   74   34 1    
    58   36   35 1    
    59   64   35 1    
    60   37   36 1    
    61   44   36 1    
    62   38   37 2    
    63   65   37 1    
    64   39   38 1    
    65   42   38 1    
    66   40   39 2    
    67   41   39 am   
    68   66   41 1    
    69   67   41 1    
    70   43   42 1    
    71   68   42 1    
    72   69   42 1    
    73   44   43 2    
    74   70   43 1    
    75   71   44 1    
    76   46   45 ar   
    77   47   45 ar   
    78   48   45 ar   
@<TRIPOS>SUBSTRUCTURE
     1 NDP1        1 GROUP   
@<TRIPOS>SET

