#    Name: 1iv2_CDP_6_INTS_M
#    Modification time : Tue Mar 25 07:21:00 2014

@<TRIPOS>MOLECULE
1iv2_CDP_6_INTS_M
   50     0    15     0     0
SMALL
NO_CHARGES


@<TRIPOS>ATOM
      1 Zn        -18.1455   23.6325   62.4870 Zn        4 ZIC7        0.0000 
      2 Zn        -17.3920   23.9670   63.1920 Zn       14 ZIL7        0.0000 
      3 Zn        -18.8990   23.2980   61.7820 Zn        9 ZIP7        0.0000 
      4 NZ        -13.7865   24.0820   63.2610 N.4       3 LYC4        0.0000 
      5 NZ        -15.1730   24.6370   63.5070 N.4      13 LYL4        0.0000 
      6 NZ        -12.4000   23.5270   63.0150 N.4       8 LYP4        0.0000 
      7 Zn        -14.8600   25.5985   63.5750 Zn        4 ZIC7        0.0000 
      8 Zn        -15.1730   24.6370   63.5070 Zn       14 ZIL7        0.0000 
      9 Zn        -14.5470   26.5600   63.6430 Zn        9 ZIP7        0.0000 
     10 N         -13.7865   24.0820   63.2610 N.am      2 SEC2        0.0000 
     11 N         -15.1730   24.6370   63.5070 N.am     12 SEL2        0.0000 
     12 N         -12.4000   23.5270   63.0150 N.am      7 SEP2        0.0000 
     13 N         -14.6750   20.7630   59.4075 N.am      2 SEC2        0.0000 
     14 N         -15.2180   21.5370   60.3610 N.am     12 SEL2        0.0000 
     15 N         -14.1320   19.9890   58.4540 N.am      7 SEP2        0.0000 
     16 N         -16.0340   21.3850   59.2425 N.am      2 SEC2        0.0000 
     17 N         -16.8500   21.2330   58.1240 N.am      7 SEP2        0.0000 
     18 Zn        -18.1435   22.2375   61.6830 Zn        4 ZIC7        0.0000 
     19 Zn        -17.3880   21.1770   61.5840 Zn       14 ZIL7        0.0000 
     20 N         -12.8355   19.5515   66.5805 N.am      2 SEC2        0.0000 
     21 N         -12.8840   19.6410   65.1120 N.am     12 SEL2        0.0000 
     22 N         -12.7870   19.4620   68.0490 N.am      7 SEP2        0.0000 
     23 O         -11.9240   17.1355   65.9265 O.2       1 ALC1        0.0000 
     24 O         -13.0480   16.7140   65.2560 O.2      11 ALL1        0.0000 
     25 O         -10.8000   17.5570   66.5970 O.2       6 ALP1        0.0000 
     26 O         -11.3510   16.7865   65.0715 O.2       1 ALC1        0.0000 
     27 O          -9.6540   16.8590   64.8870 O.2       6 ALP1        0.0000 
     28 N         -13.6085   12.6510   61.3745 N.am      2 SEC2        0.0000 
     29 N         -13.6260   13.7560   62.6000 N.am     12 SEL2        0.0000 
     30 N         -13.5910   11.5460   60.1490 N.am      7 SEP2        0.0000 
     31 N         -13.2200   12.4845   62.6790 N.am      2 SEC2        0.0000 
     32 N         -12.8140   11.2130   62.7580 N.am      7 SEP2        0.0000 
     33 N         -13.6995   12.8850   60.2820 N.am      2 SEC2        0.0000 
     34 N         -13.8080   14.2240   60.4150 N.am     12 SEL2        0.0000 
     35 O         -14.2385   15.7540   57.0010 O.2       1 ALC1        0.0000 
     36 O         -14.0320   14.7600   58.0880 O.2      11 ALL1        0.0000 
     37 O         -14.4450   16.7480   55.9140 O.2       6 ALP1        0.0000 
     38 O         -14.4655   13.4175   57.6075 O.2       1 ALC1        0.0000 
     39 O         -14.8990   12.0750   57.1270 O.2       6 ALP1        0.0000 
     40 CA        -11.8957   16.4580   62.3875 C.3       5 GLC5        0.0000 
     41 CA        -12.8770   17.2580   63.9780 C.3      15 GLL5        0.0000 
     42 CA        -10.3460   16.0940   60.9990 C.3      10 GLP5        0.0000 
     43 CA        -13.7634   18.2696   65.9868 C.3       5 GLC5        0.0000 
     44 CA        -13.9840   18.6350   67.9140 C.3      10 GLP5        0.0000 
     45 CA        -12.2957   16.4100   60.6532 C.3       5 GLC5        0.0000 
     46 CA        -14.2360   16.8930   60.9790 C.3      15 GLL5        0.0000 
     47 CA        -13.0868   18.3510   59.8937 C.3       5 GLC5        0.0000 
     48 CA        -11.9280   19.9760   59.4800 C.3      10 GLP5        0.0000 
     49 CA        -15.5678   17.7940   59.3912 C.3       5 GLC5        0.0000 
     50 CA        -16.8900   18.8620   58.4750 C.3      10 GLP5        0.0000 
@<TRIPOS>BOND
@<TRIPOS>SUBSTRUCTURE
     1 ALC1       23 GROUP        1 X    ALC  0     ROOT ALC X 1
     2 SEC2       10 GROUP        1 X    SEC  0     **** SEC X 2
     3 LYC4        4 GROUP        1 X    LYC  0     **** LYC X 4
     4 ZIC7        1 GROUP        1 X    ZIC  0     **** ZIC X 5
     5 GLC5       40 GROUP        1 X    GLC  0     **** GLC X 6
     6 ALP1       25 GROUP        1 Y    ALP  0     ROOT ALP Y 8
     7 SEP2       12 GROUP        1 Y    SEP  0     **** SEP Y 9
     8 LYP4        6 GROUP        1 Y    LYP  0     **** LYP Y 11
     9 ZIP7        3 GROUP        1 Y    ZIP  0     **** ZIP Y 12
    10 GLP5       42 GROUP        1 Y    GLP  0     **** GLP Y 13
    11 ALL1       24 GROUP        1 Z    ALL  0     ROOT ALL Z 15
    12 SEL2       11 GROUP        1 Z    SEL  0     **** SEL Z 16
    13 LYL4        5 GROUP        1 Z    LYL  0     **** LYL Z 18
    14 ZIL7        2 GROUP        1 Z    ZIL  0     **** ZIL Z 19
    15 GLL5       41 GROUP        1 Z    GLL  0     **** GLL Z 20
@<TRIPOS>SET

