#    Name: 1iv2_CDP_6_ligand
#    Modification time : Tue Mar 25 07:21:00 2014

@<TRIPOS>MOLECULE
1iv2_CDP_6_ligand
   37    38     1     0     0
SMALL
NO_CHARGES


@<TRIPOS>ATOM
      1 O3B       -17.3920   23.9670   63.1920 O.co2     1 CDP1606     0.0000 
      2 PB        -16.0700   23.4460   63.6350 P.3       1 CDP1606     0.0000 
      3 O1B       -15.1730   24.6370   63.5070 O.co2     1 CDP1606     0.0000 
      4 O2B       -16.1880   22.9400   65.0830 O.co2     1 CDP1606     0.0000 
      5 O3A       -15.3990   22.2890   62.9150 O.3       1 CDP1606     0.0000 
      6 PA        -15.9780   21.3980   61.7650 P.3       1 CDP1606     0.0000 
      7 O1A       -15.2180   21.5370   60.3610 O.co2     1 CDP1606     0.0000 
      8 O2A       -17.3880   21.1770   61.5840 O.co2     1 CDP1606     0.0000 
      9 O5'       -15.3950   20.0120   62.3920 O.3       1 CDP1606     0.0000 
     10 C5'       -15.7570   19.6320   63.6910 C.3       1 CDP1606     0.0000 
     11 C4'       -14.9700   18.4680   64.0290 C.3       1 CDP1606     0.0000 
     12 O4'       -15.1410   17.1990   63.3680 O.3       1 CDP1606     0.0000 
     13 C3'       -13.4470   18.6330   64.2530 C.3       1 CDP1606     0.0000 
     14 O3'       -12.8840   19.6410   65.1120 O.3       1 CDP1606     0.0000 
     15 C2'       -12.8770   17.2580   63.9780 C.3       1 CDP1606     0.0000 
     16 O2'       -13.0480   16.7140   65.2560 O.3       1 CDP1606     0.0000 
     17 C1'       -14.0140   16.3860   63.5740 C.3       1 CDP1606     0.0000 
     18 N1        -14.0210   15.9890   62.0750 N.am      1 CDP1606     0.0000 
     19 C2        -13.8140   14.6130   61.7090 C.2       1 CDP1606     0.0000 
     20 O2        -13.6260   13.7560   62.6000 O.2       1 CDP1606     0.0000 
     21 N3        -13.8080   14.2240   60.4150 N.2       1 CDP1606     0.0000 
     22 C4        -14.0330   15.1680   59.3640 C.2       1 CDP1606     0.0000 
     23 N4        -14.0320   14.7600   58.0880 N.pl3     1 CDP1606     0.0000 
     24 C5        -14.2550   16.5590   59.6360 C.2       1 CDP1606     0.0000 
     25 C6        -14.2360   16.8930   60.9790 C.2       1 CDP1606     0.0000 
     26 H         -16.8247   19.3855   63.7536 H         1 CDP1606     0.0000 
     27 H         -15.5575   20.4338   64.4134 H         1 CDP1606     0.0000 
     28 H         -15.2959   18.1959   65.1737 H         1 CDP1606     0.0000 
     29 H         -13.2122   19.1195   63.0789 H         1 CDP1606     0.0000 
     30 H         -12.0890   17.1526   63.5569 H         1 CDP1606     0.0000 
     31 H         -14.2078   15.5830   64.1368 H         1 CDP1606     0.0000 
     32 H         -14.1584   15.4728   57.3980 H         1 CDP1606     0.0000 
     33 H         -13.9049   13.7792   57.9397 H         1 CDP1606     0.0000 
     34 H         -14.4063   17.2041   58.9081 H         1 CDP1606     0.0000 
     35 H         -14.3939   17.9132   61.2466 H         1 CDP1606     0.0000 
     36 H         -11.8988   19.6023   64.9452 H         1 CDP1606     0.0000 
     37 H         -12.2520   17.0222   65.7770 H         1 CDP1606     0.0000 
@<TRIPOS>BOND
     1    2    1 ar   
     2    3    2 ar   
     3    4    2 ar   
     4    5    2 1    
     5    6    5 1    
     6    7    6 ar   
     7    8    6 ar   
     8    9    6 1    
     9   10    9 1    
    10   11   10 1    
    11   26   10 1    
    12   27   10 1    
    13   12   11 1    
    14   13   11 1    
    15   28   11 1    
    16   17   12 1    
    17   14   13 1    
    18   15   13 1    
    19   29   13 1    
    20   36   14 1    
    21   16   15 1    
    22   17   15 1    
    23   30   15 1    
    24   37   16 1    
    25   18   17 1    
    26   31   17 1    
    27   19   18 am   
    28   25   18 1    
    29   20   19 2    
    30   21   19 1    
    31   22   21 2    
    32   23   22 1    
    33   24   22 1    
    34   32   23 1    
    35   33   23 1    
    36   25   24 2    
    37   34   24 1    
    38   35   25 1    
@<TRIPOS>SUBSTRUCTURE
     1 CDP1606     1 GROUP   
@<TRIPOS>SET

