#    Name: 2q1s_NAI_1_INTS_M
#    Modification time : Mon Mar 24 20:26:03 2014

@<TRIPOS>MOLECULE
2q1s_NAI_1_INTS_M
  116     0    12     0     0
SMALL
NO_CHARGES


@<TRIPOS>ATOM
      1 N          17.0950   11.0125   17.5270 N.am      2 SEC2        0.0000 
      2 N          17.0500   12.2160   16.9920 N.am     10 SEL2        0.0000 
      3 N          17.1400    9.8090   18.0620 N.am      6 SEP2        0.0000 
      4 NZ         14.8300   13.0620   15.2235 N.4       3 LYC4        0.0000 
      5 NZ         16.0700   12.5490   14.5930 N.4      11 LYL4        0.0000 
      6 NZ         12.6210   12.9420   16.5150 N.4       7 LYP4        0.0000 
      7 N          15.9835   12.6560   13.1920 N.am      2 SEC2        0.0000 
      8 N          16.0700   12.5490   14.5930 N.am     10 SEL2        0.0000 
      9 N          15.8970   12.7630   11.7910 N.am      6 SEP2        0.0000 
     10 N          14.8300   13.0620   15.2235 N.am      2 SEC2        0.0000 
     11 N          13.5900   13.5750   15.8540 N.am      6 SEP2        0.0000 
     12 CA         19.9940   13.1900   17.3290 C.3       4 GLC5        0.0000 
     13 CA         19.6910   12.0300   15.6990 C.3      12 GLL5        0.0000 
     14 CA         20.2970   14.3500   18.9590 C.3       8 GLP5        0.0000 
     15 CA         21.5410   10.3795   13.9505 C.3       4 GLC5        0.0000 
     16 CA         20.1350   10.6860   15.1480 C.3      12 GLL5        0.0000 
     17 CA         22.9470   10.0730   12.7530 C.3       8 GLP5        0.0000 
     18 O          19.7690    8.4195   13.3215 O.2       1 ALC1        0.0000 
     19 O          18.7990    8.9770   14.0180 O.2       9 ALL1        0.0000 
     20 O          20.7390    7.8620   12.6250 O.2       5 ALP1        0.0000 
     21 CA         17.6300    8.2565   17.1180 C.3       4 GLC5        0.0000 
     22 CA         19.6140    8.6240   16.2650 C.3      12 GLL5        0.0000 
     23 CA         15.6460    7.8890   17.9710 C.3       8 GLP5        0.0000 
     24 N          18.0080    7.0960   17.0940 N.am      2 SEC2        0.0000 
     25 N          19.2350    7.2220   16.1070 N.am     10 SEL2        0.0000 
     26 N          16.7810    6.9700   18.0810 N.am      6 SEP2        0.0000 
     27 O          19.7760    6.6565   15.0195 O.2       1 ALC1        0.0000 
     28 O          19.2350    7.2220   16.1070 O.2       9 ALL1        0.0000 
     29 O          20.3170    6.0910   13.9320 O.2       5 ALP1        0.0000 
     30 CA         22.0300    9.4340   14.3820 C.3       4 GLC5        0.0000 
     31 CA         21.1130    8.7950   16.0110 C.3      12 GLL5        0.0000 
     32 CA         22.9735    9.8220   16.1910 C.3       4 GLC5        0.0000 
     33 CA         24.8340   10.8490   16.3710 C.3       8 GLP5        0.0000 
     34 CA         25.8415    4.9585   17.7330 C.3       4 GLC5        0.0000 
     35 CA         25.0320    6.7480   18.1690 C.3      12 GLL5        0.0000 
     36 CA         26.6510    3.1690   17.2970 C.3       8 GLP5        0.0000 
     37 CA         27.0615    7.3460   17.5435 C.3       4 GLC5        0.0000 
     38 CA         29.0910    7.9440   16.9180 C.3       8 GLP5        0.0000 
     39 CA         26.3285    8.0410   19.0635 C.3       4 GLC5        0.0000 
     40 CA         27.6250    9.3340   19.9580 C.3       8 GLP5        0.0000 
     41 O          26.5095    5.2690   19.3555 O.2       1 ALC1        0.0000 
     42 O          25.6620    6.4060   19.2990 O.2       9 ALL1        0.0000 
     43 O          27.3570    4.1320   19.4120 O.2       5 ALP1        0.0000 
     44 O          24.8760    6.2900   20.6005 O.2       1 ALC1        0.0000 
     45 O          24.0900    6.1740   21.9020 O.2       5 ALP1        0.0000 
     46 N          26.9065    5.6990   16.7705 N.am      2 SEC2        0.0000 
     47 N          25.6580    6.4600   16.9850 N.am     10 SEL2        0.0000 
     48 N          28.1550    4.9380   16.5560 N.am      6 SEP2        0.0000 
     49 CA         26.2790    8.1790   14.8245 C.3       4 GLC5        0.0000 
     50 CA         25.0310    6.7930   15.8240 C.3      12 GLL5        0.0000 
     51 CA         27.5270    9.5650   13.8250 C.3       8 GLP5        0.0000 
     52 CA         23.9785    5.9880   14.3810 C.3       4 GLC5        0.0000 
     53 CA         22.9260    5.1830   12.9380 C.3       8 GLP5        0.0000 
     54 CA         25.8410    4.9810   16.5605 C.3       4 GLC5        0.0000 
     55 CA         27.1690    6.8910   15.7810 C.3       4 GLC5        0.0000 
     56 CA         29.3070    6.9890   15.7380 C.3       8 GLP5        0.0000 
     57 CA         24.9325    8.8210   16.0975 C.3       4 GLC5        0.0000 
     58 N          15.3285   16.5260   15.7450 N.am      2 SEC2        0.0000 
     59 N          16.5760   16.7170   15.2450 N.am     10 SEL2        0.0000 
     60 N          14.0810   16.3350   16.2450 N.am      6 SEP2        0.0000 
     61 N          17.2345   15.2235   12.1395 N.am      2 SEC2        0.0000 
     62 N          17.5890   15.0250   13.5430 N.am     10 SEL2        0.0000 
     63 N          16.8800   15.4220   10.7360 N.am      6 SEP2        0.0000 
     64 CA         19.3530   16.6025   12.5675 C.3       4 GLC5        0.0000 
     65 CA         20.0900   16.0140   14.3970 C.3      12 GLL5        0.0000 
     66 CA         18.6160   17.1910   10.7380 C.3       8 GLP5        0.0000 
     67 CA         22.6760   18.0775   14.4530 C.3       4 GLC5        0.0000 
     68 CA         21.2110   16.8790   14.9770 C.3      12 GLL5        0.0000 
     69 CA         24.1410   19.2760   13.9290 C.3       8 GLP5        0.0000 
     70 N          23.5920   17.2640   15.4695 N.am      2 SEC2        0.0000 
     71 N          22.9540   16.5960   16.5820 N.am     10 SEL2        0.0000 
     72 N          24.2300   17.9320   14.3570 N.am      6 SEP2        0.0000 
     73 N          23.7525   17.1655   17.6180 N.am      2 SEC2        0.0000 
     74 N          24.5510   17.7350   18.6540 N.am      6 SEP2        0.0000 
     75 N          24.3250   16.2805   16.5115 N.am      2 SEC2        0.0000 
     76 N          25.6960   15.9650   16.4410 N.am      6 SEP2        0.0000 
     77 O          23.7210   15.2400   17.1310 O.2       1 ALC1        0.0000 
     78 O          22.9540   16.5960   16.5820 O.2       9 ALL1        0.0000 
     79 O          24.4880   13.8840   17.6800 O.2       5 ALP1        0.0000 
     80 CA         22.5920   18.2750   18.3955 C.3       4 GLC5        0.0000 
     81 CA         20.8330   17.6080   17.2210 C.3      12 GLL5        0.0000 
     82 CA         24.3510   18.9420   19.5700 C.3       8 GLP5        0.0000 
     83 N          23.0145   17.7820   18.5790 N.am      2 SEC2        0.0000 
     84 N          21.4780   17.8290   18.5040 N.am     10 SEL2        0.0000 
     85 O          20.5885   18.2410   19.3920 O.2       1 ALC1        0.0000 
     86 O          21.4780   17.8290   18.5040 O.2       9 ALL1        0.0000 
     87 O          19.6990   18.6530   20.2800 O.2       5 ALP1        0.0000 
     88 CA         22.5600   19.0415   15.1275 C.3       4 GLC5        0.0000 
     89 CA         20.9790   18.8070   16.3260 C.3      12 GLL5        0.0000 
     90 CA         20.5275   20.1060   14.8695 C.3       4 GLC5        0.0000 
     91 CA         20.0760   21.4050   13.4130 C.3       8 GLP5        0.0000 
     92 N          14.8860   22.4675   15.1855 N.am      2 SEC2        0.0000 
     93 N          15.5500   21.5190   16.1840 N.am     10 SEL2        0.0000 
     94 N          14.2220   23.4160   14.1870 N.am      6 SEP2        0.0000 
     95 CA         21.9450   11.6985   15.7712 C.3       4 GLC5        0.0000 
     96 CA         23.9770   12.0390   16.1190 C.3       8 GLP5        0.0000 
     97 CA         18.4062   10.4560   13.5708 C.3       4 GLC5        0.0000 
     98 CA         17.2380   10.7580   11.9250 C.3       8 GLP5        0.0000 
     99 CA         17.8315    8.1355   14.6840 C.3       4 GLC5        0.0000 
    100 CA         19.0140    9.6220   15.2850 C.3      12 GLL5        0.0000 
    101 CA         16.3490    7.1480   13.5930 C.3       8 GLP5        0.0000 
    102 CA         24.2952    9.1326   16.9337 C.3       4 GLC5        0.0000 
    103 CA         23.1360    7.7520   16.8320 C.3      12 GLL5        0.0000 
    104 CA         22.0027   15.5708   13.4730 C.3       4 GLC5        0.0000 
    105 CA         23.3550   14.6950   12.2590 C.3       8 GLP5        0.0000 
    106 CA         20.7390   15.7120   17.8933 C.3       4 GLC5        0.0000 
    107 CA         21.5290   16.5400   16.4340 C.3      12 GLL5        0.0000 
    108 CA         17.2317   21.8217   14.7720 C.3       4 GLC5        0.0000 
    109 CA         17.7610   20.7160   16.3860 C.3      12 GLL5        0.0000 
    110 CA         16.4900   22.3100   12.8780 C.3       8 GLP5        0.0000 
    111 CA         18.1552   23.7288   16.7965 C.3       4 GLC5        0.0000 
    112 CA         18.1860   21.9510   16.9460 C.3      12 GLL5        0.0000 
    113 CA         17.4360   25.4450   16.4750 C.3       8 GLP5        0.0000 
    114 CA         21.3792   22.7230   18.2378 C.3       4 GLC5        0.0000 
    115 CA         19.5630   22.0740   17.2900 C.3      12 GLL5        0.0000 
    116 CA         22.7580   23.9010   19.3060 C.3       8 GLP5        0.0000 
@<TRIPOS>BOND
@<TRIPOS>SUBSTRUCTURE
     1 ALC1       18 GROUP        1 X    ALC  0     ROOT ALC X 1
     2 SEC2        1 GROUP        1 X    SEC  0     **** SEC X 2
     3 LYC4        4 GROUP        1 X    LYC  0     **** LYC X 4
     4 GLC5       12 GROUP        1 X    GLC  0     **** GLC X 6
     5 ALP1       20 GROUP        1 Y    ALP  0     ROOT ALP Y 8
     6 SEP2        3 GROUP        1 Y    SEP  0     **** SEP Y 9
     7 LYP4        6 GROUP        1 Y    LYP  0     **** LYP Y 11
     8 GLP5       14 GROUP        1 Y    GLP  0     **** GLP Y 13
     9 ALL1       19 GROUP        1 Z    ALL  0     ROOT ALL Z 15
    10 SEL2        2 GROUP        1 Z    SEL  0     **** SEL Z 16
    11 LYL4        5 GROUP        1 Z    LYL  0     **** LYL Z 18
    12 GLL5       13 GROUP        1 Z    GLL  0     **** GLL Z 20
@<TRIPOS>SET

