#    Name: 2q1s_NAI_1_ligand
#    Modification time : Mon Mar 24 20:26:03 2014

@<TRIPOS>MOLECULE
2q1s_NAI_1_ligand
   71    75     1     0     0
SMALL
NO_CHARGES


@<TRIPOS>ATOM
      1 PA         17.1740   12.8230   15.6410 P.3       1 NAI358      0.0000 
      2 O1A        17.0500   12.2160   16.9920 O.co2     1 NAI358      0.0000 
      3 O2A        16.0700   12.5490   14.5930 O.co2     1 NAI358      0.0000 
      4 O5B        18.5420   12.5140   14.9950 O.3       1 NAI358      0.0000 
      5 C5B        19.6910   12.0300   15.6990 C.3       1 NAI358      0.0000 
      6 C4B        20.1350   10.6860   15.1480 C.3       1 NAI358      0.0000 
      7 O4B        21.2500   10.2290   15.9050 O.3       1 NAI358      0.0000 
      8 C3B        19.0140    9.6220   15.2850 C.3       1 NAI358      0.0000 
      9 O3B        18.7990    8.9770   14.0180 O.3       1 NAI358      0.0000 
     10 C2B        19.6140    8.6240   16.2650 C.3       1 NAI358      0.0000 
     11 O2B        19.2350    7.2220   16.1070 O.3       1 NAI358      0.0000 
     12 C1B        21.1130    8.7950   16.0110 C.3       1 NAI358      0.0000 
     13 N9A        21.9730    8.2980   17.0710 N.pl3     1 NAI358      0.0000 
     14 C8A        21.7630    8.3890   18.4200 C.2       1 NAI358      0.0000 
     15 N7A        22.8040    7.8530   19.0600 N.2       1 NAI358      0.0000 
     16 C5A        23.7220    7.4130   18.1530 C.ar      1 NAI358      0.0000 
     17 C6A        25.0320    6.7480   18.1690 C.ar      1 NAI358      0.0000 
     18 N6A        25.6620    6.4060   19.2990 N.pl3     1 NAI358      0.0000 
     19 N1A        25.6580    6.4600   16.9850 N.ar      1 NAI358      0.0000 
     20 C2A        25.0310    6.7930   15.8240 C.ar      1 NAI358      0.0000 
     21 N3A        23.8430    7.4070   15.6980 N.ar      1 NAI358      0.0000 
     22 C4A        23.1360    7.7520   16.8320 C.ar      1 NAI358      0.0000 
     23 O3         17.2090   14.3940   15.9380 O.3       1 NAI358      0.0000 
     24 PN         17.4740   15.6320   14.9180 P.3       1 NAI358      0.0000 
     25 O1N        16.5760   16.7170   15.2450 O.co2     1 NAI358      0.0000 
     26 O2N        17.5890   15.0250   13.5430 O.co2     1 NAI358      0.0000 
     27 O5D        19.0040   16.0400   15.3390 O.3       1 NAI358      0.0000 
     28 C5D        20.0900   16.0140   14.3970 C.3       1 NAI358      0.0000 
     29 C4D        21.2110   16.8790   14.9770 C.3       1 NAI358      0.0000 
     30 O4D        20.7740   18.2160   15.0260 O.3       1 NAI358      0.0000 
     31 C3D        21.5290   16.5400   16.4340 C.3       1 NAI358      0.0000 
     32 O3D        22.9540   16.5960   16.5820 O.3       1 NAI358      0.0000 
     33 C2D        20.8330   17.6080   17.2210 C.3       1 NAI358      0.0000 
     34 O2D        21.4780   17.8290   18.5040 O.3       1 NAI358      0.0000 
     35 C1D        20.9790   18.8070   16.3260 C.3       1 NAI358      0.0000 
     36 N1N        19.9940   19.8320   16.5530 N.pl3     1 NAI358      0.0000 
     37 C2N        18.6810   19.6930   16.1750 C.2       1 NAI358      0.0000 
     38 C3N        17.7610   20.7160   16.3860 C.2       1 NAI358      0.0000 
     39 C7N        16.2950   20.5740   15.9880 C.2       1 NAI358      0.0000 
     40 O7N        15.5500   21.5190   16.1840 O.2       1 NAI358      0.0000 
     41 N7N        15.9220   19.4050   15.4080 N.am      1 NAI358      0.0000 
     42 C4N        18.1860   21.9510   16.9460 C.3       1 NAI358      0.0000 
     43 C5N        19.5630   22.0740   17.2900 C.2       1 NAI358      0.0000 
     44 C6N        20.4380   21.0160   17.0490 C.2       1 NAI358      0.0000 
     45 H          19.4811   11.9035   16.7723 H         1 NAI358      0.0000 
     46 H          20.5383   12.7278   15.6136 H         1 NAI358      0.0000 
     47 H          20.3755   10.7851   14.1139 H         1 NAI358      0.0000 
     48 H          18.1764   10.0652   15.7008 H         1 NAI358      0.0000 
     49 H          19.4375    8.9899   17.2654 H         1 NAI358      0.0000 
     50 H          21.3367    8.3503   15.0619 H         1 NAI358      0.0000 
     51 H          20.9768    8.7835   18.8267 H         1 NAI358      0.0000 
     52 H          26.5358    5.9322   19.1895 H         1 NAI358      0.0000 
     53 H          25.2025    6.6549   20.1516 H         1 NAI358      0.0000 
     54 H          25.5522    6.5316   14.9049 H         1 NAI358      0.0000 
     55 H          19.8032   16.4324   13.4389 H         1 NAI358      0.0000 
     56 H          20.4773   15.0114   14.2553 H         1 NAI358      0.0000 
     57 H          22.0916   16.7732   14.3991 H         1 NAI358      0.0000 
     58 H          21.1183   15.5982   16.6479 H         1 NAI358      0.0000 
     59 H          19.8085   17.3654   17.3036 H         1 NAI358      0.0000 
     60 H          21.9783   19.1641   16.3980 H         1 NAI358      0.0000 
     61 H          18.3615   18.8140   15.7241 H         1 NAI358      0.0000 
     62 H          16.6507   18.7373   15.2554 H         1 NAI358      0.0000 
     63 H          14.9515   19.3147   15.1845 H         1 NAI358      0.0000 
     64 H          17.5511   22.1842   17.8640 H         1 NAI358      0.0000 
     65 H          17.9019   22.7999   16.2398 H         1 NAI358      0.0000 
     66 H          19.8957   22.9429   17.7126 H         1 NAI358      0.0000 
     67 H          21.4499   21.1515   17.2586 H         1 NAI358      0.0000 
     68 H          19.7075    8.6851   13.7189 H         1 NAI358      0.0000 
     69 H          19.6946    6.9224   15.2709 H         1 NAI358      0.0000 
     70 H          23.1880   15.7975   17.1367 H         1 NAI358      0.0000 
     71 H          20.8818   18.4710   18.9861 H         1 NAI358      0.0000 
@<TRIPOS>BOND
     1    2    1 ar   
     2    3    1 ar   
     3    4    1 1    
     4   23    1 1    
     5    5    4 1    
     6    6    5 1    
     7   45    5 1    
     8   46    5 1    
     9    7    6 1    
    10    8    6 1    
    11   47    6 1    
    12   12    7 1    
    13    9    8 1    
    14   10    8 1    
    15   48    8 1    
    16   68    9 1    
    17   11   10 1    
    18   12   10 1    
    19   49   10 1    
    20   69   11 1    
    21   13   12 1    
    22   50   12 1    
    23   14   13 1    
    24   22   13 1    
    25   15   14 2    
    26   51   14 1    
    27   16   15 1    
    28   17   16 ar   
    29   22   16 ar   
    30   18   17 1    
    31   19   17 ar   
    32   52   18 1    
    33   53   18 1    
    34   20   19 ar   
    35   21   20 ar   
    36   54   20 1    
    37   22   21 ar   
    38   24   23 1    
    39   25   24 ar   
    40   26   24 ar   
    41   27   24 1    
    42   28   27 1    
    43   29   28 1    
    44   55   28 1    
    45   56   28 1    
    46   30   29 1    
    47   31   29 1    
    48   57   29 1    
    49   35   30 1    
    50   32   31 1    
    51   33   31 1    
    52   58   31 1    
    53   70   32 1    
    54   34   33 1    
    55   35   33 1    
    56   59   33 1    
    57   71   34 1    
    58   36   35 1    
    59   60   35 1    
    60   37   36 1    
    61   44   36 1    
    62   38   37 2    
    63   61   37 1    
    64   39   38 1    
    65   42   38 1    
    66   40   39 2    
    67   41   39 am   
    68   62   41 1    
    69   63   41 1    
    70   43   42 1    
    71   64   42 1    
    72   65   42 1    
    73   44   43 2    
    74   66   43 1    
    75   67   44 1    
@<TRIPOS>SUBSTRUCTURE
     1 NAI358      1 GROUP   
@<TRIPOS>SET

