#    Name: 3uol_0C7_2_INTS_M
#    Modification time : Mon Mar 24 23:10:16 2014

@<TRIPOS>MOLECULE
3uol_0C7_2_INTS_M
   69     0     9     0     0
SMALL
NO_CHARGES


@<TRIPOS>ATOM
      1 CA        -23.4545  -17.5100   10.5695 C.3       3 GLC5        0.0000 
      2 CA        -24.3410  -17.2090    8.9340 C.3       9 GLL5        0.0000 
      3 CA        -22.5680  -17.8110   12.2050 C.3       6 GLP5        0.0000 
      4 CA        -23.7945  -15.8920    9.8965 C.3       3 GLC5        0.0000 
      5 CA        -23.2480  -14.5750   10.8590 C.3       6 GLP5        0.0000 
      6 CA        -27.9280  -20.4130    6.1540 C.3       3 GLC5        0.0000 
      7 CA        -26.7380  -20.2400    7.9540 C.3       9 GLL5        0.0000 
      8 CA        -29.1180  -20.5860    4.3540 C.3       6 GLP5        0.0000 
      9 CA        -23.4840  -22.8660    7.7525 C.3       3 GLC5        0.0000 
     10 CA        -24.4630  -21.0050    7.7910 C.3       9 GLL5        0.0000 
     11 CA        -22.5050  -24.7270    7.7140 C.3       6 GLP5        0.0000 
     12 CA        -18.5135  -20.7745   12.1785 C.3       3 GLC5        0.0000 
     13 CA        -19.9790  -19.7810   10.8440 C.3       9 GLL5        0.0000 
     14 CA        -17.0480  -21.7680   13.5130 C.3       6 GLP5        0.0000 
     15 N         -19.9075  -21.2005   12.9715 N.am      2 SEC2        0.0000 
     16 N         -20.5260  -20.8060   11.5230 N.am      8 SEL2        0.0000 
     17 N         -19.2890  -21.5950   14.4200 N.am      5 SEP2        0.0000 
     18 CA        -21.0315  -22.8535   10.0655 C.3       3 GLC5        0.0000 
     19 CA        -21.6770  -21.3700   11.1530 C.3       9 GLL5        0.0000 
     20 CA        -20.3860  -24.3370    8.9780 C.3       6 GLP5        0.0000 
     21 CA        -21.4285  -20.8145   13.2045 C.3       3 GLC5        0.0000 
     22 CA        -21.1800  -20.2590   15.2560 C.3       6 GLP5        0.0000 
     23 CA        -22.1225  -19.5905   11.6790 C.3       3 GLC5        0.0000 
     24 O         -22.1025  -22.6615   13.3090 O.2       1 ALC1        0.0000 
     25 O         -22.1550  -22.4390   11.9520 O.2       7 ALL1        0.0000 
     26 O         -22.0500  -22.8840   14.6660 O.2       4 ALP1        0.0000 
     27 CA        -21.8385  -23.8010   10.3285 C.3       3 GLC5        0.0000 
     28 CA        -23.2910  -23.2650   11.6790 C.3       9 GLL5        0.0000 
     29 N         -25.3790  -28.2720   10.0900 N.am      2 SEC2        0.0000 
     30 N         -26.4630  -27.1780   10.5600 N.am      8 SEL2        0.0000 
     31 N         -24.2950  -29.3660    9.6200 N.am      5 SEP2        0.0000 
     32 CA        -26.8453  -19.3615    9.8345 C.3       3 GLC5        0.0000 
     33 CA        -24.9490  -18.7460    8.4430 C.3       9 GLL5        0.0000 
     34 CA        -28.0640  -19.8600   11.2780 C.3       6 GLP5        0.0000 
     35 CA        -25.5035  -18.9925    6.6162 C.3       3 GLC5        0.0000 
     36 CA        -26.3040  -18.9800    8.3390 C.3       9 GLL5        0.0000 
     37 CA        -24.4860  -18.3750    5.0860 C.3       6 GLP5        0.0000 
     38 CA        -27.1713  -20.3015    9.5463 C.3       3 GLC5        0.0000 
     39 CA        -27.5388  -22.4600    7.7287 C.3       3 GLC5        0.0000 
     40 CA        -28.7990  -24.1770    7.6430 C.3       6 GLP5        0.0000 
     41 CA        -25.1755  -22.1883    6.0735 C.3       3 GLC5        0.0000 
     42 CA        -25.8190  -21.2460    7.6750 C.3       9 GLL5        0.0000 
     43 CA        -25.2100  -23.2510    4.4140 C.3       6 GLP5        0.0000 
     44 CA        -24.8135  -19.7502    6.4095 C.3       3 GLC5        0.0000 
     45 CA        -24.7209  -19.2508   10.3540 C.3       3 GLC5        0.0000 
     46 CA        -24.0330  -19.7500    8.1770 C.3       9 GLL5        0.0000 
     47 CA        -24.6120  -19.1950   12.4240 C.3       6 GLP5        0.0000 
     48 CA        -24.4125  -18.6194    6.7594 C.3       3 GLC5        0.0000 
     49 CA        -20.5115  -20.4770    7.8985 C.3       3 GLC5        0.0000 
     50 CA        -21.8850  -19.8980    9.3980 C.3       9 GLL5        0.0000 
     51 CA        -19.7440  -21.3600    6.2290 C.3       6 GLP5        0.0000 
     52 CA        -18.8050  -20.6513    9.7485 C.3       3 GLC5        0.0000 
     53 CA        -20.6730  -19.2900    9.7380 C.3       9 GLL5        0.0000 
     54 CA        -17.2840  -21.7670    9.2060 C.3       6 GLP5        0.0000 
     55 CA        -19.6825  -17.9617   10.9010 C.3       3 GLC5        0.0000 
     56 CA        -19.0390  -16.3880   11.5110 C.3       6 GLP5        0.0000 
     57 CA        -21.5985  -18.7492   11.2055 C.3       3 GLC5        0.0000 
     58 CA        -24.6603  -23.1460   13.1088 C.3       3 GLC5        0.0000 
     59 CA        -25.9720  -22.4480   14.1550 C.3       6 GLP5        0.0000 
     60 CA        -24.1908  -21.1532   11.8140 C.3       3 GLC5        0.0000 
     61 CA        -22.7495  -25.7195   10.7258 C.3       3 GLC5        0.0000 
     62 CA        -23.4060  -24.4230   12.4460 C.3       9 GLL5        0.0000 
     63 CA        -21.5670  -26.5800    9.0980 C.3       6 GLP5        0.0000 
     64 CA        -25.4537  -23.7968   12.9697 C.3       3 GLC5        0.0000 
     65 CA        -24.4580  -25.2950   12.2610 C.3       9 GLL5        0.0000 
     66 CA        -23.6438  -24.0615    9.1750 C.3       3 GLC5        0.0000 
     67 CA        -25.3170  -23.8340   10.5430 C.3       9 GLL5        0.0000 
     68 CA        -25.3773  -22.9220   12.3955 C.3       3 GLC5        0.0000 
     69 CA        -24.2480  -22.9580   10.7290 C.3       9 GLL5        0.0000 
@<TRIPOS>BOND
@<TRIPOS>SUBSTRUCTURE
     1 ALC1       24 GROUP        1 X    ALC  0     ROOT ALC X 1
     2 SEC2       15 GROUP        1 X    SEC  0     **** SEC X 2
     3 GLC5        1 GROUP        1 X    GLC  0     **** GLC X 6
     4 ALP1       26 GROUP        1 Y    ALP  0     ROOT ALP Y 8
     5 SEP2       17 GROUP        1 Y    SEP  0     **** SEP Y 9
     6 GLP5        3 GROUP        1 Y    GLP  0     **** GLP Y 13
     7 ALL1       25 GROUP        1 Z    ALL  0     ROOT ALL Z 15
     8 SEL2       16 GROUP        1 Z    SEL  0     **** SEL Z 16
     9 GLL5        2 GROUP        1 Z    GLL  0     **** GLL Z 20
@<TRIPOS>SET

