#    Name: 3uol_0C7_2_ligand
#    Modification time : Mon Mar 24 23:10:16 2014

@<TRIPOS>MOLECULE
3uol_0C7_2_ligand
   39    42     1     0     0
SMALL
NO_CHARGES


@<TRIPOS>ATOM
      1 CL2       -24.3410  -17.2090    8.9340 Cl        1 0C71        0.0000 
      2 C02       -24.9490  -18.7460    8.4430 C.ar      1 0C71        0.0000 
      3 C03       -26.3040  -18.9800    8.3390 C.ar      1 0C71        0.0000 
      4 C04       -26.7380  -20.2400    7.9540 C.ar      1 0C71        0.0000 
      5 C05       -25.8190  -21.2460    7.6750 C.ar      1 0C71        0.0000 
      6 C06       -24.4630  -21.0050    7.7910 C.ar      1 0C71        0.0000 
      7 C07       -24.0330  -19.7500    8.1770 C.ar      1 0C71        0.0000 
      8 N08       -22.6370  -19.4280    8.2850 N.pl3     1 0C71        0.0000 
      9 C09       -21.8850  -19.8980    9.3980 C.ar      1 0C71        0.0000 
     10 C10       -20.6730  -19.2900    9.7380 C.ar      1 0C71        0.0000 
     11 C11       -19.9790  -19.7810   10.8440 C.ar      1 0C71        0.0000 
     12 N12       -20.5260  -20.8060   11.5230 N.ar      1 0C71        0.0000 
     13 C13       -21.6770  -21.3700   11.1530 C.ar      1 0C71        0.0000 
     14 N14       -22.1550  -22.4390   11.9520 N.pl3     1 0C71        0.0000 
     15 C15       -23.2910  -23.2650   11.6790 C.ar      1 0C71        0.0000 
     16 C16       -23.4060  -24.4230   12.4460 C.ar      1 0C71        0.0000 
     17 C17       -24.4580  -25.2950   12.2610 C.ar      1 0C71        0.0000 
     18 C18       -25.4130  -24.9960   11.3080 C.ar      1 0C71        0.0000 
     19 C19       -26.5450  -25.9540   11.1360 C.2       1 0C71        0.0000 
     20 N20       -26.4630  -27.1780   10.5600 N.2       1 0C71        0.0000 
     21 N21       -27.7020  -27.7460   10.6020 N.2       1 0C71        0.0000 
     22 N22       -28.5440  -26.8740   11.1990 N.2       1 0C71        0.0000 
     23 N23       -27.8250  -25.7590   11.5380 N.pl3     1 0C71        0.0000 
     24 C24       -25.3170  -23.8340   10.5430 C.ar      1 0C71        0.0000 
     25 C25       -24.2480  -22.9580   10.7290 C.ar      1 0C71        0.0000 
     26 N26       -22.3710  -20.9330   10.1100 N.ar      1 0C71        0.0000 
     27 H         -26.9803  -18.2399    8.5414 H         1 0C71        0.0000 
     28 H         -27.7480  -20.4337    7.8737 H         1 0C71        0.0000 
     29 H         -26.1553  -22.1761    7.3800 H         1 0C71        0.0000 
     30 H         -23.7850  -21.7482    7.5931 H         1 0C71        0.0000 
     31 H         -22.1938  -18.8663    7.5661 H         1 0C71        0.0000 
     32 H         -20.3102  -18.5150    9.1958 H         1 0C71        0.0000 
     33 H         -19.0884  -19.3612   11.1103 H         1 0C71        0.0000 
     34 H         -21.6180  -22.6527   12.8463 H         1 0C71        0.0000 
     35 H         -22.6869  -24.6259   13.1643 H         1 0C71        0.0000 
     36 H         -24.5316  -26.1499   12.8196 H         1 0C71        0.0000 
     37 H         -28.1715  -24.9847   11.9797 H         1 0C71        0.0000 
     38 H         -26.0367  -23.6224    9.8396 H         1 0C71        0.0000 
     39 H         -24.1779  -22.1061   10.1708 H         1 0C71        0.0000 
@<TRIPOS>BOND
     1    2    1 1    
     2    3    2 ar   
     3    7    2 ar   
     4    4    3 ar   
     5   27    3 1    
     6    5    4 ar   
     7   28    4 1    
     8    6    5 ar   
     9   29    5 1    
    10    7    6 ar   
    11   30    6 1    
    12    8    7 1    
    13    9    8 1    
    14   31    8 1    
    15   10    9 ar   
    16   26    9 ar   
    17   11   10 ar   
    18   32   10 1    
    19   12   11 ar   
    20   33   11 1    
    21   13   12 ar   
    22   14   13 1    
    23   26   13 ar   
    24   15   14 1    
    25   34   14 1    
    26   16   15 ar   
    27   25   15 ar   
    28   17   16 ar   
    29   35   16 1    
    30   18   17 ar   
    31   36   17 1    
    32   19   18 1    
    33   24   18 ar   
    34   20   19 2    
    35   23   19 1    
    36   21   20 1    
    37   22   21 2    
    38   23   22 1    
    39   37   23 1    
    40   25   24 ar   
    41   38   24 1    
    42   39   25 1    
@<TRIPOS>SUBSTRUCTURE
     1 0C71        1 GROUP   
@<TRIPOS>SET

