#    Name: 3M04_1_CAVITY_N1_ALL.mol2
#    Modification time : Tue Mar 11 12:36:04 2014

@<TRIPOS>MOLECULE
3M04_1_CAVITY_N1_ALL.mol2
   85     0     6     0     0
SMALL
NO_CHARGES


@<TRIPOS>ATOM
      1 CA         20.3189   11.1676   14.8336 C.3       5 GLY6        0.0000 
      2 CA         20.2535    9.2880   15.8148 C.3       5 GLY6        0.0000 
      3 CA         19.2288   10.2920   15.3768 C.3       5 GLY6        0.0000 
      4 CA         20.1454    8.5986   14.4870 C.3       5 GLY6        0.0000 
      5 DU         19.1207    9.6027   14.0490 H         6 CUB7        0.0000 
      6 CA         20.0374    7.9092   13.1592 C.3       5 GLY6        0.0000 
      7 DU         19.0127    8.9133   12.7212 H         6 CUB7        0.0000 
      8 N          20.9540    6.2157   12.2693 N.2       2 ALA2        0.0000 
      9 DU         19.9293    7.2198   11.8314 H         6 CUB7        0.0000 
     10 CZ         20.8460    5.5263   10.9415 C.ar      4 PHE5        0.0000 
     11 DU         19.8213    6.5304   10.5036 H         6 CUB7        0.0000 
     12 DU         18.7966    7.5345   10.0656 H         6 CUB7        0.0000 
     13 CA         20.7379    4.8369    9.6137 C.3       5 GLY6        0.0000 
     14 O          19.7132    5.8410    9.1757 O.2       2 ALA2        0.0000 
     15 O          18.6885    6.8451    8.7378 O.2       2 ALA2        0.0000 
     16 CA         19.0554    7.7230   15.0303 C.3       5 GLY6        0.0000 
     17 CA         18.0307    8.7271   14.5923 C.3       5 GLY6        0.0000 
     18 CZ         17.0059    9.7312   14.1544 C.ar      4 PHE5        0.0000 
     19 OG         19.9720    6.0296   14.1404 O.2       1 SER1        0.0000 
     20 OG         18.9473    7.0337   13.7024 O.2       1 SER1        0.0000 
     21 DU         17.9226    8.0377   13.2645 H         6 CUB7        0.0000 
     22 CZ         16.8979    9.0418   12.8266 C.ar      4 PHE5        0.0000 
     23 CZ         15.8732   10.0459   12.3887 C.ar      4 PHE5        0.0000 
     24 OG         19.8639    5.3402   12.8126 O.2       1 SER1        0.0000 
     25 OG         18.8392    6.3443   12.3746 O.2       1 SER1        0.0000 
     26 DU         16.7898    8.3524   11.4988 H         6 CUB7        0.0000 
     27 OG         19.7559    4.6508   11.4848 O.2       1 SER1        0.0000 
     28 O          18.7312    5.6549   11.0468 O.2       2 ALA2        0.0000 
     29 DU         17.7065    6.6590   10.6089 H         6 CUB7        0.0000 
     30 O          16.6818    7.6630   10.1710 O.2       2 ALA2        0.0000 
     31 O          19.6478    3.9614   10.1570 O.2       2 ALA2        0.0000 
     32 O          17.5984    5.9696    9.2811 O.2       2 ALA2        0.0000 
     33 O          16.5737    6.9737    8.8432 O.2       2 ALA2        0.0000 
     34 CA         16.9406    7.8516   15.1356 C.3       5 GLY6        0.0000 
     35 CZ         15.9159    8.8557   14.6977 C.ar      4 PHE5        0.0000 
     36 OG         17.8572    6.1581   14.2457 O.2       1 SER1        0.0000 
     37 DU         16.8325    7.1622   13.8078 H         6 CUB7        0.0000 
     38 CZ         15.8078    8.1663   13.3699 C.ar      4 PHE5        0.0000 
     39 CZ         14.7831    9.1704   12.9320 C.ar      4 PHE5        0.0000 
     40 CZ         13.7584   10.1745   12.4940 C.ar      4 PHE5        0.0000 
     41 OG         17.7491    5.4687   12.9179 O.2       1 SER1        0.0000 
     42 DU         16.7244    6.4728   12.4800 H         6 CUB7        0.0000 
     43 O          15.6997    7.4769   12.0421 O.2       2 ALA2        0.0000 
     44 O          14.6750    8.4810   11.6041 O.2       2 ALA2        0.0000 
     45 OG         18.6658    3.7753   12.0280 O.2       1 SER1        0.0000 
     46 DU         17.6411    4.7793   11.5901 H         6 CUB7        0.0000 
     47 O          16.6164    5.7834   11.1522 O.2       2 ALA2        0.0000 
     48 O          15.5917    6.7875   10.7143 O.2       2 ALA2        0.0000 
     49 CZ         19.5824    2.0818   11.1382 C.ar      4 PHE5        0.0000 
     50 O          18.5577    3.0859   10.7002 O.2       2 ALA2        0.0000 
     51 O          17.5330    4.0900   10.2623 O.2       2 ALA2        0.0000 
     52 N          16.5083    5.0940    9.8244 N.2       2 ALA2        0.0000 
     53 CA         15.8505    6.9761   15.6789 C.3       5 GLY6        0.0000 
     54 CA         14.8258    7.9802   15.2410 C.3       5 GLY6        0.0000 
     55 OG         16.7671    5.2826   14.7890 O.2       1 SER1        0.0000 
     56 CA         15.7424    6.2867   14.3511 C.3       5 GLY6        0.0000 
     57 CA         14.7177    7.2908   13.9132 C.3       5 GLY6        0.0000 
     58 CA         13.6930    8.2949   13.4752 C.3       5 GLY6        0.0000 
     59 OG         16.6591    4.5932   13.4612 O.2       1 SER1        0.0000 
     60 O          15.6343    5.5973   13.0233 O.2       2 ALA2        0.0000 
     61 O          14.6096    6.6014   12.5854 O.2       2 ALA2        0.0000 
     62 OG         17.5757    2.8997   12.5713 O.2       1 SER1        0.0000 
     63 O          16.5510    3.9038   12.1334 O.2       2 ALA2        0.0000 
     64 O          15.5263    4.9079   11.6955 O.2       2 ALA2        0.0000 
     65 CA         18.4923    1.2062   11.6815 C.3       5 GLY6        0.0000 
     66 DU         17.4676    2.2103   11.2435 H         6 CUB7        0.0000 
     67 N          16.4429    3.2144   10.8056 N.2       2 ALA2        0.0000 
     68 CA         18.3843    0.5169   10.3536 C.3       5 GLY6        0.0000 
     69 CA         17.3596    1.5209    9.9157 C.3       5 GLY6        0.0000 
     70 CA         16.8098    4.0924   17.0980 C.3       5 GLY6        0.0000 
     71 CA         14.7604    6.1006   16.2222 C.3       5 GLY6        0.0000 
     72 OG         16.7017    3.4030   15.7702 O.2       1 SER1        0.0000 
     73 CA         15.6770    4.4071   15.3323 C.3       5 GLY6        0.0000 
     74 CA         14.6523    5.4112   14.8944 C.3       5 GLY6        0.0000 
     75 N          16.5937    2.7136   14.4424 N.2       2 ALA2        0.0000 
     76 N          15.5690    3.7177   14.0045 N.2       2 ALA2        0.0000 
     77 N          16.4856    2.0242   13.1146 N.2       2 ALA2        0.0000 
     78 CA         17.4023    0.3307   12.2247 C.3       5 GLY6        0.0000 
     79 CA         16.3775    1.3348   11.7868 C.3       5 GLY6        0.0000 
     80 CA         14.8031    4.9103   18.5312 C.3       5 GLY6        0.0000 
     81 O          15.7197    3.2169   17.6413 O.2       2 ALA2        0.0000 
     82 CA         14.6950    4.2209   17.2034 C.3       5 GLY6        0.0000 
     83 CA         13.6703    5.2250   16.7655 C.3       5 GLY6        0.0000 
     84 OD1        15.6116    2.5275   16.3135 O.3       3 ASP3        0.0000 
     85 N          14.5869    3.5316   15.8756 N.2       2 ALA2        0.0000 
@<TRIPOS>BOND
@<TRIPOS>SUBSTRUCTURE
     1 SER1       19 GROUP   
     2 ALA2        8 GROUP   
     3 ASP3       84 GROUP   
     4 PHE5       10 GROUP   
     5 GLY6        1 GROUP   
     6 CUB7        5 GROUP   
@<TRIPOS>SET

