#    Name: 3m04_BE9_1_INTS_M
#    Modification time : Mon Mar 24 22:32:08 2014

@<TRIPOS>MOLECULE
3m04_BE9_1_INTS_M
   51     0    12     0     0
SMALL
NO_CHARGES


@<TRIPOS>ATOM
      1 CA         16.5135    6.4500   16.0395 C.3       4 GLC5        0.0000 
      2 CA         16.4560    6.2020   13.9650 C.3      12 GLL5        0.0000 
      3 CA         16.5710    6.6980   18.1140 C.3       8 GLP5        0.0000 
      4 CA         17.9205    7.6170   15.8135 C.3       4 GLC5        0.0000 
      5 CA         17.1120    7.4420   13.9850 C.3      12 GLL5        0.0000 
      6 CA         18.7290    7.7920   17.6420 C.3       8 GLP5        0.0000 
      7 CA         13.3435    5.8465   14.3455 C.3       4 GLC5        0.0000 
      8 CA         15.1330    6.1190   13.5300 C.3      12 GLL5        0.0000 
      9 CA         11.5540    5.5740   15.1610 C.3       8 GLP5        0.0000 
     10 CA         15.0745    1.6070   12.0870 C.3       4 GLC5        0.0000 
     11 CA         16.5630    2.5980   11.5160 C.3      12 GLL5        0.0000 
     12 CA         13.5860    0.6160   12.6580 C.3       8 GLP5        0.0000 
     13 CA         19.1610    1.0585    9.8290 C.3       4 GLC5        0.0000 
     14 CA         17.8300    1.8690   10.9790 C.3      12 GLL5        0.0000 
     15 CA         20.4920    0.2480    8.6790 C.3       8 GLP5        0.0000 
     16 CA         16.8735    0.4470    9.8095 C.3       4 GLC5        0.0000 
     17 CA         15.9170   -0.9750    8.6400 C.3       8 GLP5        0.0000 
     18 CA         18.8380    1.5170   12.6730 C.3       4 GLC5        0.0000 
     19 CA         19.8460    1.1650   14.3670 C.3       8 GLP5        0.0000 
     20 N          18.4485    3.3520    8.8375 N.am      2 SEC2        0.0000 
     21 N          18.5920    2.7980   10.1770 N.am     10 SEL2        0.0000 
     22 N          18.3050    3.9060    7.4980 N.am      6 SEP2        0.0000 
     23 CA         21.0585    3.2285   11.3225 C.3       4 GLC5        0.0000 
     24 CA         19.0970    3.8720   11.0290 C.3      12 GLL5        0.0000 
     25 CA         23.0200    2.5850   11.6160 C.3       8 GLP5        0.0000 
     26 CA         20.5430    3.1085    9.6635 C.3       4 GLC5        0.0000 
     27 CA         21.9890    2.3450    8.2980 C.3       8 GLP5        0.0000 
     28 CA         19.8360    3.1555   12.8870 C.3       4 GLC5        0.0000 
     29 CA         20.5750    2.4390   14.7450 C.3       8 GLP5        0.0000 
     30 N          18.1540    3.1920   14.5630 N.am      2 SEC2        0.0000 
     31 N          16.6440    2.8460   14.2930 N.am     10 SEL2        0.0000 
     32 N          19.6640    3.5380   14.8330 N.am      6 SEP2        0.0000 
     33 Zn         15.5755    1.6410   14.8705 Zn        3 ZIC7        0.0000 
     34 Zn         16.6440    2.8460   14.2930 Zn       11 ZIL7        0.0000 
     35 Zn         14.5070    0.4360   15.4480 Zn        7 ZIP7        0.0000 
     36 O          16.6985    0.7035   17.0730 O.2       1 ALC1        0.0000 
     37 O          15.8100    1.5060   16.4240 O.2       9 ALL1        0.0000 
     38 O          17.5870   -0.0990   17.7220 O.2       5 ALP1        0.0000 
     39 Zn         15.1585    0.9710   15.9360 Zn        3 ZIC7        0.0000 
     40 Zn         15.8100    1.5060   16.4240 Zn       11 ZIL7        0.0000 
     41 N          17.9250    2.9330   17.8265 N.am      2 SEC2        0.0000 
     42 N          17.3900    3.4640   16.5750 N.am     10 SEL2        0.0000 
     43 N          18.4600    2.4020   19.0780 N.am      6 SEP2        0.0000 
     44 N          18.8510    2.7830   16.8810 N.am      2 SEC2        0.0000 
     45 N          20.3120    2.1020   17.1870 N.am      6 SEP2        0.0000 
     46 N          18.5270    3.5010   15.7040 N.am      2 SEC2        0.0000 
     47 CA         13.1502    7.5777   12.0520 C.3       4 GLC5        0.0000 
     48 CA         14.4030    7.2620   13.1570 C.3      12 GLL5        0.0000 
     49 CA         11.5840    7.2680   10.9210 C.3       8 GLP5        0.0000 
     50 CA         13.2733    7.9278   14.5335 C.3       4 GLC5        0.0000 
     51 CA         11.8300    7.9680   15.8840 C.3       8 GLP5        0.0000 
@<TRIPOS>BOND
@<TRIPOS>SUBSTRUCTURE
     1 ALC1       36 GROUP        1 X    ALC  0     ROOT ALC X 1
     2 SEC2       20 GROUP        1 X    SEC  0     **** SEC X 2
     3 ZIC7       33 GROUP        1 X    ZIC  0     **** ZIC X 5
     4 GLC5        1 GROUP        1 X    GLC  0     **** GLC X 6
     5 ALP1       38 GROUP        1 Y    ALP  0     ROOT ALP Y 8
     6 SEP2       22 GROUP        1 Y    SEP  0     **** SEP Y 9
     7 ZIP7       35 GROUP        1 Y    ZIP  0     **** ZIP Y 12
     8 GLP5        3 GROUP        1 Y    GLP  0     **** GLP Y 13
     9 ALL1       37 GROUP        1 Z    ALL  0     ROOT ALL Z 15
    10 SEL2       21 GROUP        1 Z    SEL  0     **** SEL Z 16
    11 ZIL7       34 GROUP        1 Z    ZIL  0     **** ZIL Z 19
    12 GLL5        2 GROUP        1 Z    GLL  0     **** GLL Z 20
@<TRIPOS>SET

