#    Name: 3m04_BE9_1_ligand
#    Modification time : Mon Mar 24 22:32:08 2014

@<TRIPOS>MOLECULE
3m04_BE9_1_ligand
   33    34     1     0     0
SMALL
NO_CHARGES


@<TRIPOS>ATOM
      1 C4         16.4560    6.2020   13.9650 C.ar      1 BE9502      0.0000 
      2 C5         17.1120    7.4420   13.9850 C.ar      1 BE9502      0.0000 
      3 C6         16.3640    8.5620   13.6270 C.ar      1 BE9502      0.0000 
      4 C8         16.8760    3.8800   13.5630 C.2       1 BE9502      0.0000 
      5 C15        17.8360    4.6790   11.4320 C.3       1 BE9502      0.0000 
      6 C2         14.4030    7.2620   13.1570 C.ar      1 BE9502      0.0000 
      7 C3         15.1330    6.1190   13.5300 C.ar      1 BE9502      0.0000 
      8 O7         17.1780    5.0380   14.1970 O.3       1 BE9502      0.0000 
      9 N14        16.9670    3.8010   12.2470 N.pl3     1 BE9502      0.0000 
     10 C19        16.5630    2.5980   11.5160 C.3       1 BE9502      0.0000 
     11 C18        17.8300    1.8690   10.9790 C.3       1 BE9502      0.0000 
     12 O17        18.5920    2.7980   10.1770 O.3       1 BE9502      0.0000 
     13 C16        19.0970    3.8720   11.0290 C.3       1 BE9502      0.0000 
     14 N9         16.6440    2.8460   14.2930 N.2       1 BE9502      0.0000 
     15 S10        16.1990    2.9910   15.8870 S.o2      1 BE9502      0.0000 
     16 N13        15.8100    1.5060   16.4240 N.pl3     1 BE9502      0.0000 
     17 O12        17.3900    3.4640   16.5750 O.2       1 BE9502      0.0000 
     18 O11        15.0420    3.8290   15.9710 O.2       1 BE9502      0.0000 
     19 C1         15.0300    8.5130   13.2090 C.ar      1 BE9502      0.0000 
     20 H          18.0801    7.5148   14.2469 H         1 BE9502      0.0000 
     21 H          16.8313    9.5072   13.6734 H         1 BE9502      0.0000 
     22 H          18.1549    5.5428   11.9981 H         1 BE9502      0.0000 
     23 H          17.3327    4.9921   10.5281 H         1 BE9502      0.0000 
     24 H          13.4361    7.1783   12.8550 H         1 BE9502      0.0000 
     25 H          14.6709    5.1917   13.4785 H         1 BE9502      0.0000 
     26 H          15.9371    2.8443   10.6618 H         1 BE9502      0.0000 
     27 H          16.0303    1.9026   12.1600 H         1 BE9502      0.0000 
     28 H          17.4922    1.0140   10.3997 H         1 BE9502      0.0000 
     29 H          18.3929    1.5185   11.8399 H         1 BE9502      0.0000 
     30 H          19.5485    3.4924   11.9209 H         1 BE9502      0.0000 
     31 H          19.7545    4.5257   10.4962 H         1 BE9502      0.0000 
     32 H          16.5496    0.9841   16.8490 H         1 BE9502      0.0000 
     33 H          14.5328    9.3552   12.9520 H         1 BE9502      0.0000 
@<TRIPOS>BOND
     1    2    1 ar   
     2    7    1 ar   
     3    8    1 1    
     4    3    2 ar   
     5   20    2 1    
     6   19    3 ar   
     7   21    3 1    
     8    8    4 1    
     9    9    4 1    
    10   14    4 2    
    11    9    5 1    
    12   13    5 1    
    13   22    5 1    
    14   23    5 1    
    15    7    6 ar   
    16   19    6 ar   
    17   24    6 1    
    18   25    7 1    
    19   10    9 1    
    20   11   10 1    
    21   26   10 1    
    22   27   10 1    
    23   12   11 1    
    24   28   11 1    
    25   29   11 1    
    26   13   12 1    
    27   30   13 1    
    28   31   13 1    
    29   15   14 1    
    30   16   15 1    
    31   17   15 2    
    32   18   15 2    
    33   32   16 1    
    34   33   19 1    
@<TRIPOS>SUBSTRUCTURE
     1 BE9502      1 GROUP   
@<TRIPOS>SET

