#    Name: 3h3q_H13_2_INTS_M
#    Modification time : Tue Mar 25 13:32:27 2014

@<TRIPOS>MOLECULE
3h3q_H13_2_INTS_M
   78     0     9     0     0
SMALL
NO_CHARGES


@<TRIPOS>ATOM
      1 N          -3.0395    1.0080   -3.3050 N.am      2 SEC2        0.0000 
      2 N          -4.2620    0.7080   -3.9620 N.am      8 SEL2        0.0000 
      3 N          -1.8170    1.3080   -2.6480 N.am      5 SEP2        0.0000 
      4 O          -6.0980    1.2870   -7.1120 O.2       1 ALC1        0.0000 
      5 O          -5.3860    0.4890   -5.8670 O.2       7 ALL1        0.0000 
      6 O          -6.8100    2.0850   -8.3570 O.2       4 ALP1        0.0000 
      7 CA         -6.4255   -0.1120   -3.4035 C.3       3 GLC5        0.0000 
      8 CA         -6.3450   -0.5380   -5.4590 C.3       9 GLL5        0.0000 
      9 CA         -6.5060    0.3140   -1.3480 C.3       6 GLP5        0.0000 
     10 CA         -9.4545    0.2010   -6.5010 C.3       3 GLC5        0.0000 
     11 CA         -7.6700   -0.2540   -6.1460 C.3       9 GLL5        0.0000 
     12 CA        -11.2390    0.6560   -6.8560 C.3       6 GLP5        0.0000 
     13 CA         -8.2575    1.4475   -5.3800 C.3       3 GLC5        0.0000 
     14 CA         -8.8450    3.1490   -4.6140 C.3       6 GLP5        0.0000 
     15 N          -6.7535   -1.2885   -8.6010 N.am      2 SEC2        0.0000 
     16 N          -7.2900   -0.2510   -7.5460 N.am      8 SEL2        0.0000 
     17 N          -6.2170   -2.3260   -9.6560 N.am      5 SEP2        0.0000 
     18 O          -7.0500    0.9170   -7.9515 O.2       1 ALC1        0.0000 
     19 O          -7.2900   -0.2510   -7.5460 O.2       7 ALL1        0.0000 
     20 CA         -6.6840   -3.5070   -6.3715 C.3       3 GLC5        0.0000 
     21 CA         -5.7950   -1.8900   -5.9460 C.3       9 GLL5        0.0000 
     22 CA         -7.5730   -5.1240   -6.7970 C.3       6 GLP5        0.0000 
     23 N          -5.5015   -2.7450   -3.2255 N.am      2 SEC2        0.0000 
     24 N          -4.3910   -2.1580   -3.9250 N.am      8 SEL2        0.0000 
     25 N          -6.6120   -3.3320   -2.5260 N.am      5 SEP2        0.0000 
     26 CA         -4.7365    4.1430   -4.7365 C.3       3 GLC5        0.0000 
     27 CA         -4.1080    2.5170   -5.4470 C.3       9 GLL5        0.0000 
     28 CA         -5.3650    5.7690   -4.0260 C.3       6 GLP5        0.0000 
     29 CA         -0.7900    2.5125   -5.2340 C.3       3 GLC5        0.0000 
     30 CA         -2.7210    2.4790   -6.0250 C.3       9 GLL5        0.0000 
     31 CA          1.1410    2.5460   -4.4430 C.3       6 GLP5        0.0000 
     32 CA         -2.9055    4.0435   -4.6620 C.3       3 GLC5        0.0000 
     33 CA         -3.0900    5.6080   -3.2990 C.3       6 GLP5        0.0000 
     34 CA         -0.7345    3.8000   -5.4610 C.3       3 GLC5        0.0000 
     35 CA         -2.4850    3.7210   -6.8710 C.3       9 GLL5        0.0000 
     36 CA          1.0160    3.8790   -4.0510 C.3       6 GLP5        0.0000 
     37 CA          0.0555    5.3225   -8.2110 C.3       3 GLC5        0.0000 
     38 CA         -0.9990    3.8470   -7.1790 C.3       9 GLL5        0.0000 
     39 CA          1.1100    6.7980   -9.2430 C.3       6 GLP5        0.0000 
     40 CA          1.4695    2.6045   -7.0525 C.3       3 GLC5        0.0000 
     41 CA          0.6570    3.0670   -8.9670 C.3       9 GLL5        0.0000 
     42 CA          2.2820    2.1420   -5.1380 C.3       6 GLP5        0.0000 
     43 CA         -1.2510    3.9685  -11.0125 C.3       3 GLC5        0.0000 
     44 CA          0.3850    2.8540  -10.4600 C.3       9 GLL5        0.0000 
     45 CA         -2.8870    5.0830  -11.5650 C.3       6 GLP5        0.0000 
     46 CA         -1.6160    0.3430  -11.9795 C.3       3 GLC5        0.0000 
     47 CA         -0.0570    1.4270  -10.8060 C.3       9 GLL5        0.0000 
     48 CA         -3.1750   -0.7410  -13.1530 C.3       6 GLP5        0.0000 
     49 CA         -1.2300   -0.6525  -12.6670 C.3       3 GLC5        0.0000 
     50 CA          0.7150   -0.5640  -12.1810 C.3       9 GLL5        0.0000 
     51 CA          2.3155   -2.5175   -9.6735 C.3       3 GLC5        0.0000 
     52 CA          1.0640   -1.8160  -11.3890 C.3       9 GLL5        0.0000 
     53 CA          3.5670   -3.2190   -7.9580 C.3       6 GLP5        0.0000 
     54 CA         -0.6457   -3.4365   -7.3470 C.3       3 GLC5        0.0000 
     55 CA         -1.8820   -1.8200   -8.1850 C.3       9 GLL5        0.0000 
     56 CA          0.0500   -5.3450   -6.8190 C.3       6 GLP5        0.0000 
     57 CA          0.9792   -1.7143   -6.3020 C.3       3 GLC5        0.0000 
     58 CA         -0.8010   -1.2360   -7.5650 C.3       9 GLL5        0.0000 
     59 CA          2.8060   -2.3660   -5.7140 C.3       6 GLP5        0.0000 
     60 CA         -1.0630   -1.9465   -4.2213 C.3       3 GLC5        0.0000 
     61 CA         -0.8940   -0.8890   -6.2150 C.3       9 GLL5        0.0000 
     62 CA         -0.6390   -2.8850   -2.5590 C.3       6 GLP5        0.0000 
     63 CA         -2.6888   -3.5172   -5.8296 C.3       3 GLC5        0.0000 
     64 CA         -2.0800   -1.1270   -5.5520 C.3       9 GLL5        0.0000 
     65 CA         -2.6210   -5.5040   -5.5690 C.3       6 GLP5        0.0000 
     66 CA         -2.6695    5.3915   -6.1900 C.3       3 GLC5        0.0000 
     67 CA         -3.5970    6.9990   -5.3550 C.3       6 GLP5        0.0000 
     68 CA          0.1773    2.9165   -6.0485 C.3       3 GLC5        0.0000 
     69 CA          0.8155    4.8793   -9.4783 C.3       3 GLC5        0.0000 
     70 CA          1.2397    2.5231  -12.5915 C.3       3 GLC5        0.0000 
     71 CA          1.8330    3.6540  -14.1880 C.3       6 GLP5        0.0000 
     72 CA         -1.3605   -2.1180  -11.9422 C.3       3 GLC5        0.0000 
     73 CA         -3.2110   -1.9200  -12.4870 C.3       6 GLP5        0.0000 
     74 CA          1.1605   -4.1325  -11.4198 C.3       3 GLC5        0.0000 
     75 CA         -0.0840   -2.8160  -11.4060 C.3       9 GLL5        0.0000 
     76 CA          1.8310   -5.9490  -11.4420 C.3       6 GLP5        0.0000 
     77 CA          0.6189   -2.8170  -13.3198 C.3       3 GLC5        0.0000 
     78 CA          0.8350   -3.6310  -15.0440 C.3       6 GLP5        0.0000 
@<TRIPOS>BOND
@<TRIPOS>SUBSTRUCTURE
     1 ALC1        4 GROUP        1 X    ALC  0     ROOT ALC X 1
     2 SEC2        1 GROUP        1 X    SEC  0     **** SEC X 2
     3 GLC5        7 GROUP        1 X    GLC  0     **** GLC X 6
     4 ALP1        6 GROUP        1 Y    ALP  0     ROOT ALP Y 8
     5 SEP2        3 GROUP        1 Y    SEP  0     **** SEP Y 9
     6 GLP5        9 GROUP        1 Y    GLP  0     **** GLP Y 13
     7 ALL1        5 GROUP        1 Z    ALL  0     ROOT ALL Z 15
     8 SEL2        2 GROUP        1 Z    SEL  0     **** SEL Z 16
     9 GLL5        8 GROUP        1 Z    GLL  0     **** GLL Z 20
@<TRIPOS>SET

