#    Name: 3h3q_H13_2_ligand
#    Modification time : Tue Mar 25 13:32:27 2014

@<TRIPOS>MOLECULE
3h3q_H13_2_ligand
   66    66     1     0     0
SMALL
NO_CHARGES


@<TRIPOS>ATOM
      1 O21        -4.2620    0.7080   -3.9620 O.2       1 H13600      0.0000 
      2 C21        -4.5880    1.1490   -5.0330 C.2       1 H13600      0.0000 
      3 N2         -5.3860    0.4890   -5.8670 N.am      1 H13600      0.0000 
      4 C2         -6.3450   -0.5380   -5.4590 C.3       1 H13600      0.0000 
      5 C1         -7.6700   -0.2540   -6.1460 C.3       1 H13600      0.0000 
      6 O1         -7.2900   -0.2510   -7.5460 O.3       1 H13600      0.0000 
      7 C3         -5.7950   -1.8900   -5.9460 C.3       1 H13600      0.0000 
      8 C4         -4.4080   -1.8440   -5.3310 C.3       1 H13600      0.0000 
      9 C5         -3.1710   -1.7540   -6.1600 C.ar      1 H13600      0.0000 
     10 C6         -3.0770   -2.0690   -7.5110 C.ar      1 H13600      0.0000 
     11 C7         -1.8820   -1.8200   -8.1850 C.ar      1 H13600      0.0000 
     12 C8         -0.8010   -1.2360   -7.5650 C.ar      1 H13600      0.0000 
     13 C9         -0.8940   -0.8890   -6.2150 C.ar      1 H13600      0.0000 
     14 C10        -2.0800   -1.1270   -5.5520 C.ar      1 H13600      0.0000 
     15 O4         -4.3910   -2.1580   -3.9250 O.3       1 H13600      0.0000 
     16 C22        -4.1080    2.5170   -5.4470 C.3       1 H13600      0.0000 
     17 C23        -2.7210    2.4790   -6.0250 C.3       1 H13600      0.0000 
     18 C24        -2.4850    3.7210   -6.8710 C.3       1 H13600      0.0000 
     19 C25        -0.9990    3.8470   -7.1790 C.3       1 H13600      0.0000 
     20 C26        -0.5740    2.7270   -8.1290 C.3       1 H13600      0.0000 
     21 C27         0.6570    3.0670   -8.9670 C.3       1 H13600      0.0000 
     22 C28         0.3850    2.8540  -10.4600 C.3       1 H13600      0.0000 
     23 C29        -0.0570    1.4270  -10.8060 C.3       1 H13600      0.0000 
     24 C30         1.1290    0.6440  -11.3570 C.3       1 H13600      0.0000 
     25 C31         0.7150   -0.5640  -12.1810 C.3       1 H13600      0.0000 
     26 C32         1.0640   -1.8160  -11.3890 C.3       1 H13600      0.0000 
     27 C33        -0.0840   -2.8160  -11.4060 C.3       1 H13600      0.0000 
     28 H          -5.3664    0.6814   -6.9094 H         1 H13600      0.0000 
     29 H          -6.4682   -0.5637   -4.4181 H         1 H13600      0.0000 
     30 H          -8.0249    0.6983   -5.8314 H         1 H13600      0.0000 
     31 H          -8.3500   -1.0412   -5.9234 H         1 H13600      0.0000 
     32 H          -5.7314   -1.8865   -6.9897 H         1 H13600      0.0000 
     33 H          -6.3545   -2.6672   -5.5261 H         1 H13600      0.0000 
     34 H          -4.4895   -0.4840   -5.1128 H         1 H13600      0.0000 
     35 H          -3.8724   -2.4778   -8.0052 H         1 H13600      0.0000 
     36 H          -1.8128   -2.0881   -9.1923 H         1 H13600      0.0000 
     37 H           0.0660   -1.0539   -8.0792 H         1 H13600      0.0000 
     38 H          -0.0975   -0.4691   -5.7371 H         1 H13600      0.0000 
     39 H          -2.1742   -0.8285   -4.5522 H         1 H13600      0.0000 
     40 H          -4.1212    3.1844   -4.5738 H         1 H13600      0.0000 
     41 H          -4.8019    2.9340   -6.1906 H         1 H13600      0.0000 
     42 H          -2.6044    1.5957   -6.6482 H         1 H13600      0.0000 
     43 H          -1.9872    2.4491   -5.2232 H         1 H13600      0.0000 
     44 H          -2.8157    4.5977   -6.3262 H         1 H13600      0.0000 
     45 H          -3.0394    3.6373   -7.7985 H         1 H13600      0.0000 
     46 H          -0.4306    3.7706   -6.2588 H         1 H13600      0.0000 
     47 H          -0.8062    4.8057   -7.6472 H         1 H13600      0.0000 
     48 H          -1.4126    2.4932   -8.8032 H         1 H13600      0.0000 
     49 H          -0.3673    1.8193   -7.5410 H         1 H13600      0.0000 
     50 H           1.4877    2.4316   -8.6615 H         1 H13600      0.0000 
     51 H           0.9308    4.1082   -8.7992 H         1 H13600      0.0000 
     52 H           1.2970    3.0917  -11.0265 H         1 H13600      0.0000 
     53 H          -0.3955    3.5573  -10.7846 H         1 H13600      0.0000 
     54 H          -0.8421    1.4683  -11.5513 H         1 H13600      0.0000 
     55 H          -0.4274    0.9420   -9.9109 H         1 H13600      0.0000 
     56 H           1.7579    0.3105  -10.5186 H         1 H13600      0.0000 
     57 H           1.7409    1.3129  -11.9797 H         1 H13600      0.0000 
     58 H           1.2533   -0.5668  -13.1156 H         1 H13600      0.0000 
     59 H          -0.3484   -0.5343  -12.3584 H         1 H13600      0.0000 
     60 H           1.2852   -1.5394  -10.3565 H         1 H13600      0.0000 
     61 H           1.9522   -2.2802  -11.8216 H         1 H13600      0.0000 
     62 H          -0.3092   -3.1071  -12.3358 H         1 H13600      0.0000 
     63 H           0.1346   -3.6413  -10.8853 H         1 H13600      0.0000 
     64 H          -0.9175   -2.4314  -11.0093 H         1 H13600      0.0000 
     65 H          -7.1292    0.7106   -7.7683 H         1 H13600      0.0000 
     66 H          -4.2570   -1.2800   -3.4654 H         1 H13600      0.0000 
@<TRIPOS>BOND
     1    2    1 2    
     2    3    2 am   
     3   16    2 1    
     4    4    3 1    
     5   28    3 1    
     6    5    4 1    
     7    7    4 1    
     8   29    4 1    
     9    6    5 1    
    10   30    5 1    
    11   31    5 1    
    12   65    6 1    
    13    8    7 1    
    14   32    7 1    
    15   33    7 1    
    16    9    8 1    
    17   15    8 1    
    18   34    8 1    
    19   10    9 ar   
    20   14    9 ar   
    21   11   10 ar   
    22   35   10 1    
    23   12   11 ar   
    24   36   11 1    
    25   13   12 ar   
    26   37   12 1    
    27   14   13 ar   
    28   38   13 1    
    29   39   14 1    
    30   66   15 1    
    31   17   16 1    
    32   40   16 1    
    33   41   16 1    
    34   18   17 1    
    35   42   17 1    
    36   43   17 1    
    37   19   18 1    
    38   44   18 1    
    39   45   18 1    
    40   20   19 1    
    41   46   19 1    
    42   47   19 1    
    43   21   20 1    
    44   48   20 1    
    45   49   20 1    
    46   22   21 1    
    47   50   21 1    
    48   51   21 1    
    49   23   22 1    
    50   52   22 1    
    51   53   22 1    
    52   24   23 1    
    53   54   23 1    
    54   55   23 1    
    55   25   24 1    
    56   56   24 1    
    57   57   24 1    
    58   26   25 1    
    59   58   25 1    
    60   59   25 1    
    61   27   26 1    
    62   60   26 1    
    63   61   26 1    
    64   62   27 1    
    65   63   27 1    
    66   64   27 1    
@<TRIPOS>SUBSTRUCTURE
     1 H13600      1 GROUP   
@<TRIPOS>SET

