#    Name: 2ofv_242_1_INTS_M
#    Modification time : Tue Mar 25 22:20:11 2014

@<TRIPOS>MOLECULE
2ofv_242_1_INTS_M
   96     0     9     0     0
SMALL
NO_CHARGES


@<TRIPOS>ATOM
      1 CA         92.1765   36.3915    9.4175 C.3       3 GLC5        0.0000 
      2 CA         91.2450   36.8190   11.0020 C.3       9 GLL5        0.0000 
      3 CA         93.1080   35.9640    7.8330 C.3       6 GLP5        0.0000 
      4 CA         92.6495   35.5400   11.5235 C.3       3 GLC5        0.0000 
      5 CA         94.0540   34.2610   12.0450 C.3       6 GLP5        0.0000 
      6 CA         87.8645   35.4465    9.9665 C.3       3 GLC5        0.0000 
      7 CA         89.7140   34.9910   11.1190 C.3       9 GLL5        0.0000 
      8 CA         86.0150   35.9020    8.8140 C.3       6 GLP5        0.0000 
      9 CA         91.5315   34.0010   11.3325 C.3       3 GLC5        0.0000 
     10 CA         93.3490   33.0110   11.5460 C.3       6 GLP5        0.0000 
     11 N          91.9240   34.8310   10.0865 N.am      2 SEC2        0.0000 
     12 N          90.9290   35.5270   10.7620 N.am      8 SEL2        0.0000 
     13 N          92.9190   34.1350    9.4110 N.am      5 SEP2        0.0000 
     14 CA         91.3565   37.9690   13.4465 C.3       3 GLC5        0.0000 
     15 CA         90.5240   39.0230   11.9540 C.3       9 GLL5        0.0000 
     16 CA         92.1890   36.9150   14.9390 C.3       6 GLP5        0.0000 
     17 O          90.3665   32.6910   10.4255 O.2       1 ALC1        0.0000 
     18 O          89.4720   33.7050   10.8560 O.2       7 ALL1        0.0000 
     19 O          91.2610   31.6770    9.9950 O.2       4 ALP1        0.0000 
     20 CA         88.2495   41.1090   15.0295 C.3       3 GLC5        0.0000 
     21 CA         90.1210   41.5620   14.2370 C.3       9 GLL5        0.0000 
     22 CA         86.3780   40.6560   15.8220 C.3       6 GLP5        0.0000 
     23 CA         89.7590   40.4815    9.4270 C.3       3 GLC5        0.0000 
     24 CA         89.3160   42.0430   10.4030 C.3       9 GLL5        0.0000 
     25 CA         90.2020   38.9200    8.4510 C.3       6 GLP5        0.0000 
     26 CA         88.5780   42.3315    8.6800 C.3       3 GLC5        0.0000 
     27 CA         87.8400   42.6200    6.9570 C.3       6 GLP5        0.0000 
     28 CA         91.1940   42.5650   10.6490 C.3       3 GLC5        0.0000 
     29 CA         93.0720   43.0870   10.8950 C.3       6 GLP5        0.0000 
     30 N          90.4970   41.7655   17.8705 N.am      2 SEC2        0.0000 
     31 N          91.0530   42.2410   16.7470 N.am      8 SEL2        0.0000 
     32 N          89.9410   41.2900   18.9940 N.am      5 SEP2        0.0000 
     33 O          89.9480   45.5740   15.8510 O.2       1 ALC1        0.0000 
     34 O          90.6970   44.4810   16.4100 O.2       7 ALL1        0.0000 
     35 O          89.1990   46.6670   15.2920 O.2       4 ALP1        0.0000 
     36 CA         92.0665   42.1175   18.7060 C.3       3 GLC5        0.0000 
     37 CA         92.1470   44.2320   18.3910 C.3       9 GLL5        0.0000 
     38 CA         91.9860   40.0030   19.0210 C.3       6 GLP5        0.0000 
     39 CA         95.3750   45.8895   21.5410 C.3       3 GLC5        0.0000 
     40 CA         94.2000   44.6520   21.3330 C.3       9 GLL5        0.0000 
     41 CA         96.5500   47.1270   21.7490 C.3       6 GLP5        0.0000 
     42 CA         95.0495   43.9620   23.0405 C.3       3 GLC5        0.0000 
     43 CA         95.8990   43.2720   24.7480 C.3       6 GLP5        0.0000 
     44 CA         93.5845   45.9620   22.8120 C.3       3 GLC5        0.0000 
     45 CA         92.9690   47.2720   24.2910 C.3       6 GLP5        0.0000 
     46 CA         92.4770   42.3850   22.5825 C.3       3 GLC5        0.0000 
     47 CA         93.1440   42.7930   20.9220 C.3       9 GLL5        0.0000 
     48 CA         91.8100   41.9770   24.2430 C.3       6 GLP5        0.0000 
     49 CA         91.0855   42.9895   20.5760 C.3       3 GLC5        0.0000 
     50 CA         89.0270   43.1860   20.2300 C.3       6 GLP5        0.0000 
     51 CA         90.0271   38.0244   10.0680 C.3       3 GLC5        0.0000 
     52 CA         88.9470   37.0190   12.0420 C.3       9 GLL5        0.0000 
     53 CA         91.0206   37.0219   13.3120 C.3       3 GLC5        0.0000 
     54 CA         90.2700   37.6580   11.6540 C.3       9 GLL5        0.0000 
     55 CA         90.1090   39.1615   10.3652 C.3       3 GLC5        0.0000 
     56 CA         86.7630   38.7349   11.7865 C.3       3 GLC5        0.0000 
     57 CA         85.2080   39.1740   10.8910 C.3       6 GLP5        0.0000 
     58 CA         87.2188   39.5748   14.3360 C.3       3 GLC5        0.0000 
     59 CA         87.9130   37.8100   12.7140 C.3       9 GLL5        0.0000 
     60 CA         91.3958   42.4285   11.6402 C.3       3 GLC5        0.0000 
     61 CA         89.7660   41.2330   12.8950 C.3       9 GLL5        0.0000 
     62 CA         92.2417   41.6865   15.0873 C.3       3 GLC5        0.0000 
     63 CA         90.3780   42.9260   14.5800 C.3       9 GLL5        0.0000 
     64 CA         94.2340   41.1290   15.7660 C.3       6 GLP5        0.0000 
     65 CA         88.4574   43.7560   14.1029 C.3       3 GLC5        0.0000 
     66 CA         90.2820   43.9900   13.5870 C.3       9 GLL5        0.0000 
     67 CA         86.6490   44.3950   14.2080 C.3       6 GLP5        0.0000 
     68 CA         90.6412   45.4112   11.9703 C.3       3 GLC5        0.0000 
     69 CA         91.1810   46.9860   11.0280 C.3       6 GLP5        0.0000 
     70 CA         91.5867   43.4618   11.9037 C.3       3 GLC5        0.0000 
     71 CA         89.9210   43.6830   12.2380 C.3       9 GLL5        0.0000 
     72 CA         91.9573   44.2178   13.6189 C.3       3 GLC5        0.0000 
     73 CA         93.7890   44.8650   14.0770 C.3       6 GLP5        0.0000 
     74 CA         88.0648   43.6005   11.1365 C.3       3 GLC5        0.0000 
     75 CA         86.5730   44.6820   11.0430 C.3       6 GLP5        0.0000 
     76 CA         90.3317   43.8870   19.1230 C.3       3 GLC5        0.0000 
     77 CA         91.1260   44.9440   17.6410 C.3       9 GLL5        0.0000 
     78 CA         90.6550   44.2450   20.0772 C.3       3 GLC5        0.0000 
     79 CA         92.5790   44.6870   19.6600 C.3       9 GLL5        0.0000 
     80 CA         92.3988   47.8238   20.2968 C.3       3 GLC5        0.0000 
     81 CA         91.9870   45.9210   20.1890 C.3       9 GLL5        0.0000 
     82 CA         93.3270   49.3660   20.7650 C.3       6 GLP5        0.0000 
     83 CA         90.5192   47.3870   17.4121 C.3       3 GLC5        0.0000 
     84 CA         90.9540   46.6420   19.4680 C.3       9 GLL5        0.0000 
     85 CA         90.1430   48.6810   16.1310 C.3       6 GLP5        0.0000 
     86 CA         89.8890   44.7895   19.5310 C.3       3 GLC5        0.0000 
     87 CA         90.5480   46.1440   18.1960 C.3       9 GLL5        0.0000 
     88 CA         92.5506   46.1690   16.9300 C.3       3 GLC5        0.0000 
     89 CA         94.0090   46.9720   15.7540 C.3       6 GLP5        0.0000 
     90 CA         93.8233   41.6882   21.6120 C.3       3 GLC5        0.0000 
     91 CA         93.6790   43.8920   20.4060 C.3       9 GLL5        0.0000 
     92 CA         94.2350   40.0340   22.5600 C.3       6 GLP5        0.0000 
     93 CA         96.0894   43.6210   20.5469 C.3       3 GLC5        0.0000 
     94 CA         94.6300   43.5480   19.5760 C.3       9 GLL5        0.0000 
     95 CA         97.8940   43.3320   20.8710 C.3       6 GLP5        0.0000 
     96 CA         92.8176   41.6298   19.7387 C.3       3 GLC5        0.0000 
@<TRIPOS>BOND
@<TRIPOS>SUBSTRUCTURE
     1 ALC1       17 GROUP        1 X    ALC  0     ROOT ALC X 1
     2 SEC2       11 GROUP        1 X    SEC  0     **** SEC X 2
     3 GLC5        1 GROUP        1 X    GLC  0     **** GLC X 6
     4 ALP1       19 GROUP        1 Y    ALP  0     ROOT ALP Y 8
     5 SEP2       13 GROUP        1 Y    SEP  0     **** SEP Y 9
     6 GLP5        3 GROUP        1 Y    GLP  0     **** GLP Y 13
     7 ALL1       18 GROUP        1 Z    ALL  0     ROOT ALL Z 15
     8 SEL2       12 GROUP        1 Z    SEL  0     **** SEL Z 16
     9 GLL5        2 GROUP        1 Z    GLL  0     **** GLL Z 20
@<TRIPOS>SET

