#    Name: 2ofv_242_1_ligand
#    Modification time : Tue Mar 25 22:20:11 2014

@<TRIPOS>MOLECULE
2ofv_242_1_ligand
   48    51     1     0     0
SMALL
NO_CHARGES


@<TRIPOS>ATOM
      1 C4         91.2450   36.8190   11.0020 C.ar      1 242503      0.0000 
      2 C2         90.2700   37.6580   11.6540 C.ar      1 242503      0.0000 
      3 C3         88.9470   37.0190   12.0420 C.ar      1 242503      0.0000 
      4 N2         88.7440   35.6740   11.7450 N.ar      1 242503      0.0000 
      5 C1         89.7140   34.9910   11.1190 C.ar      1 242503      0.0000 
      6 N3         90.9290   35.5270   10.7620 N.ar      1 242503      0.0000 
      7 C8         90.5240   39.0230   11.9540 C.ar      1 242503      0.0000 
      8 C9         89.5080   39.7830   12.6050 C.ar      1 242503      0.0000 
      9 C10        88.2060   39.1770   12.9860 C.ar      1 242503      0.0000 
     10 C11        87.9130   37.8100   12.7140 C.ar      1 242503      0.0000 
     11 N15        89.4720   33.7050   10.8560 N.pl3     1 242503      0.0000 
     12 C16        89.7660   41.2330   12.8950 C.ar      1 242503      0.0000 
     13 C17        90.1210   41.5620   14.2370 C.ar      1 242503      0.0000 
     14 C18        90.3780   42.9260   14.5800 C.ar      1 242503      0.0000 
     15 C19        90.2820   43.9900   13.5870 C.ar      1 242503      0.0000 
     16 C20        89.9210   43.6830   12.2380 C.ar      1 242503      0.0000 
     17 C21        89.6730   42.3070   11.8760 C.ar      1 242503      0.0000 
     18 C25        89.3160   42.0430   10.4030 C.3       1 242503      0.0000 
     19 C29        90.7220   43.1720   15.9830 C.2       1 242503      0.0000 
     20 O30        91.0530   42.2410   16.7470 O.2       1 242503      0.0000 
     21 N31        90.6970   44.4810   16.4100 N.am      1 242503      0.0000 
     22 C32        91.1260   44.9440   17.6410 C.ar      1 242503      0.0000 
     23 C33        92.1470   44.2320   18.3910 C.ar      1 242503      0.0000 
     24 C34        92.5790   44.6870   19.6600 C.ar      1 242503      0.0000 
     25 C35        91.9870   45.9210   20.1890 C.ar      1 242503      0.0000 
     26 C36        90.9540   46.6420   19.4680 C.ar      1 242503      0.0000 
     27 C37        90.5480   46.1440   18.1960 C.ar      1 242503      0.0000 
     28 C5         93.6790   43.8920   20.4060 C.3       1 242503      0.0000 
     29 F3         94.2000   44.6520   21.3330 F         1 242503      0.0000 
     30 F1         94.6300   43.5480   19.5760 F         1 242503      0.0000 
     31 F2         93.1440   42.7930   20.9220 F         1 242503      0.0000 
     32 H          92.1390   37.2300   10.7447 H         1 242503      0.0000 
     33 H          91.4055   39.4491   11.7122 H         1 242503      0.0000 
     34 H          87.5249   39.7743   13.4511 H         1 242503      0.0000 
     35 H          87.0485   37.3921   12.9622 H         1 242503      0.0000 
     36 H          88.5107   33.4513   10.7481 H         1 242503      0.0000 
     37 H          90.2737   33.1109   10.7905 H         1 242503      0.0000 
     38 H          90.1906   40.8385   14.9400 H         1 242503      0.0000 
     39 H          90.4737   44.9433   13.8659 H         1 242503      0.0000 
     40 H          89.8394   44.4090   11.5473 H         1 242503      0.0000 
     41 H          90.3088   45.2123   15.7254 H         1 242503      0.0000 
     42 H          92.5517   43.3869   17.9799 H         1 242503      0.0000 
     43 H          92.3139   46.2753   21.0857 H         1 242503      0.0000 
     44 H          90.5460   47.4643   19.8633 H         1 242503      0.0000 
     45 H          89.8327   46.6419   17.6595 H         1 242503      0.0000 
     46 H          89.3020   42.8872    9.8672 H         1 242503      0.0000 
     47 H          89.9734   41.4292    9.9658 H         1 242503      0.0000 
     48 H          88.4141   41.6214   10.3093 H         1 242503      0.0000 
@<TRIPOS>BOND
     1    2    1 ar   
     2    6    1 ar   
     3   32    1 1    
     4    3    2 ar   
     5    7    2 ar   
     6    4    3 ar   
     7   10    3 ar   
     8    5    4 ar   
     9    6    5 ar   
    10   11    5 1    
    11    8    7 ar   
    12   33    7 1    
    13    9    8 ar   
    14   12    8 1    
    15   10    9 ar   
    16   34    9 1    
    17   35   10 1    
    18   36   11 1    
    19   37   11 1    
    20   13   12 ar   
    21   17   12 ar   
    22   14   13 ar   
    23   38   13 1    
    24   15   14 ar   
    25   19   14 1    
    26   16   15 ar   
    27   39   15 1    
    28   17   16 ar   
    29   40   16 1    
    30   18   17 1    
    31   46   18 1    
    32   47   18 1    
    33   48   18 1    
    34   20   19 2    
    35   21   19 am   
    36   22   21 1    
    37   41   21 1    
    38   23   22 ar   
    39   27   22 ar   
    40   24   23 ar   
    41   42   23 1    
    42   25   24 ar   
    43   28   24 1    
    44   26   25 ar   
    45   43   25 1    
    46   27   26 ar   
    47   44   26 1    
    48   45   27 1    
    49   29   28 1    
    50   30   28 1    
    51   31   28 1    
@<TRIPOS>SUBSTRUCTURE
     1 242503      1 GROUP   
@<TRIPOS>SET

