#    Name: 1xkk_FMM_1_INTS_M
#    Modification time : Tue Mar 25 10:15:28 2014

@<TRIPOS>MOLECULE
1xkk_FMM_1_INTS_M
  117     0     6     0     0
SMALL
NO_CHARGES


@<TRIPOS>ATOM
      1 CA         21.1035   34.8725   31.3610 C.3       2 GLC5        0.0000 
      2 CA         22.6040   34.4870   31.1410 C.3       6 GLL5        0.0000 
      3 CA         19.6030   35.2580   31.5810 C.3       4 GLP5        0.0000 
      4 CA         23.5735   35.8725   30.6285 C.3       2 GLC5        0.0000 
      5 CA         24.5430   37.2580   30.1160 C.3       4 GLP5        0.0000 
      6 CA         22.9785   35.9550   32.5990 C.3       2 GLC5        0.0000 
      7 CA         23.3530   37.4230   34.0570 C.3       4 GLP5        0.0000 
      8 N          23.3570   33.2730   29.0510 N.am      1 SEC2        0.0000 
      9 N          24.5430   33.0770   30.0530 N.am      5 SEL2        0.0000 
     10 N          22.1710   33.4690   28.0490 N.am      3 SEP2        0.0000 
     11 CA         20.8320   33.5470   31.9525 C.3       2 GLC5        0.0000 
     12 CA         22.0610   31.8360   32.3240 C.3       6 GLL5        0.0000 
     13 CA         21.2800   29.2325   35.2270 C.3       2 GLC5        0.0000 
     14 CA         20.9140   31.0190   34.2650 C.3       6 GLL5        0.0000 
     15 CA         21.6460   27.4460   36.1890 C.3       4 GLP5        0.0000 
     16 CA         18.3660   29.4760   35.1590 C.3       2 GLC5        0.0000 
     17 CA         19.4160   31.2080   34.2230 C.3       6 GLL5        0.0000 
     18 CA         17.3160   27.7440   36.0950 C.3       4 GLP5        0.0000 
     19 CA         16.3945   29.4235   33.9910 C.3       2 GLC5        0.0000 
     20 CA         17.4450   31.2370   33.4210 C.3       6 GLL5        0.0000 
     21 CA         15.3440   27.6100   34.5610 C.3       4 GLP5        0.0000 
     22 CA         15.9640   32.4215   32.3710 C.3       2 GLC5        0.0000 
     23 CA         14.4830   33.6060   31.3210 C.3       4 GLP5        0.0000 
     24 CA         17.3625   29.6945   35.4130 C.3       2 GLC5        0.0000 
     25 CA         17.4090   31.6450   34.7310 C.3       6 GLL5        0.0000 
     26 N          11.3590   33.3970   36.6210 N.am      1 SEC2        0.0000 
     27 N          12.6830   33.3050   37.2760 N.am      5 SEL2        0.0000 
     28 N          10.0350   33.4890   35.9660 N.am      3 SEP2        0.0000 
     29 CA         12.7690   32.2870   39.2860 C.3       2 GLC5        0.0000 
     30 CA         12.7080   33.7900   38.5680 C.3       6 GLL5        0.0000 
     31 CA         12.8300   30.7840   40.0040 C.3       4 GLP5        0.0000 
     32 CA         12.3680   33.8320   40.4100 C.3       2 GLC5        0.0000 
     33 CA         12.0280   33.8740   42.2520 C.3       4 GLP5        0.0000 
     34 CA         10.9395   32.8575   38.1010 C.3       2 GLC5        0.0000 
     35 CA          9.1710   31.9250   37.6340 C.3       4 GLP5        0.0000 
     36 CA         11.7730   35.0645   37.3650 C.3       2 GLC5        0.0000 
     37 CA         10.8380   36.3390   36.1620 C.3       4 GLP5        0.0000 
     38 CA         13.4240   35.2005   37.9415 C.3       2 GLC5        0.0000 
     39 CA         14.1400   36.6110   37.3150 C.3       4 GLP5        0.0000 
     40 CA         16.0095   31.6165   39.3285 C.3       2 GLC5        0.0000 
     41 CA         15.0770   33.4520   38.6680 C.3       6 GLL5        0.0000 
     42 CA         16.9420   29.7810   39.9890 C.3       4 GLP5        0.0000 
     43 CA         17.0710   36.6600   40.1935 C.3       2 GLC5        0.0000 
     44 CA         17.1180   34.9090   41.1780 C.3       6 GLL5        0.0000 
     45 CA         17.0240   38.4110   39.2090 C.3       4 GLP5        0.0000 
     46 CA         18.1795   37.1770   42.6945 C.3       2 GLC5        0.0000 
     47 CA         17.1640   35.2150   42.5350 C.3       6 GLL5        0.0000 
     48 CA         19.1950   39.1390   42.8540 C.3       4 GLP5        0.0000 
     49 CA         18.2545   34.2220   44.5420 C.3       2 GLC5        0.0000 
     50 CA         17.0650   36.0020   45.1430 C.3       6 GLL5        0.0000 
     51 CA         19.4440   32.4420   43.9410 C.3       4 GLP5        0.0000 
     52 CA         17.3725   34.8040   46.6790 C.3       2 GLC5        0.0000 
     53 CA         17.6800   33.6060   48.2150 C.3       4 GLP5        0.0000 
     54 CA         18.9190   35.9120   45.6360 C.3       2 GLC5        0.0000 
     55 CA         20.7730   35.8220   46.1290 C.3       4 GLP5        0.0000 
     56 CA         15.7770   39.7040   47.0125 C.3       2 GLC5        0.0000 
     57 CA         15.6530   39.5270   45.1020 C.3       6 GLL5        0.0000 
     58 CA         15.9010   39.8810   48.9230 C.3       4 GLP5        0.0000 
     59 CA         14.3995   39.4270   46.9355 C.3       2 GLC5        0.0000 
     60 CA         14.3540   39.3120   44.6930 C.3       6 GLL5        0.0000 
     61 CA         14.4450   39.5420   49.1780 C.3       4 GLP5        0.0000 
     62 CA         11.1810   38.8560   44.3890 C.3       2 GLC5        0.0000 
     63 CA         12.6790   37.8370   44.0350 C.3       6 GLL5        0.0000 
     64 CA          9.6830   39.8750   44.7430 C.3       4 GLP5        0.0000 
     65 CA         11.9270   36.1335   43.7155 C.3       2 GLC5        0.0000 
     66 CA         11.1750   34.4300   43.3960 C.3       4 GLP5        0.0000 
     67 CA         13.8385   36.0360   46.0610 C.3       2 GLC5        0.0000 
     68 CA         14.7720   36.9660   44.5730 C.3       6 GLL5        0.0000 
     69 CA         12.9050   35.1060   47.5490 C.3       4 GLP5        0.0000 
     70 CA         15.1460   32.4645   45.9690 C.3       2 GLC5        0.0000 
     71 CA         14.7840   32.5140   44.1280 C.3       6 GLL5        0.0000 
     72 CA         15.5080   32.4150   47.8100 C.3       4 GLP5        0.0000 
     73 CA         13.0830   31.7115   45.1920 C.3       2 GLC5        0.0000 
     74 CA         11.3820   30.9090   46.2560 C.3       4 GLP5        0.0000 
     75 CA         14.2185   31.9410   40.8320 C.3       2 GLC5        0.0000 
     76 CA         15.6070   33.0980   41.6600 C.3       6 GLL5        0.0000 
     77 CA         16.5810   31.1630   38.3600 C.3       2 GLC5        0.0000 
     78 CA         16.2200   32.5450   36.7310 C.3       6 GLL5        0.0000 
     79 CA         15.9140   34.4250   36.0270 C.3       2 GLC5        0.0000 
     80 CA         15.6080   36.3050   35.3230 C.3       4 GLP5        0.0000 
     81 CA         15.3320   30.3210   35.9455 C.3       2 GLC5        0.0000 
     82 CA         16.1760   32.0580   35.4070 C.3       6 GLL5        0.0000 
     83 CA         15.0970   28.6200   36.8200 C.3       4 GLP5        0.0000 
     84 CA         14.4328   32.9000   33.1840 C.3       2 GLC5        0.0000 
     85 CA         14.9580   31.9860   34.7350 C.3       6 GLL5        0.0000 
     86 CA         13.5107   30.8355   33.8285 C.3       2 GLC5        0.0000 
     87 CA         12.6390   29.4770   32.6100 C.3       4 GLP5        0.0000 
     88 CA         14.4625   30.6330   36.4158 C.3       2 GLC5        0.0000 
     89 CA         13.8070   32.4020   35.3590 C.3       6 GLL5        0.0000 
     90 CA         12.5145   31.3030   36.1963 C.3       2 GLC5        0.0000 
     91 CA         11.2010   29.9600   36.3810 C.3       4 GLP5        0.0000 
     92 CA         12.4395   34.0585   35.4633 C.3       2 GLC5        0.0000 
     93 CA         11.0510   35.4710   34.9150 C.3       4 GLP5        0.0000 
     94 CA         15.1475   34.2585   35.2690 C.3       2 GLC5        0.0000 
     95 CA         13.7970   31.9861   38.9206 C.3       2 GLC5        0.0000 
     96 CA         13.8490   32.8900   36.6640 C.3       6 GLL5        0.0000 
     97 CA         14.4520   34.8996   37.5761 C.3       2 GLC5        0.0000 
     98 CA         16.4558   31.6258   40.5932 C.3       2 GLC5        0.0000 
     99 CA         16.3320   33.8430   40.7350 C.3       6 GLL5        0.0000 
    100 CA         18.1142   33.6008   43.2941 C.3       2 GLC5        0.0000 
    101 CA         16.4280   34.4570   43.4380 C.3       6 GLL5        0.0000 
    102 CA         17.8850   37.8653   43.9587 C.3       2 GLC5        0.0000 
    103 CA         16.0850   37.1810   44.9840 C.3       6 GLL5        0.0000 
    104 CA         17.6405   39.0667   44.0140 C.3       2 GLC5        0.0000 
    105 CA         16.5190   38.4620   45.2460 C.3       6 GLL5        0.0000 
    106 CA         11.9612   37.4848   45.6585 C.3       2 GLC5        0.0000 
    107 CA         10.6250   37.0330   47.0850 C.3       4 GLP5        0.0000 
    108 CA         12.8300   38.9453   42.6485 C.3       2 GLC5        0.0000 
    109 CA         12.2530   39.6350   40.9990 C.3       4 GLP5        0.0000 
    110 CA         16.0797   37.2632   46.6044 C.3       2 GLC5        0.0000 
    111 CA         16.5000   37.2800   48.3450 C.3       4 GLP5        0.0000 
    112 CA         16.5704   31.9421   43.6174 C.3       2 GLC5        0.0000 
    113 CA         15.6650   33.4150   42.9990 C.3       6 GLL5        0.0000 
    114 CA         17.7250   30.8530   44.6230 C.3       4 GLP5        0.0000 
    115 CA         13.7219   33.4526   42.4319 C.3       2 GLC5        0.0000 
    116 CA         15.3667   30.6860   36.9300 C.3       2 GLC5        0.0000 
    117 CA         15.0530   32.9590   37.3490 C.3       6 GLL5        0.0000 
@<TRIPOS>BOND
@<TRIPOS>SUBSTRUCTURE
     1 SEC2        8 GROUP        1 X    SEC  0     ROOT SEC X 2
     2 GLC5        1 GROUP        1 X    GLC  0     **** GLC X 6
     3 SEP2       10 GROUP        1 Y    SEP  0     ROOT SEP Y 9
     4 GLP5        3 GROUP        1 Y    GLP  0     **** GLP Y 13
     5 SEL2        9 GROUP        1 Z    SEL  0     ROOT SEL Z 16
     6 GLL5        2 GROUP        1 Z    GLL  0     **** GLL Z 20
@<TRIPOS>SET

