#    Name: 1xkk_FMM_1_ligand
#    Modification time : Tue Mar 25 10:15:28 2014

@<TRIPOS>MOLECULE
1xkk_FMM_1_ligand
   65    69     1     0     0
SMALL
NO_CHARGES


@<TRIPOS>ATOM
      1 C1         22.6040   34.4870   31.1410 C.3       1 FMM91       0.0000 
      2 S2         24.0360   33.4650   31.3500 S.o2      1 FMM91       0.0000 
      3 O3         25.0530   34.2040   32.0670 O.2       1 FMM91       0.0000 
      4 O4         24.5430   33.0770   30.0530 O.2       1 FMM91       0.0000 
      5 C5         23.5870   31.9800   32.2910 C.3       1 FMM91       0.0000 
      6 C6         22.0610   31.8360   32.3240 C.3       1 FMM91       0.0000 
      7 N7         21.5690   32.1840   33.6650 N.4       1 FMM91       0.0000 
      8 C8         20.9140   31.0190   34.2650 C.3       1 FMM91       0.0000 
      9 C9         19.4160   31.2080   34.2230 C.2       1 FMM91       0.0000 
     10 C10        18.6740   30.9770   33.1210 C.2       1 FMM91       0.0000 
     11 C11        17.4450   31.2370   33.4210 C.2       1 FMM91       0.0000 
     12 C12        17.4090   31.6450   34.7310 C.2       1 FMM91       0.0000 
     13 O13        18.6550   31.6530   35.3630 O.3       1 FMM91       0.0000 
     14 C14        16.1760   32.0580   35.4070 C.ar      1 FMM91       0.0000 
     15 C15        14.9580   31.9860   34.7350 C.ar      1 FMM91       0.0000 
     16 C16        13.8070   32.4020   35.3590 C.ar      1 FMM91       0.0000 
     17 C17        13.8490   32.8900   36.6640 C.ar      1 FMM91       0.0000 
     18 N18        12.6830   33.3050   37.2760 N.ar      1 FMM91       0.0000 
     19 C19        12.7080   33.7900   38.5680 C.ar      1 FMM91       0.0000 
     20 N20        13.8990   33.8630   39.2600 N.ar      1 FMM91       0.0000 
     21 C21        15.0770   33.4520   38.6680 C.ar      1 FMM91       0.0000 
     22 N22        16.2820   33.5270   39.3660 N.pl3     1 FMM91       0.0000 
     23 C23        16.3320   33.8430   40.7350 C.ar      1 FMM91       0.0000 
     24 C24        17.1180   34.9090   41.1780 C.ar      1 FMM91       0.0000 
     25 C25        17.1640   35.2150   42.5350 C.ar      1 FMM91       0.0000 
     26 C26        16.4280   34.4570   43.4380 C.ar      1 FMM91       0.0000 
     27 O27        16.4460   34.7470   44.8280 O.3       1 FMM91       0.0000 
     28 C28        17.0650   36.0020   45.1430 C.3       1 FMM91       0.0000 
     29 C29        16.0850   37.1810   44.9840 C.ar      1 FMM91       0.0000 
     30 C30        16.5190   38.4620   45.2460 C.ar      1 FMM91       0.0000 
     31 C31        15.6530   39.5270   45.1020 C.ar      1 FMM91       0.0000 
     32 C32        14.3540   39.3120   44.6930 C.ar      1 FMM91       0.0000 
     33 C33        13.9160   38.0360   44.4290 C.ar      1 FMM91       0.0000 
     34 F34        12.6790   37.8370   44.0350 F         1 FMM91       0.0000 
     35 C35        14.7720   36.9660   44.5730 C.ar      1 FMM91       0.0000 
     36 C36        15.6650   33.4150   42.9990 C.ar      1 FMM91       0.0000 
     37 CL3        14.7840   32.5140   44.1280 Cl        1 FMM91       0.0000 
     38 C38        15.6070   33.0980   41.6600 C.ar      1 FMM91       0.0000 
     39 C39        15.0530   32.9590   37.3490 C.ar      1 FMM91       0.0000 
     40 C40        16.2200   32.5450   36.7310 C.ar      1 FMM91       0.0000 
     41 H          24.0156   32.1712   33.2395 H         1 FMM91       0.0000 
     42 H          24.0741   31.2107   31.7516 H         1 FMM91       0.0000 
     43 H          21.8082   30.8076   32.0726 H         1 FMM91       0.0000 
     44 H          21.6378   32.4986   31.5713 H         1 FMM91       0.0000 
     45 H          21.2243   30.8959   35.3047 H         1 FMM91       0.0000 
     46 H          21.1696   30.1093   33.7177 H         1 FMM91       0.0000 
     47 H          19.0316   30.6708   32.2714 H         1 FMM91       0.0000 
     48 H          16.6577   31.1714   32.8587 H         1 FMM91       0.0000 
     49 H          14.9294   31.6204   33.7728 H         1 FMM91       0.0000 
     50 H          12.9002   32.3564   34.8656 H         1 FMM91       0.0000 
     51 H          11.8307   34.0996   39.0184 H         1 FMM91       0.0000 
     52 H          17.1731   33.3445   38.8630 H         1 FMM91       0.0000 
     53 H          17.6579   35.4624   40.5050 H         1 FMM91       0.0000 
     54 H          17.7394   35.9975   42.8667 H         1 FMM91       0.0000 
     55 H          17.9297   36.2034   44.4888 H         1 FMM91       0.0000 
     56 H          17.4367   36.0219   46.1811 H         1 FMM91       0.0000 
     57 H          17.4915   38.6265   45.5500 H         1 FMM91       0.0000 
     58 H          15.9792   40.4865   45.3011 H         1 FMM91       0.0000 
     59 H          13.7095   40.1131   44.5852 H         1 FMM91       0.0000 
     60 H          14.4486   36.0090   44.3792 H         1 FMM91       0.0000 
     61 H          15.0277   32.3091   41.3363 H         1 FMM91       0.0000 
     62 H          17.1178   32.5869   37.2218 H         1 FMM91       0.0000 
     63 H          22.8117   35.3154   30.6208 H         1 FMM91       0.0000 
     64 H          21.8746   34.0088   30.6518 H         1 FMM91       0.0000 
     65 H          22.2251   34.7795   32.0190 H         1 FMM91       0.0000 
@<TRIPOS>BOND
     1    2    1 1    
     2   63    1 1    
     3   64    1 1    
     4   65    1 1    
     5    3    2 2    
     6    4    2 2    
     7    5    2 1    
     8    6    5 1    
     9   41    5 1    
    10   42    5 1    
    11    7    6 1    
    12   43    6 1    
    13   44    6 1    
    14    8    7 1    
    15    9    8 1    
    16   45    8 1    
    17   46    8 1    
    18   10    9 2    
    19   13    9 1    
    20   11   10 1    
    21   47   10 1    
    22   12   11 2    
    23   48   11 1    
    24   13   12 1    
    25   14   12 1    
    26   15   14 ar   
    27   40   14 ar   
    28   16   15 ar   
    29   49   15 1    
    30   17   16 ar   
    31   50   16 1    
    32   18   17 ar   
    33   39   17 ar   
    34   19   18 ar   
    35   20   19 ar   
    36   51   19 1    
    37   21   20 ar   
    38   22   21 1    
    39   39   21 ar   
    40   23   22 1    
    41   52   22 1    
    42   24   23 ar   
    43   38   23 ar   
    44   25   24 ar   
    45   53   24 1    
    46   26   25 ar   
    47   54   25 1    
    48   27   26 1    
    49   36   26 ar   
    50   28   27 1    
    51   29   28 1    
    52   55   28 1    
    53   56   28 1    
    54   30   29 ar   
    55   35   29 ar   
    56   31   30 ar   
    57   57   30 1    
    58   32   31 ar   
    59   58   31 1    
    60   33   32 ar   
    61   59   32 1    
    62   34   33 1    
    63   35   33 ar   
    64   60   35 1    
    65   37   36 1    
    66   38   36 ar   
    67   61   38 1    
    68   40   39 ar   
    69   62   40 1    
@<TRIPOS>SUBSTRUCTURE
     1 FMM91       1 GROUP   
@<TRIPOS>SET

