#    Name: 3hqd_ANP_1_INTS_M
#    Modification time : Tue Mar 25 14:38:20 2014

@<TRIPOS>MOLECULE
3hqd_ANP_1_INTS_M
   53     0    15     0     0
SMALL
NO_CHARGES


@<TRIPOS>ATOM
      1 NZ         11.9000    5.5150   35.4055 N.4       3 LYC4        0.0000 
      2 NZ         12.5480    6.5230   35.4660 N.4      13 LYL4        0.0000 
      3 NZ         11.2520    4.5070   35.3450 N.4       8 LYP4        0.0000 
      4 N          11.9000    5.5150   35.4055 N.am      2 SEC2        0.0000 
      5 N          12.5480    6.5230   35.4660 N.am     12 SEL2        0.0000 
      6 N          11.2520    4.5070   35.3450 N.am      7 SEP2        0.0000 
      7 N          13.6085    8.4900   33.1805 N.am      2 SEC2        0.0000 
      8 N          13.3470    8.5560   34.3540 N.am     12 SEL2        0.0000 
      9 N          13.8700    8.4240   32.0070 N.am      7 SEP2        0.0000 
     10 N          14.0510    9.7475   34.5780 N.am      2 SEC2        0.0000 
     11 N          14.7550   10.9390   34.8020 N.am      7 SEP2        0.0000 
     12 Zn         11.0440    8.8820   37.0995 Zn        4 ZIC7        0.0000 
     13 Zn         11.8750    8.7450   36.3540 Zn       14 ZIL7        0.0000 
     14 Zn         10.2130    9.0190   37.8450 Zn        9 ZIP7        0.0000 
     15 N          12.3405    9.9625   36.8480 N.am      2 SEC2        0.0000 
     16 N          11.8750    8.7450   36.3540 N.am     12 SEL2        0.0000 
     17 N          12.8060   11.1800   37.3420 N.am      7 SEP2        0.0000 
     18 NZ         10.2625    5.3625   35.0030 N.4       3 LYC4        0.0000 
     19 NZ          9.2730    6.2180   34.6610 N.4      13 LYL4        0.0000 
     20 N           7.9345    5.7510   33.7690 N.am      2 SEC2        0.0000 
     21 N           9.2730    6.2180   34.6610 N.am     12 SEL2        0.0000 
     22 N           6.5960    5.2840   32.8770 N.am      7 SEP2        0.0000 
     23 N           8.0020    5.5465   35.2175 N.am      2 SEC2        0.0000 
     24 N           6.7310    4.8750   35.7740 N.am      7 SEP2        0.0000 
     25 N          10.2625    5.3625   35.0030 N.am      2 SEC2        0.0000 
     26 Zn          9.6585    8.5725   37.0670 Zn        4 ZIC7        0.0000 
     27 Zn          9.1040    8.1260   36.2890 Zn       14 ZIL7        0.0000 
     28 N           7.8540    7.4730   37.0905 N.am      2 SEC2        0.0000 
     29 N           9.1040    8.1260   36.2890 N.am     12 SEL2        0.0000 
     30 N           6.6040    6.8200   37.8920 N.am      7 SEP2        0.0000 
     31 CA          2.0210   10.1795   33.5550 C.3       5 GLC5        0.0000 
     32 CA          3.3090   10.8110   32.3410 C.3      15 GLL5        0.0000 
     33 CA          0.7330    9.5480   34.7690 C.3      10 GLP5        0.0000 
     34 O           2.0830   12.2080   33.5605 O.2       1 ALC1        0.0000 
     35 O           2.0940   11.5850   32.2720 O.2      11 ALL1        0.0000 
     36 O           2.0720   12.8310   34.8490 O.2       6 ALP1        0.0000 
     37 CA          2.7970    9.5165   29.2295 C.3       5 GLC5        0.0000 
     38 CA          3.5480    9.9970   31.0700 C.3      15 GLL5        0.0000 
     39 CA          2.0460    9.0360   27.3890 C.3      10 GLP5        0.0000 
     40 O          -1.5650    4.5860   30.9520 O.2       1 ALC1        0.0000 
     41 O          -0.1550    5.3050   31.5740 O.2      11 ALL1        0.0000 
     42 O          -2.9750    3.8670   30.3300 O.2       6 ALP1        0.0000 
     43 CA         -0.3015    6.8340   29.1215 C.3       5 GLC5        0.0000 
     44 CA         -0.5930    8.6510   30.2950 C.3      15 GLL5        0.0000 
     45 CA         -0.0100    5.0170   27.9480 C.3      10 GLP5        0.0000 
     46 CA          0.7265    8.8435   28.8420 C.3       5 GLC5        0.0000 
     47 CA          1.8115    5.4757   30.2788 C.3       5 GLC5        0.0000 
     48 CA          1.4370    7.1440   31.3780 C.3      15 GLL5        0.0000 
     49 CA          2.8390    4.0820   29.2770 C.3      10 GLP5        0.0000 
     50 CA          0.3870    5.9433   29.6142 C.3       5 GLC5        0.0000 
     51 CA          2.0827    7.8982   33.2345 C.3       5 GLC5        0.0000 
     52 CA          2.6210    7.9840   35.2990 C.3      10 GLP5        0.0000 
     53 CA          1.7952    8.4243   29.2795 C.3       5 GLC5        0.0000 
@<TRIPOS>BOND
@<TRIPOS>SUBSTRUCTURE
     1 ALC1       34 GROUP        1 X    ALC  0     ROOT ALC X 1
     2 SEC2        4 GROUP        1 X    SEC  0     **** SEC X 2
     3 LYC4        1 GROUP        1 X    LYC  0     **** LYC X 4
     4 ZIC7       12 GROUP        1 X    ZIC  0     **** ZIC X 5
     5 GLC5       31 GROUP        1 X    GLC  0     **** GLC X 6
     6 ALP1       36 GROUP        1 Y    ALP  0     ROOT ALP Y 8
     7 SEP2        6 GROUP        1 Y    SEP  0     **** SEP Y 9
     8 LYP4        3 GROUP        1 Y    LYP  0     **** LYP Y 11
     9 ZIP7       14 GROUP        1 Y    ZIP  0     **** ZIP Y 12
    10 GLP5       33 GROUP        1 Y    GLP  0     **** GLP Y 13
    11 ALL1       35 GROUP        1 Z    ALL  0     ROOT ALL Z 15
    12 SEL2        5 GROUP        1 Z    SEL  0     **** SEL Z 16
    13 LYL4        2 GROUP        1 Z    LYL  0     **** LYL Z 18
    14 ZIL7       13 GROUP        1 Z    ZIL  0     **** ZIL Z 19
    15 GLL5       32 GROUP        1 Z    GLL  0     **** GLL Z 20
@<TRIPOS>SET

