#    Name: 3hqd_ANP_1_ligand
#    Modification time : Tue Mar 25 14:38:20 2014

@<TRIPOS>MOLECULE
3hqd_ANP_1_ligand
   43    45     1     0     0
SMALL
NO_CHARGES


@<TRIPOS>ATOM
      1 PG         12.1820    7.9660   35.1100 P.3       1 ANP601      0.0000 
      2 O1G        12.5480    6.5230   35.4660 O.co2     1 ANP601      0.0000 
      3 O2G        13.3470    8.5560   34.3540 O.co2     1 ANP601      0.0000 
      4 O3G        11.8750    8.7450   36.3540 O.co2     1 ANP601      0.0000 
      5 PB          9.4130    7.6660   34.7940 P.3       1 ANP601      0.0000 
      6 O1B         9.2730    6.2180   34.6610 O.co2     1 ANP601      0.0000 
      7 O2B         9.1040    8.1260   36.2890 O.co2     1 ANP601      0.0000 
      8 N3B        10.9010    8.1440   34.1430 N.4       1 ANP601      0.0000 
      9 PA          7.1970    8.7240   34.1430 P.3       1 ANP601      0.0000 
     10 O1A         7.1300   10.0410   34.8070 O.co2     1 ANP601      0.0000 
     11 O2A         5.9590    7.9290   33.5810 O.co2     1 ANP601      0.0000 
     12 O3A         8.6160    8.4110   33.6640 O.3       1 ANP601      0.0000 
     13 O5'         7.2400    9.4990   32.5820 O.3       1 ANP601      0.0000 
     14 C5'         6.1520   10.2510   32.5810 C.3       1 ANP601      0.0000 
     15 C4'         5.6040   11.0910   31.5180 C.3       1 ANP601      0.0000 
     16 O4'         4.9520   10.0710   30.6680 O.3       1 ANP601      0.0000 
     17 C3'         4.6060   11.6140   32.5160 C.3       1 ANP601      0.0000 
     18 O3'         4.4090   13.0450   32.4430 O.3       1 ANP601      0.0000 
     19 C2'         3.3090   10.8110   32.3410 C.3       1 ANP601      0.0000 
     20 O2'         2.0940   11.5850   32.2720 O.3       1 ANP601      0.0000 
     21 C1'         3.5480    9.9970   31.0700 C.3       1 ANP601      0.0000 
     22 N9          2.9570    8.7450   31.2840 N.pl3     1 ANP601      0.0000 
     23 C8          3.5190    7.5980   31.7920 C.2       1 ANP601      0.0000 
     24 N7          2.6010    6.6520   31.8360 N.2       1 ANP601      0.0000 
     25 C5          1.4370    7.1440   31.3780 C.ar      1 ANP601      0.0000 
     26 C6          0.1310    6.5950   31.1830 C.ar      1 ANP601      0.0000 
     27 N6         -0.1550    5.3050   31.5740 N.pl3     1 ANP601      0.0000 
     28 N1         -0.8360    7.3890   30.6640 N.ar      1 ANP601      0.0000 
     29 C2         -0.5930    8.6510   30.2950 C.ar      1 ANP601      0.0000 
     30 N3          0.6150    9.1980   30.4710 N.ar      1 ANP601      0.0000 
     31 C4          1.6520    8.4810   30.9620 C.ar      1 ANP601      0.0000 
     32 H           6.1620   10.9667   33.5503 H         1 ANP601      0.0000 
     33 H           5.2136    9.5937   32.9543 H         1 ANP601      0.0000 
     34 H           6.1925   11.7154   31.1676 H         1 ANP601      0.0000 
     35 H           4.9936   11.3380   33.5232 H         1 ANP601      0.0000 
     36 H           3.2812   10.0824   33.1612 H         1 ANP601      0.0000 
     37 H           2.9357   10.5556   30.2925 H         1 ANP601      0.0000 
     38 H           4.4480    7.5278   32.0659 H         1 ANP601      0.0000 
     39 H          -1.0887    4.9902   31.4032 H         1 ANP601      0.0000 
     40 H           0.5960    4.7959   31.9945 H         1 ANP601      0.0000 
     41 H          -1.3624    9.2220   29.8602 H         1 ANP601      0.0000 
     42 H           3.4188   13.1667   32.3738 H         1 ANP601      0.0000 
     43 H           1.7397   11.5941   33.2070 H         1 ANP601      0.0000 
@<TRIPOS>BOND
     1    2    1 ar   
     2    3    1 ar   
     3    4    1 ar   
     4    8    1 1    
     5    6    5 ar   
     6    7    5 ar   
     7    8    5 1    
     8   12    5 1    
     9   10    9 ar   
    10   11    9 ar   
    11   12    9 1    
    12   13    9 1    
    13   14   13 1    
    14   15   14 1    
    15   32   14 1    
    16   33   14 1    
    17   16   15 1    
    18   17   15 1    
    19   34   15 1    
    20   21   16 1    
    21   18   17 1    
    22   19   17 1    
    23   35   17 1    
    24   42   18 1    
    25   20   19 1    
    26   21   19 1    
    27   36   19 1    
    28   43   20 1    
    29   22   21 1    
    30   37   21 1    
    31   23   22 1    
    32   31   22 1    
    33   24   23 2    
    34   38   23 1    
    35   25   24 1    
    36   26   25 ar   
    37   31   25 ar   
    38   27   26 1    
    39   28   26 ar   
    40   39   27 1    
    41   40   27 1    
    42   29   28 ar   
    43   30   29 ar   
    44   41   29 1    
    45   31   30 ar   
@<TRIPOS>SUBSTRUCTURE
     1 ANP601      1 GROUP   
@<TRIPOS>SET

