#    Name: 4L34_2_CAVITY_N1_ALL.mol2
#    Modification time : Tue Mar 11 12:45:11 2014

@<TRIPOS>MOLECULE
4L34_2_CAVITY_N1_ALL.mol2
   54     0     5     0     0
SMALL
NO_CHARGES


@<TRIPOS>ATOM
      1 CA         -9.8477    5.0650   25.1408 C.3       4 GLY6        0.0000 
      2 N          -9.0633    3.7930   25.2700 N.2       2 ALA2        0.0000 
      3 CA         -9.4129   10.6578   25.3184 C.3       4 GLY6        0.0000 
      4 CZ         -8.6285    9.3858   25.4476 C.ar      3 PHE5        0.0000 
      5 CZ         -6.2752    5.5699   25.8351 C.ar      3 PHE5        0.0000 
      6 CA        -10.4017    9.9582   24.4336 C.3       4 GLY6        0.0000 
      7 DU         -9.6173    8.6862   24.5628 H         5 CUB7        0.0000 
      8 CZ         -8.8328    7.4142   24.6920 C.ar      3 PHE5        0.0000 
      9 CZ         -8.0484    6.1422   24.8212 C.ar      3 PHE5        0.0000 
     10 N          -7.2640    4.8702   24.9503 N.2       2 ALA2        0.0000 
     11 CA        -10.6061    7.9866   23.6781 C.3       4 GLY6        0.0000 
     12 CA         -9.8216    6.7146   23.8072 C.3       4 GLY6        0.0000 
     13 CA         -9.0372    5.4426   23.9364 C.3       4 GLY6        0.0000 
     14 CA        -10.0260    4.7429   23.0516 C.3       4 GLY6        0.0000 
     15 CA         -7.8180    9.7634   24.2432 C.3       4 GLY6        0.0000 
     16 CA         -8.8067    9.0637   23.3584 C.3       4 GLY6        0.0000 
     17 CZ         -8.0223    7.7917   23.4876 C.ar      3 PHE5        0.0000 
     18 CZ         -7.2379    6.5198   23.6168 C.ar      3 PHE5        0.0000 
     19 N          -6.4534    5.2478   23.7460 N.2       2 ALA2        0.0000 
     20 CA         -9.7955    8.3641   22.4737 C.3       4 GLY6        0.0000 
     21 CA         -9.0111    7.0921   22.6029 C.3       4 GLY6        0.0000 
     22 N          -8.2267    5.8201   22.7320 N.2       2 ALA2        0.0000 
     23 CA        -10.7843    7.6645   21.5889 C.3       4 GLY6        0.0000 
     24 CA         -9.9999    6.3925   21.7181 C.3       4 GLY6        0.0000 
     25 CA         -9.2155    5.1205   21.8473 C.3       4 GLY6        0.0000 
     26 CA        -10.9887    5.6928   20.8333 C.3       4 GLY6        0.0000 
     27 CZ         -7.2118    8.1693   22.2832 C.ar      3 PHE5        0.0000 
     28 CZ         -6.4273    6.8973   22.4124 C.ar      3 PHE5        0.0000 
     29 CA         -8.9850    8.7416   21.2693 C.3       4 GLY6        0.0000 
     30 DU         -8.2006    7.4696   21.3985 H         5 CUB7        0.0000 
     31 N          -7.4161    6.1977   21.5277 N.2       2 ALA2        0.0000 
     32 CZ         -9.9738    8.0420   20.3845 C.ar      3 PHE5        0.0000 
     33 CZ         -9.1894    6.7700   20.5137 C.ar      3 PHE5        0.0000 
     34 CA         -8.4049    5.4980   20.6429 C.3       4 GLY6        0.0000 
     35 CA         -7.6205    4.2260   20.7721 C.3       4 GLY6        0.0000 
     36 CZ        -10.1782    6.0704   19.6290 C.ar      3 PHE5        0.0000 
     37 CA         -9.3937    4.7984   19.7581 C.3       4 GLY6        0.0000 
     38 CZ        -11.1670    5.3707   18.7442 C.ar      3 PHE5        0.0000 
     39 OG         -5.6168    7.2748   21.2080 O.2       1 SER1        0.0000 
     40 N          -8.1745    9.1192   20.0649 N.2       2 ALA2        0.0000 
     41 OG         -7.3901    7.8472   20.1941 O.2       1 SER1        0.0000 
     42 N          -6.6056    6.5752   20.3233 N.2       2 ALA2        0.0000 
     43 CA         -9.1633    8.4195   19.1802 C.3       4 GLY6        0.0000 
     44 N          -8.3788    7.1475   19.3093 N.2       2 ALA2        0.0000 
     45 N          -7.5944    5.8756   19.4385 N.2       2 ALA2        0.0000 
     46 N          -6.8100    4.6036   19.5677 N.2       2 ALA2        0.0000 
     47 CZ         -9.3676    6.4479   18.4246 C.ar      3 PHE5        0.0000 
     48 CA         -8.5832    5.1759   18.5538 C.3       4 GLY6        0.0000 
     49 CA         -7.7988    3.9039   18.6829 C.3       4 GLY6        0.0000 
     50 CZ        -10.3564    5.7483   17.5398 C.ar      3 PHE5        0.0000 
     51 CA         -9.5720    4.4763   17.6690 C.3       4 GLY6        0.0000 
     52 N          -7.5683    7.5251   18.1050 N.2       2 ALA2        0.0000 
     53 N          -8.5571    6.8254   17.2202 N.2       2 ALA2        0.0000 
     54 N          -7.7727    5.5535   17.3494 N.2       2 ALA2        0.0000 
@<TRIPOS>BOND
@<TRIPOS>SUBSTRUCTURE
     1 SER1       39 GROUP   
     2 ALA2        2 GROUP   
     3 PHE5        4 GROUP   
     4 GLY6        1 GROUP   
     5 CUB7        7 GROUP   
@<TRIPOS>SET

