#    Name: 4l34_1VG_2_INTS_M
#    Modification time : Mon Apr  7 23:53:59 2014

@<TRIPOS>MOLECULE
4l34_1VG_2_INTS_M
   48     0     6     0     0
SMALL
NO_CHARGES


@<TRIPOS>ATOM
      1 CA         -6.2980    7.6650   15.8440 C.3       2 GLC5        0.0000 
      2 CA         -8.4350    7.3510   16.3800 C.3       6 GLL5        0.0000 
      3 CA         -4.1610    7.9790   15.3080 C.3       4 GLP5        0.0000 
      4 CA         -9.6590    8.6065   17.0435 C.3       2 GLC5        0.0000 
      5 CA        -10.8830    9.8620   17.7070 C.3       4 GLP5        0.0000 
      6 N          -7.3990    9.2470   14.5285 N.am      1 SEC2        0.0000 
      7 N          -8.2120    8.0780   14.2220 N.am      5 SEL2        0.0000 
      8 N          -6.5860   10.4160   14.8350 N.am      3 SEP2        0.0000 
      9 N          -8.2950    8.6975   12.9640 N.am      1 SEC2        0.0000 
     10 N          -8.3780    9.3170   11.7060 N.am      3 SEP2        0.0000 
     11 CA         -8.2350    5.3175   12.4645 C.3       2 GLC5        0.0000 
     12 CA        -10.0030    6.0920   13.2930 C.3       6 GLL5        0.0000 
     13 CA         -6.4670    4.5430   11.6360 C.3       4 GLP5        0.0000 
     14 CA        -10.1140    8.2965   12.9920 C.3       2 GLC5        0.0000 
     15 CA        -10.2250   10.5010   12.6910 C.3       4 GLP5        0.0000 
     16 CA        -11.7500    4.0980   11.2965 C.3       2 GLC5        0.0000 
     17 CA        -10.9660    5.1370   12.9160 C.3       6 GLL5        0.0000 
     18 CA        -12.5340    3.0590    9.6770 C.3       4 GLP5        0.0000 
     19 CA        -13.0235    5.7315   13.0100 C.3       2 GLC5        0.0000 
     20 CA        -11.6880    4.4340   13.8860 C.3       6 GLL5        0.0000 
     21 CA        -14.3590    7.0290   12.1340 C.3       4 GLP5        0.0000 
     22 CA         -8.7970    4.6775   16.3190 C.3       2 GLC5        0.0000 
     23 CA         -9.1050    6.5350   17.2760 C.3       6 GLL5        0.0000 
     24 CA         -8.4890    2.8200   15.3620 C.3       4 GLP5        0.0000 
     25 CA        -10.4765    7.6325   17.3765 C.3       2 GLC5        0.0000 
     26 CA        -11.8480    8.7300   17.4770 C.3       4 GLP5        0.0000 
     27 CA         -7.8625    9.5725   21.3890 C.3       2 GLC5        0.0000 
     28 CA         -8.0260    7.5440   20.6970 C.3       6 GLL5        0.0000 
     29 CA         -7.6990   11.6010   22.0810 C.3       4 GLP5        0.0000 
     30 CA         -9.1777    4.5177   14.6598 C.3       2 GLC5        0.0000 
     31 CA         -9.7300    6.3390   14.6220 C.3       6 GLL5        0.0000 
     32 CA        -10.1602    6.2502   11.3412 C.3       2 GLC5        0.0000 
     33 CA         -9.8360    6.8860    9.5780 C.3       4 GLP5        0.0000 
     34 CA        -11.8532    6.3918   12.1073 C.3       2 GLC5        0.0000 
     35 CA        -13.2220    7.1690   11.1100 C.3       4 GLP5        0.0000 
     36 CA         -9.9080    3.8027   14.3815 C.3       2 GLC5        0.0000 
     37 CA         -9.7027    3.9645   15.3760 C.3       2 GLC5        0.0000 
     38 CA        -11.4010    4.6280   15.2220 C.3       6 GLL5        0.0000 
     39 CA         -9.7115    8.4500   18.3498 C.3       2 GLC5        0.0000 
     40 CA         -8.9670    6.5840   18.6690 C.3       6 GLL5        0.0000 
     41 CA         -9.6208    3.9400   20.1803 C.3       2 GLC5        0.0000 
     42 CA         -9.7520    5.7490   19.4690 C.3       6 GLL5        0.0000 
     43 CA         -9.5300    2.1050   20.1940 C.3       4 GLP5        0.0000 
     44 CA        -10.9882    6.4772   22.0188 C.3       2 GLC5        0.0000 
     45 CA         -9.6710    5.8010   20.8640 C.3       6 GLL5        0.0000 
     46 CA        -12.7450    6.7110   22.8580 C.3       4 GLP5        0.0000 
     47 CA         -6.6812    8.9735   19.7687 C.3       2 GLC5        0.0000 
     48 CA         -5.2930   10.4290   19.5310 C.3       4 GLP5        0.0000 
@<TRIPOS>BOND
@<TRIPOS>SUBSTRUCTURE
     1 SEC2        6 GROUP        1 X    SEC  0     ROOT SEC X 2
     2 GLC5        1 GROUP        1 X    GLC  0     **** GLC X 6
     3 SEP2        8 GROUP        1 Y    SEP  0     ROOT SEP Y 9
     4 GLP5        3 GROUP        1 Y    GLP  0     **** GLP Y 13
     5 SEL2        7 GROUP        1 Z    SEL  0     ROOT SEL Z 16
     6 GLL5        2 GROUP        1 Z    GLL  0     **** GLL Z 20
@<TRIPOS>SET

