#    Name: 4l34_1VG_2_ligand
#    Modification time : Mon Apr  7 23:53:59 2014

@<TRIPOS>MOLECULE
4l34_1VG_2_ligand
   32    35     1     0     0
SMALL
NO_CHARGES


@<TRIPOS>ATOM
      1 CAC        -8.4350    7.3510   16.3800 C.2       1 1VG1204     0.0000 
      2 CAB        -8.7490    7.2790   15.0190 C.2       1 1VG1204     0.0000 
      3 OAA        -8.2120    8.0780   14.2220 O.2       1 1VG1204     0.0000 
      4 CAK        -9.7300    6.3390   14.6220 C.ar      1 1VG1204     0.0000 
      5 CAJ       -10.0030    6.0920   13.2930 C.ar      1 1VG1204     0.0000 
      6 CAI       -10.9660    5.1370   12.9160 C.ar      1 1VG1204     0.0000 
      7 CAH       -11.6880    4.4340   13.8860 C.ar      1 1VG1204     0.0000 
      8 CAG       -11.4010    4.6280   15.2220 C.ar      1 1VG1204     0.0000 
      9 CAF       -10.4320    5.5900   15.5580 C.ar      1 1VG1204     0.0000 
     10 OAE       -10.1420    5.7440   16.8360 O.3       1 1VG1204     0.0000 
     11 CAD        -9.1050    6.5350   17.2760 C.2       1 1VG1204     0.0000 
     12 CAL        -8.9670    6.5840   18.6690 C.ar      1 1VG1204     0.0000 
     13 CAQ        -9.7520    5.7490   19.4690 C.ar      1 1VG1204     0.0000 
     14 CAP        -9.6710    5.8010   20.8640 C.ar      1 1VG1204     0.0000 
     15 CAM        -8.1130    7.4920   19.3160 C.ar      1 1VG1204     0.0000 
     16 CAN        -8.0260    7.5440   20.6970 C.ar      1 1VG1204     0.0000 
     17 CAO        -8.7920    6.6860   21.4950 C.ar      1 1VG1204     0.0000 
     18 CAR        -8.7500    6.7940   22.8450 C.2       1 1VG1204     0.0000 
     19 NAV        -8.6310    5.8440   23.7660 N.2       1 1VG1204     0.0000 
     20 NAU        -8.6950    6.4400   24.8520 N.2       1 1VG1204     0.0000 
     21 NAT        -8.8880    7.7490   24.6470 N.2       1 1VG1204     0.0000 
     22 NAS        -8.9400    7.9640   23.4910 N.pl3     1 1VG1204     0.0000 
     23 H          -7.7156    8.0029   16.7045 H         1 1VG1204     0.0000 
     24 H          -9.4992    6.6098   12.5526 H         1 1VG1204     0.0000 
     25 H         -11.1372    4.9576   11.9183 H         1 1VG1204     0.0000 
     26 H         -12.4242    3.7806   13.5979 H         1 1VG1204     0.0000 
     27 H         -11.8687    4.0983   15.9494 H         1 1VG1204     0.0000 
     28 H         -10.4031    5.0821   19.0225 H         1 1VG1204     0.0000 
     29 H         -10.2656    5.1803   21.4327 H         1 1VG1204     0.0000 
     30 H          -7.5381    8.1344   18.7391 H         1 1VG1204     0.0000 
     31 H          -7.3908    8.2211   21.1498 H         1 1VG1204     0.0000 
     32 H          -9.0904    8.8096   22.9804 H         1 1VG1204     0.0000 
@<TRIPOS>BOND
     1    2    1 1    
     2   11    1 2    
     3   23    1 1    
     4    3    2 2    
     5    4    2 1    
     6    5    4 ar   
     7    9    4 ar   
     8    6    5 ar   
     9   24    5 1    
    10    7    6 ar   
    11   25    6 1    
    12    8    7 ar   
    13   26    7 1    
    14    9    8 ar   
    15   27    8 1    
    16   10    9 1    
    17   11   10 1    
    18   12   11 1    
    19   13   12 ar   
    20   15   12 ar   
    21   14   13 ar   
    22   28   13 1    
    23   17   14 ar   
    24   29   14 1    
    25   16   15 ar   
    26   30   15 1    
    27   17   16 ar   
    28   31   16 1    
    29   18   17 1    
    30   19   18 2    
    31   22   18 1    
    32   20   19 1    
    33   21   20 2    
    34   22   21 1    
    35   32   22 1    
@<TRIPOS>SUBSTRUCTURE
     1 1VG1204     1 GROUP   
@<TRIPOS>SET

