#    Name: 3zt1_OM1_1_INTS_M
#    Modification time : Tue Mar 25 03:58:19 2014

@<TRIPOS>MOLECULE
3zt1_OM1_1_INTS_M
   70     0     9     0     0
SMALL
NO_CHARGES


@<TRIPOS>ATOM
      1 CA        -12.9950   32.6780    4.9305 C.3       3 GLC5        0.0000 
      2 CA        -12.4430   34.7230    5.0920 C.3       9 GLL5        0.0000 
      3 CA        -13.5470   30.6330    4.7690 C.3       6 GLP5        0.0000 
      4 CA        -13.5185   33.0620    3.7550 C.3       3 GLC5        0.0000 
      5 CA        -12.4470   34.9780    3.7310 C.3       9 GLL5        0.0000 
      6 CA        -14.5900   31.1460    3.7790 C.3       6 GLP5        0.0000 
      7 CA         -7.8660   33.0815   -3.8625 C.3       3 GLC5        0.0000 
      8 CA         -9.3180   32.2300   -2.4700 C.3       9 GLL5        0.0000 
      9 CA         -6.4140   33.9330   -5.2550 C.3       6 GLP5        0.0000 
     10 CA         -6.5180   31.7385    1.0695 C.3       3 GLC5        0.0000 
     11 CA         -5.6950   33.6950    0.6150 C.3       9 GLL5        0.0000 
     12 CA         -7.3410   29.7820    1.5240 C.3       6 GLP5        0.0000 
     13 CA         -7.8000   35.8500   -2.3645 C.3       3 GLC5        0.0000 
     14 CA         -6.6250   35.5060   -0.6540 C.3       9 GLL5        0.0000 
     15 CA         -8.9750   36.1940   -4.0750 C.3       6 GLP5        0.0000 
     16 CA         -8.6360   29.9035   -3.5615 C.3       3 GLC5        0.0000 
     17 CA         -9.9340   31.0150   -2.2570 C.3       9 GLL5        0.0000 
     18 CA         -7.3380   28.7920   -4.8660 C.3       6 GLP5        0.0000 
     19 CA        -10.9695   26.9740   -2.4595 C.3       3 GLC5        0.0000 
     20 CA        -10.5350   28.9280   -2.3310 C.3       9 GLL5        0.0000 
     21 CA        -11.4040   25.0200   -2.5880 C.3       6 GLP5        0.0000 
     22 CA         -8.7805   28.1485   -2.5610 C.3       3 GLC5        0.0000 
     23 CA         -7.0260   27.3690   -2.7910 C.3       6 GLP5        0.0000 
     24 CA         -6.4655   30.9905   -0.0620 C.3       3 GLC5        0.0000 
     25 CA         -5.5900   32.1990   -1.6480 C.3       9 GLL5        0.0000 
     26 CA         -6.0020   33.0660   -3.4515 C.3       3 GLC5        0.0000 
     27 CA         -5.7915   30.8640   -3.2375 C.3       3 GLC5        0.0000 
     28 CA         -5.9930   29.5290   -4.8270 C.3       6 GLP5        0.0000 
     29 CA         -4.6755   30.7550   -0.8680 C.3       3 GLC5        0.0000 
     30 CA         -3.7610   29.3110   -0.0880 C.3       6 GLP5        0.0000 
     31 CA         -4.4380   33.4500   -2.5655 C.3       3 GLC5        0.0000 
     32 CA         -3.2860   34.7010   -3.4830 C.3       6 GLP5        0.0000 
     33 O          -7.8965   34.8590    4.2860 O.2       1 ALC1        0.0000 
     34 O          -7.8860   36.0860    3.5800 O.2       7 ALL1        0.0000 
     35 O          -7.9070   33.6320    4.9920 O.2       4 ALP1        0.0000 
     36 N         -11.9750   29.3445    2.5995 N.am      2 SEC2        0.0000 
     37 N         -11.2110   30.0470    1.6240 N.am      8 SEL2        0.0000 
     38 N         -12.7390   28.6420    3.5750 N.am      5 SEP2        0.0000 
     39 N         -12.5875   29.3620    0.9555 N.am      2 SEC2        0.0000 
     40 N         -13.9640   28.6770    0.2870 N.am      5 SEP2        0.0000 
     41 N         -10.1770   29.2470    1.1395 N.am      2 SEC2        0.0000 
     42 N          -9.1430   28.4470    0.6550 N.am      5 SEP2        0.0000 
     43 N         -12.0480   31.7365    3.2295 N.am      2 SEC2        0.0000 
     44 N         -11.8280   32.1900    1.9190 N.am      8 SEL2        0.0000 
     45 N         -12.2680   31.2830    4.5400 N.am      5 SEP2        0.0000 
     46 N         -12.5195   29.0650   -0.4020 N.am      2 SEC2        0.0000 
     47 N         -11.0750   29.4530   -1.0910 N.am      8 SEL2        0.0000 
     48 CA         -9.2345   34.5747    6.4550 C.3       3 GLC5        0.0000 
     49 CA        -11.3470   35.0940    5.8460 C.3       9 GLL5        0.0000 
     50 CA         -7.6630   33.7390    7.3620 C.3       6 GLP5        0.0000 
     51 CA        -10.9280   33.3507    5.2500 C.3       3 GLC5        0.0000 
     52 CA         -9.9610   31.7930    5.0310 C.3       6 GLP5        0.0000 
     53 CA        -10.1158   33.8230    4.7990 C.3       3 GLC5        0.0000 
     54 CA        -10.2650   35.7270    5.2500 C.3       9 GLL5        0.0000 
     55 CA        -10.9358   33.5408    4.2305 C.3       3 GLC5        0.0000 
     56 CA        -11.3740   35.5990    3.1290 C.3       9 GLL5        0.0000 
     57 CA         -9.1557   34.4447   -3.0145 C.3       3 GLC5        0.0000 
     58 CA         -9.3550   33.1610   -1.4380 C.3       9 GLL5        0.0000 
     59 CA         -5.2745   33.0178    2.5148 C.3       3 GLC5        0.0000 
     60 CA         -4.7640   31.9690    3.8380 C.3       6 GLP5        0.0000 
     61 CA         -6.0095   37.5068   -0.5377 C.3       3 GLC5        0.0000 
     62 CA         -6.7990   36.2310    0.5030 C.3       9 GLL5        0.0000 
     63 CA         -5.3070   39.1450   -1.0000 C.3       6 GLP5        0.0000 
     64 CA        -10.9105   31.8967   -3.7092 C.3       3 GLC5        0.0000 
     65 CA        -12.1950   32.1710   -5.0550 C.3       6 GLP5        0.0000 
     66 CA         -4.5518   35.2532   -1.5032 C.3       3 GLC5        0.0000 
     67 CA         -6.0780   34.2390   -0.5970 C.3       9 GLL5        0.0000 
     68 CA         -2.7520   35.6340   -2.3810 C.3       6 GLP5        0.0000 
     69 CA         -8.8755   30.6369    0.4652 C.3       3 GLC5        0.0000 
     70 CA         -9.9760   32.8820   -0.2220 C.3       9 GLL5        0.0000 
@<TRIPOS>BOND
@<TRIPOS>SUBSTRUCTURE
     1 ALC1       33 GROUP        1 X    ALC  0     ROOT ALC X 1
     2 SEC2       36 GROUP        1 X    SEC  0     **** SEC X 2
     3 GLC5        1 GROUP        1 X    GLC  0     **** GLC X 6
     4 ALP1       35 GROUP        1 Y    ALP  0     ROOT ALP Y 8
     5 SEP2       38 GROUP        1 Y    SEP  0     **** SEP Y 9
     6 GLP5        3 GROUP        1 Y    GLP  0     **** GLP Y 13
     7 ALL1       34 GROUP        1 Z    ALL  0     ROOT ALL Z 15
     8 SEL2       37 GROUP        1 Z    SEL  0     **** SEL Z 16
     9 GLL5        2 GROUP        1 Z    GLL  0     **** GLL Z 20
@<TRIPOS>SET

