#    Name: 3zt1_OM1_1_ligand
#    Modification time : Tue Mar 25 03:58:19 2014

@<TRIPOS>MOLECULE
3zt1_OM1_1_ligand
   55    58     1     0     0
SMALL
NO_CHARGES


@<TRIPOS>ATOM
      1 C15       -11.3470   35.0940    5.8460 C.ar      1 OM11215     0.0000 
      2 C16       -12.4430   34.7230    5.0920 C.ar      1 OM11215     0.0000 
      3 C14       -10.2650   35.7270    5.2500 C.ar      1 OM11215     0.0000 
      4 C17       -12.4470   34.9780    3.7310 C.ar      1 OM11215     0.0000 
      5 C23        -9.3550   33.1610   -1.4380 C.ar      1 OM11215     0.0000 
      6 C6         -5.8750   34.4380    1.7680 C.ar      1 OM11215     0.0000 
      7 C10        -6.7990   36.2310    0.5030 C.ar      1 OM11215     0.0000 
      8 C24        -9.3180   32.2300   -2.4700 C.ar      1 OM11215     0.0000 
      9 C7         -5.6950   33.6950    0.6150 C.ar      1 OM11215     0.0000 
     10 C9         -6.6250   35.5060   -0.6540 C.ar      1 OM11215     0.0000 
     11 C13       -10.2760   35.9790    3.8840 C.ar      1 OM11215     0.0000 
     12 C30       -10.5860   31.6370   -0.0180 C.ar      1 OM11215     0.0000 
     13 C5         -6.4290   35.7020    1.7200 C.ar      1 OM11215     0.0000 
     14 C18       -11.3740   35.5990    3.1290 C.ar      1 OM11215     0.0000 
     15 C22        -9.9760   32.8820   -0.2220 C.ar      1 OM11215     0.0000 
     16 C25        -9.9340   31.0150   -2.2570 C.ar      1 OM11215     0.0000 
     17 C29       -10.5390   30.7240   -1.0670 C.ar      1 OM11215     0.0000 
     18 C8         -6.0780   34.2390   -0.5970 C.ar      1 OM11215     0.0000 
     19 C2         -9.1020   36.6510    3.2680 C.2       1 OM11215     0.0000 
     20 C31       -11.2660   31.2650    1.2650 C.2       1 OM11215     0.0000 
     21 C27       -10.5350   28.9280   -2.3310 C.3       1 OM11215     0.0000 
     22 C12        -5.5900   32.1990   -1.6480 C.3       1 OM11215     0.0000 
     23 C4         -6.6280   36.4890    2.9800 C.3       1 OM11215     0.0000 
     24 C19       -11.4570   35.8400    1.6540 C.3       1 OM11215     0.0000 
     25 C21        -9.9500   33.9800    0.8020 C.3       1 OM11215     0.0000 
     26 N3         -7.8860   36.0860    3.5800 N.am      1 OM11215     0.0000 
     27 N20       -11.3040   34.5930    0.8470 N.4       1 OM11215     0.0000 
     28 O33       -11.2110   30.0470    1.6240 O.co2     1 OM11215     0.0000 
     29 O1         -9.2340   37.6360    2.5420 O.2       1 OM11215     0.0000 
     30 O32       -11.8280   32.1900    1.9190 O.co2     1 OM11215     0.0000 
     31 O26       -10.0050   29.9760   -3.1650 O.3       1 OM11215     0.0000 
     32 O28       -11.0750   29.4530   -1.0910 O.3       1 OM11215     0.0000 
     33 O11        -5.9530   33.5750   -1.8080 O.3       1 OM11215     0.0000 
     34 H         -11.3294   34.9004    6.8609 H         1 OM11215     0.0000 
     35 H         -13.2466   34.2632    5.5341 H         1 OM11215     0.0000 
     36 H          -9.4559   36.0093    5.8186 H         1 OM11215     0.0000 
     37 H         -13.2662   34.6980    3.1620 H         1 OM11215     0.0000 
     38 H          -8.9082   34.0897   -1.5757 H         1 OM11215     0.0000 
     39 H          -5.5890   34.0385    2.6823 H         1 OM11215     0.0000 
     40 H          -7.2107   37.1804    0.4589 H         1 OM11215     0.0000 
     41 H          -8.8534   32.4422   -3.3457 H         1 OM11215     0.0000 
     42 H          -5.2852   32.7585    0.6588 H         1 OM11215     0.0000 
     43 H          -6.9020   35.9064   -1.5634 H         1 OM11215     0.0000 
     44 H          -9.7422   28.1837   -2.1062 H         1 OM11215     0.0000 
     45 H         -11.3269   28.3724   -2.8762 H         1 OM11215     0.0000 
     46 H          -6.6360   37.5524    2.7362 H         1 OM11215     0.0000 
     47 H          -5.7941   36.2932    3.6557 H         1 OM11215     0.0000 
     48 H         -10.6753   36.5646    1.3597 H         1 OM11215     0.0000 
     49 H         -12.4283   36.3123    1.4171 H         1 OM11215     0.0000 
     50 H          -9.2136   34.7229    0.5181 H         1 OM11215     0.0000 
     51 H          -9.6957   33.5660    1.7708 H         1 OM11215     0.0000 
     52 H          -7.8343   35.3157    4.2906 H         1 OM11215     0.0000 
     53 H          -4.7161   32.0983   -1.1725 H         1 OM11215     0.0000 
     54 H          -6.2717   31.6942   -1.1184 H         1 OM11215     0.0000 
     55 H          -5.4998   31.7339   -2.5286 H         1 OM11215     0.0000 
@<TRIPOS>BOND
     1    2    1 ar   
     2    3    1 ar   
     3   34    1 1    
     4    4    2 ar   
     5   35    2 1    
     6   11    3 ar   
     7   36    3 1    
     8   14    4 ar   
     9   37    4 1    
    10    8    5 ar   
    11   15    5 ar   
    12   38    5 1    
    13    9    6 ar   
    14   13    6 ar   
    15   39    6 1    
    16   10    7 ar   
    17   13    7 ar   
    18   40    7 1    
    19   16    8 ar   
    20   41    8 1    
    21   18    9 ar   
    22   42    9 1    
    23   18   10 ar   
    24   43   10 1    
    25   14   11 ar   
    26   19   11 1    
    27   15   12 ar   
    28   17   12 ar   
    29   20   12 1    
    30   23   13 1    
    31   24   14 1    
    32   25   15 1    
    33   17   16 ar   
    34   31   16 1    
    35   32   17 1    
    36   33   18 1    
    37   26   19 am   
    38   29   19 2    
    39   28   20 ar   
    40   30   20 ar   
    41   31   21 1    
    42   32   21 1    
    43   44   21 1    
    44   45   21 1    
    45   33   22 1    
    46   53   22 1    
    47   54   22 1    
    48   55   22 1    
    49   26   23 1    
    50   46   23 1    
    51   47   23 1    
    52   27   24 1    
    53   48   24 1    
    54   49   24 1    
    55   27   25 1    
    56   50   25 1    
    57   51   25 1    
    58   52   26 1    
@<TRIPOS>SUBSTRUCTURE
     1 OM11215     1 GROUP   
@<TRIPOS>SET

