#    Name: 2qg0_A94_1_INTS_M
#    Modification time : Mon Mar 24 22:00:55 2014

@<TRIPOS>MOLECULE
2qg0_A94_1_INTS_M
   57     0     9     0     0
SMALL
NO_CHARGES


@<TRIPOS>ATOM
      1 CA         15.9525   25.6680   15.7505 C.3       3 GLC5        0.0000 
      2 CA         17.2520   26.6100   17.1260 C.3       9 GLL5        0.0000 
      3 CA         14.6530   24.7260   14.3750 C.3       6 GLP5        0.0000 
      4 CA         17.1560   24.9790   18.5820 C.3       3 GLC5        0.0000 
      5 CA         17.0600   23.3480   20.0380 C.3       6 GLP5        0.0000 
      6 CA         17.4970   28.1005   18.4525 C.3       3 GLC5        0.0000 
      7 CA         17.7420   29.5910   19.7790 C.3       6 GLP5        0.0000 
      8 CA         21.1310   27.0685   16.1365 C.3       3 GLC5        0.0000 
      9 CA         19.7440   25.9880   16.2410 C.3       9 GLL5        0.0000 
     10 CA         22.5180   28.1490   16.0320 C.3       6 GLP5        0.0000 
     11 CA         20.1575   28.0460   12.7345 C.3       3 GLC5        0.0000 
     12 CA         19.1590   27.0040   14.1830 C.3       9 GLL5        0.0000 
     13 CA         21.1560   29.0880   11.2860 C.3       6 GLP5        0.0000 
     14 O          15.3500   27.1610   18.8495 O.2       1 ALC1        0.0000 
     15 O          16.0300   26.9110   17.5770 O.2       7 ALL1        0.0000 
     16 O          14.6700   27.4110   20.1220 O.2       4 ALP1        0.0000 
     17 CA         20.6080   23.8225   19.9890 C.3       3 GLC5        0.0000 
     18 CA         20.2210   24.9170   18.5060 C.3       9 GLL5        0.0000 
     19 CA         20.9950   22.7280   21.4720 C.3       6 GLP5        0.0000 
     20 CA         20.7120   25.9365   20.2650 C.3       3 GLC5        0.0000 
     21 CA         21.2030   26.9560   22.0240 C.3       6 GLP5        0.0000 
     22 O          22.6540   24.0395   18.4915 O.2       1 ALC1        0.0000 
     23 O          21.1560   23.9730   17.8570 O.2       7 ALL1        0.0000 
     24 O          24.1520   24.1060   19.1260 O.2       4 ALP1        0.0000 
     25 N          20.3745   20.1795   18.8830 N.am      2 SEC2        0.0000 
     26 N          19.9920   21.8740   18.7510 N.am      8 SEL2        0.0000 
     27 N          20.7570   18.4850   19.0150 N.am      5 SEP2        0.0000 
     28 CA         20.8430   27.4105   10.0255 C.3       3 GLC5        0.0000 
     29 CA         20.5300   25.7330    8.7650 C.3       9 GLL5        0.0000 
     30 CA         19.0715   24.9485    7.3755 C.3       3 GLC5        0.0000 
     31 CA         17.6130   24.1640    5.9860 C.3       6 GLP5        0.0000 
     32 CA         18.7625   26.9645    9.2255 C.3       3 GLC5        0.0000 
     33 CA         16.9950   28.1960    9.6860 C.3       6 GLP5        0.0000 
     34 CA         20.3510   26.8860    7.3080 C.3       3 GLC5        0.0000 
     35 CA         20.1720   28.0390    5.8510 C.3       6 GLP5        0.0000 
     36 CA         18.1885   26.3340   10.0810 C.3       3 GLC5        0.0000 
     37 CA         19.3820   24.4720   10.4760 C.3       9 GLL5        0.0000 
     38 N          16.3100   25.7865    9.0145 N.am      2 SEC2        0.0000 
     39 N          17.2440   24.8260    9.5160 N.am      8 SEL2        0.0000 
     40 N          15.3760   26.7470    8.5130 N.am      5 SEP2        0.0000 
     41 CA         16.2730   23.6020   14.1680 C.3       3 GLC5        0.0000 
     42 CA         17.8930   22.4780   13.9610 C.3       9 GLL5        0.0000 
     43 CA         15.7065   22.7655   15.1400 C.3       3 GLC5        0.0000 
     44 CA         17.3740   22.0490   15.2340 C.3       9 GLL5        0.0000 
     45 CA         14.0390   23.4820   15.0460 C.3       6 GLP5        0.0000 
     46 CA         17.6260   21.9125   18.2835 C.3       3 GLC5        0.0000 
     47 CA         18.2550   21.9910   16.3720 C.3       9 GLL5        0.0000 
     48 CA         16.9970   21.8340   20.1950 C.3       6 GLP5        0.0000 
     49 CA         20.1013   28.0245   15.6918 C.3       3 GLC5        0.0000 
     50 CA         18.8160   26.6520   15.4480 C.3       9 GLL5        0.0000 
     51 CA         21.2150   29.2210   16.5680 C.3       6 GLP5        0.0000 
     52 CA         18.4140   24.3160   19.0300 C.3       3 GLC5        0.0000 
     53 CA         19.3150   25.6510   17.5380 C.3       9 GLL5        0.0000 
     54 CA         21.3625   26.3220   17.8105 C.3       3 GLC5        0.0000 
     55 CA         22.9570   27.3600   17.5990 C.3       6 GLP5        0.0000 
     56 CA         16.6118   20.7475   16.2735 C.3       3 GLC5        0.0000 
     57 CA         15.4090   19.4750   16.7440 C.3       6 GLP5        0.0000 
@<TRIPOS>BOND
@<TRIPOS>SUBSTRUCTURE
     1 ALC1       14 GROUP        1 X    ALC  0     ROOT ALC X 1
     2 SEC2       25 GROUP        1 X    SEC  0     **** SEC X 2
     3 GLC5        1 GROUP        1 X    GLC  0     **** GLC X 6
     4 ALP1       16 GROUP        1 Y    ALP  0     ROOT ALP Y 8
     5 SEP2       27 GROUP        1 Y    SEP  0     **** SEP Y 9
     6 GLP5        3 GROUP        1 Y    GLP  0     **** GLP Y 13
     7 ALL1       15 GROUP        1 Z    ALL  0     ROOT ALL Z 15
     8 SEL2       26 GROUP        1 Z    SEL  0     **** SEL Z 16
     9 GLL5        2 GROUP        1 Z    GLL  0     **** GLL Z 20
@<TRIPOS>SET

