#    Name: 2qg0_A94_1_ligand
#    Modification time : Mon Mar 24 22:00:55 2014

@<TRIPOS>MOLECULE
2qg0_A94_1_ligand
   46    48     1     0     0
SMALL
NO_CHARGES


@<TRIPOS>ATOM
      1 C1         18.8160   26.6520   15.4480 C.ar      1 A942001     0.0000 
      2 N2         17.5640   26.9740   15.8660 N.ar      1 A942001     0.0000 
      3 C3         17.2520   26.6100   17.1260 C.ar      1 A942001     0.0000 
      4 N4         18.0640   25.9690   17.9700 N.ar      1 A942001     0.0000 
      5 C5         19.3150   25.6510   17.5380 C.ar      1 A942001     0.0000 
      6 C6         19.7440   25.9880   16.2410 C.ar      1 A942001     0.0000 
      7 C7         19.1590   27.0040   14.1830 C.3       1 A942001     0.0000 
      8 N8         16.0300   26.9110   17.5770 N.pl3     1 A942001     0.0000 
      9 C9         20.2210   24.9170   18.5060 C.3       1 A942001     0.0000 
     10 N10        21.1560   23.9730   17.8570 N.pl3     1 A942001     0.0000 
     11 S11        20.6880   22.3130   17.5740 S.o2      1 A942001     0.0000 
     12 O12        19.9920   21.8740   18.7510 O.2       1 A942001     0.0000 
     13 O13        21.9350   21.7020   17.2350 O.2       1 A942001     0.0000 
     14 C14        20.5300   25.7330    8.7650 C.3       1 A942001     0.0000 
     15 C15        20.7050   24.8060    9.9410 C.3       1 A942001     0.0000 
     16 C16        19.3820   24.4720   10.4760 C.2       1 A942001     0.0000 
     17 C17        18.4280   25.0010    9.4880 C.2       1 A942001     0.0000 
     18 O18        19.0930   25.7050    8.5470 O.3       1 A942001     0.0000 
     19 O19        17.2440   24.8260    9.5160 O.2       1 A942001     0.0000 
     20 C20        18.9670   23.8430   11.5660 C.2       1 A942001     0.0000 
     21 N21        19.8210   23.2670   12.6190 N.pl3     1 A942001     0.0000 
     22 C22        19.3000   22.8470   13.8220 C.ar      1 A942001     0.0000 
     23 C23        17.8930   22.4780   13.9610 C.ar      1 A942001     0.0000 
     24 C24        17.3740   22.0490   15.2340 C.ar      1 A942001     0.0000 
     25 C25        18.2550   21.9910   16.3720 C.ar      1 A942001     0.0000 
     26 C26        19.6390   22.3560   16.2270 C.ar      1 A942001     0.0000 
     27 C27        20.1510   22.7780   14.9650 C.ar      1 A942001     0.0000 
     28 H          20.6598   25.7604   15.9187 H         1 A942001     0.0000 
     29 H          15.2981   26.9149   16.8956 H         1 A942001     0.0000 
     30 H          15.9575   27.1052   18.5553 H         1 A942001     0.0000 
     31 H          19.5866   24.3758   19.2376 H         1 A942001     0.0000 
     32 H          20.7900   25.6682   19.0913 H         1 A942001     0.0000 
     33 H          22.0504   24.1636   17.5479 H         1 A942001     0.0000 
     34 H          21.0601   25.3408    7.9259 H         1 A942001     0.0000 
     35 H          20.8653   26.7098    9.0340 H         1 A942001     0.0000 
     36 H          21.3107   25.3037   10.6969 H         1 A942001     0.0000 
     37 H          21.2234   23.9075    9.6093 H         1 A942001     0.0000 
     38 H          17.9188   23.7116   11.7510 H         1 A942001     0.0000 
     39 H          20.8266   23.1942   12.4105 H         1 A942001     0.0000 
     40 H          17.2872   22.5273   13.1526 H         1 A942001     0.0000 
     41 H          16.4049   21.7921   15.3277 H         1 A942001     0.0000 
     42 H          17.9005   21.6940   17.2714 H         1 A942001     0.0000 
     43 H          21.1356   23.0332   14.8781 H         1 A942001     0.0000 
     44 H          20.0939   26.7270   13.9610 H         1 A942001     0.0000 
     45 H          18.5589   26.5809   13.5041 H         1 A942001     0.0000 
     46 H          19.1058   27.9931   14.0454 H         1 A942001     0.0000 
@<TRIPOS>BOND
     1    2    1 ar   
     2    6    1 ar   
     3    7    1 1    
     4    3    2 ar   
     5    4    3 ar   
     6    8    3 1    
     7    5    4 ar   
     8    6    5 ar   
     9    9    5 1    
    10   28    6 1    
    11   44    7 1    
    12   45    7 1    
    13   46    7 1    
    14   29    8 1    
    15   30    8 1    
    16   10    9 1    
    17   31    9 1    
    18   32    9 1    
    19   11   10 1    
    20   33   10 1    
    21   12   11 2    
    22   13   11 2    
    23   26   11 1    
    24   15   14 1    
    25   18   14 1    
    26   34   14 1    
    27   35   14 1    
    28   16   15 1    
    29   36   15 1    
    30   37   15 1    
    31   17   16 1    
    32   20   16 2    
    33   18   17 1    
    34   19   17 2    
    35   21   20 1    
    36   38   20 1    
    37   22   21 1    
    38   39   21 1    
    39   23   22 ar   
    40   27   22 ar   
    41   24   23 ar   
    42   40   23 1    
    43   25   24 ar   
    44   41   24 1    
    45   26   25 ar   
    46   42   25 1    
    47   27   26 ar   
    48   43   27 1    
@<TRIPOS>SUBSTRUCTURE
     1 A942001     1 GROUP   
@<TRIPOS>SET

