#    Name: 3efl_706_1_INTS_M
#    Modification time : Tue Mar 25 01:43:38 2014

@<TRIPOS>MOLECULE
3efl_706_1_INTS_M
   90     0     9     0     0
SMALL
NO_CHARGES


@<TRIPOS>ATOM
      1 CA         41.7305   41.7855   10.1865 C.3       3 GLC5        0.0000 
      2 CA         40.4480   40.8900   11.6350 C.3       9 GLL5        0.0000 
      3 CA         43.0130   42.6810    8.7380 C.3       6 GLP5        0.0000 
      4 CA         41.9340   41.0890   12.5785 C.3       3 GLC5        0.0000 
      5 CA         43.4200   41.2880   13.5220 C.3       6 GLP5        0.0000 
      6 CA         40.1360   39.6360   13.4320 C.3       3 GLC5        0.0000 
      7 CA         39.8240   38.3820   15.2290 C.3       6 GLP5        0.0000 
      8 CA         37.5150   39.7035    8.9985 C.3       3 GLC5        0.0000 
      9 CA         39.0040   40.9610    9.5550 C.3       9 GLL5        0.0000 
     10 CA         36.0260   38.4460    8.4420 C.3       6 GLP5        0.0000 
     11 CA         38.3745   42.1595    8.4365 C.3       3 GLC5        0.0000 
     12 CA         37.7450   43.3580    7.3180 C.3       6 GLP5        0.0000 
     13 CA         40.1425   41.9440    8.2555 C.3       3 GLC5        0.0000 
     14 CA         41.2810   42.9270    6.9560 C.3       6 GLP5        0.0000 
     15 CA         39.1335   43.1910    9.6930 C.3       3 GLC5        0.0000 
     16 CA         39.2630   45.4210    9.8310 C.3       6 GLP5        0.0000 
     17 CA         36.4505   42.6065   10.6485 C.3       3 GLC5        0.0000 
     18 CA         38.0120   41.5100   11.8020 C.3       9 GLL5        0.0000 
     19 CA         34.8890   43.7030    9.4950 C.3       6 GLP5        0.0000 
     20 CA         35.8700   36.9310   10.8940 C.3       3 GLC5        0.0000 
     21 CA         37.4530   36.8790   12.3120 C.3       9 GLL5        0.0000 
     22 CA         34.2870   36.9830    9.4760 C.3       6 GLP5        0.0000 
     23 O          35.5115   36.2140   13.3970 O.2       1 ALC1        0.0000 
     24 O          36.8170   35.7720   12.6880 O.2       7 ALL1        0.0000 
     25 O          34.2060   36.6560   14.1060 O.2       4 ALP1        0.0000 
     26 N          39.6935   35.4020   13.5825 N.am      2 SEC2        0.0000 
     27 N          38.6650   34.4860   12.9500 N.am      8 SEL2        0.0000 
     28 N          40.7220   36.3180   14.2150 N.am      5 SEP2        0.0000 
     29 CA         35.0135   33.0995   11.2500 C.3       3 GLC5        0.0000 
     30 CA         35.1670   33.5180   13.0870 C.3       9 GLL5        0.0000 
     31 CA         34.8600   32.6810    9.4130 C.3       6 GLP5        0.0000 
     32 CA         35.5605   30.3080   15.5475 C.3       3 GLC5        0.0000 
     33 CA         34.9520   31.3010   13.9750 C.3       9 GLL5        0.0000 
     34 CA         36.1690   29.3150   17.1200 C.3       6 GLP5        0.0000 
     35 CA         35.7165   29.5485   13.3675 C.3       3 GLC5        0.0000 
     36 CA         36.4810   27.7960   12.7600 C.3       6 GLP5        0.0000 
     37 CA         33.4970   29.8460   14.0090 C.3       3 GLC5        0.0000 
     38 CA         32.0420   28.3910   14.0430 C.3       6 GLP5        0.0000 
     39 CA         36.6120   30.8160   15.5325 C.3       3 GLC5        0.0000 
     40 CA         37.0550   32.3170   13.9450 C.3       9 GLL5        0.0000 
     41 CA         37.5435   30.2225   16.0550 C.3       3 GLC5        0.0000 
     42 CA         38.9180   31.1300   14.9900 C.3       9 GLL5        0.0000 
     43 CA         39.9365   30.6965   16.4945 C.3       3 GLC5        0.0000 
     44 CA         40.9550   30.2630   17.9990 C.3       6 GLP5        0.0000 
     45 CA         39.4340   27.4815   10.7180 C.3       3 GLC5        0.0000 
     46 CA         39.8750   29.1960   11.8520 C.3       9 GLL5        0.0000 
     47 CA         38.9930   25.7670    9.5840 C.3       6 GLP5        0.0000 
     48 CA         41.4450   28.8660   10.4125 C.3       3 GLC5        0.0000 
     49 CA         43.0150   28.5360    8.9730 C.3       6 GLP5        0.0000 
     50 N          40.8180   27.0720   11.2465 N.am      2 SEC2        0.0000 
     51 N          40.2950   28.0570   12.3790 N.am      8 SEL2        0.0000 
     52 N          41.3410   26.0870   10.1140 N.am      5 SEP2        0.0000 
     53 CA         35.3900   38.7405   13.0162 C.3       3 GLC5        0.0000 
     54 CA         37.1130   38.1040   12.8820 C.3       9 GLL5        0.0000 
     55 CA         33.3940   38.7840   13.3920 C.3       6 GLP5        0.0000 
     56 CA         37.0700   38.8572   10.1565 C.3       3 GLC5        0.0000 
     57 CA         37.6590   39.2900   12.3990 C.3       9 GLL5        0.0000 
     58 CA         38.9008   38.6770   13.6104 C.3       3 GLC5        0.0000 
     59 CA         37.3358   37.9405    9.7308 C.3       3 GLC5        0.0000 
     60 CA         38.9240   38.0250   10.7780 C.3       9 GLL5        0.0000 
     61 CA         40.3162   36.6000   11.6197 C.3       3 GLC5        0.0000 
     62 CA         38.3670   36.8450   11.2610 C.3       9 GLL5        0.0000 
     63 CA         41.9870   35.7650   12.2200 C.3       6 GLP5        0.0000 
     64 CA         38.8670   37.6220   13.5077 C.3       3 GLC5        0.0000 
     65 CA         38.6701   35.7440   10.4684 C.3       3 GLC5        0.0000 
     66 CA         39.2910   34.3310    9.2710 C.3       6 GLP5        0.0000 
     67 CA         36.5915   31.8935   11.9902 C.3       3 GLC5        0.0000 
     68 CA         36.5290   33.4670   13.3620 C.3       9 GLL5        0.0000 
     69 CA         36.3910   30.8950   10.3270 C.3       6 GLP5        0.0000 
     70 CA         33.0037   33.7522   12.3200 C.3       3 GLC5        0.0000 
     71 CA         31.2410   34.5340   11.3980 C.3       6 GLP5        0.0000 
     72 CA         33.4545   32.2570   14.8695 C.3       3 GLC5        0.0000 
     73 CA         34.3660   32.4230   13.3970 C.3       9 GLL5        0.0000 
     74 CA         32.2500   32.6520   16.0530 C.3       6 GLP5        0.0000 
     75 CA         35.5250   31.3785   12.0065 C.3       3 GLC5        0.0000 
     76 CA         35.6073   33.7039   15.0874 C.3       3 GLC5        0.0000 
     77 CA         34.7630   34.5030   16.5900 C.3       6 GLP5        0.0000 
     78 CA         39.6572   30.8065   10.5100 C.3       3 GLC5        0.0000 
     79 CA         39.4280   30.2280   12.6700 C.3       9 GLL5        0.0000 
     80 CA         39.6630   31.9010    8.7590 C.3       6 GLP5        0.0000 
     81 CA         38.0212   30.3035   11.2940 C.3       3 GLC5        0.0000 
     82 CA         38.0665   28.7300   12.6829 C.3       3 GLC5        0.0000 
     83 CA         41.2315   30.1875   12.3354 C.3       3 GLC5        0.0000 
     84 CA         42.8110   30.7110   12.0650 C.3       6 GLP5        0.0000 
     85 CA         39.0923   27.0445   15.0953 C.3       3 GLC5        0.0000 
     86 CA         40.3140   27.8410   13.6840 C.3       9 GLL5        0.0000 
     87 CA         38.0870   25.7560   16.0650 C.3       6 GLP5        0.0000 
     88 CA         38.2892   28.0645   13.4428 C.3       3 GLC5        0.0000 
     89 CA         39.8810   28.8250   14.5670 C.3       9 GLL5        0.0000 
     90 CA         41.4543   29.5220   13.0953 C.3       3 GLC5        0.0000 
@<TRIPOS>BOND
@<TRIPOS>SUBSTRUCTURE
     1 ALC1       23 GROUP        1 X    ALC  0     ROOT ALC X 1
     2 SEC2       26 GROUP        1 X    SEC  0     **** SEC X 2
     3 GLC5        1 GROUP        1 X    GLC  0     **** GLC X 6
     4 ALP1       25 GROUP        1 Y    ALP  0     ROOT ALP Y 8
     5 SEP2       28 GROUP        1 Y    SEP  0     **** SEP Y 9
     6 GLP5        3 GROUP        1 Y    GLP  0     **** GLP Y 13
     7 ALL1       24 GROUP        1 Z    ALL  0     ROOT ALL Z 15
     8 SEL2       27 GROUP        1 Z    SEL  0     **** SEL Z 16
     9 GLL5        2 GROUP        1 Z    GLL  0     **** GLL Z 20
@<TRIPOS>SET

