#    Name: 3efl_706_1_ligand
#    Modification time : Tue Mar 25 01:43:39 2014

@<TRIPOS>MOLECULE
3efl_706_1_ligand
   51    54     1     0     0
SMALL
NO_CHARGES


@<TRIPOS>ATOM
      1 C2         40.4480   40.8900   11.6350 C.3       1 706501      0.0000 
      2 C1         39.0490   40.6710   11.0570 C.3       1 706501      0.0000 
      3 C3         39.0040   40.9610    9.5550 C.3       1 706501      0.0000 
      4 C28        38.0120   41.5100   11.8020 C.3       1 706501      0.0000 
      5 N27        37.3530   40.5510   12.7020 N.pl3     1 706501      0.0000 
      6 C26        37.6590   39.2900   12.3990 C.ar      1 706501      0.0000 
      7 C22        37.1130   38.1040   12.8820 C.ar      1 706501      0.0000 
      8 C25        38.5690   39.2470   11.3430 C.ar      1 706501      0.0000 
      9 C23        38.9240   38.0250   10.7780 C.ar      1 706501      0.0000 
     10 C24        38.3670   36.8450   11.2610 C.ar      1 706501      0.0000 
     11 C13        37.4530   36.8790   12.3120 C.ar      1 706501      0.0000 
     12 N12        36.8170   35.7720   12.6880 N.am      1 706501      0.0000 
     13 C10        37.4440   34.6330   12.9770 C.2       1 706501      0.0000 
     14 O11        38.6650   34.4860   12.9500 O.2       1 706501      0.0000 
     15 C8         36.5290   33.4670   13.3620 C.ar      1 706501      0.0000 
     16 C9         35.1670   33.5180   13.0870 C.ar      1 706501      0.0000 
     17 C4         34.3660   32.4230   13.3970 C.ar      1 706501      0.0000 
     18 C5         34.9520   31.3010   13.9750 C.ar      1 706501      0.0000 
     19 N6         36.2500   31.2800   14.2260 N.ar      1 706501      0.0000 
     20 C7         37.0550   32.3170   13.9450 C.ar      1 706501      0.0000 
     21 N14        38.3570   32.2490   14.2180 N.pl3     1 706501      0.0000 
     22 C15        38.9180   31.1300   14.9900 C.3       1 706501      0.0000 
     23 C16        39.4300   30.0360   14.0490 C.ar      1 706501      0.0000 
     24 C17        39.4280   30.2280   12.6700 C.ar      1 706501      0.0000 
     25 C18        39.8750   29.1960   11.8520 C.ar      1 706501      0.0000 
     26 N19        40.2950   28.0570   12.3790 N.ar      1 706501      0.0000 
     27 C20        40.3140   27.8410   13.6840 C.ar      1 706501      0.0000 
     28 C21        39.8810   28.8250   14.5670 C.ar      1 706501      0.0000 
     29 H          37.3211   41.9146   11.0947 H         1 706501      0.0000 
     30 H          38.5159   42.2742   12.3528 H         1 706501      0.0000 
     31 H          36.7749   40.8733   13.4132 H         1 706501      0.0000 
     32 H          36.4482   38.1320   13.6720 H         1 706501      0.0000 
     33 H          39.5990   37.9949   10.0025 H         1 706501      0.0000 
     34 H          38.6307   35.9430   10.8408 H         1 706501      0.0000 
     35 H          35.7502   35.7978   12.7618 H         1 706501      0.0000 
     36 H          34.7565   34.3534   12.6603 H         1 706501      0.0000 
     37 H          33.3639   32.4426   13.2033 H         1 706501      0.0000 
     38 H          34.3383   30.4891   14.1996 H         1 706501      0.0000 
     39 H          39.0358   32.9670   13.9079 H         1 706501      0.0000 
     40 H          38.1594   30.6926   15.6444 H         1 706501      0.0000 
     41 H          39.7525   31.4676   15.6102 H         1 706501      0.0000 
     42 H          39.1054   31.1071   12.2690 H         1 706501      0.0000 
     43 H          39.8675   29.3500   10.8206 H         1 706501      0.0000 
     44 H          40.6499   26.9383   14.0834 H         1 706501      0.0000 
     45 H          39.8935   28.6631   15.5726 H         1 706501      0.0000 
     46 H          41.1255   40.2941   11.2038 H         1 706501      0.0000 
     47 H          40.7604   41.8310   11.5050 H         1 706501      0.0000 
     48 H          40.4773   40.7045   12.6172 H         1 706501      0.0000 
     49 H          39.2585   41.9064    9.3515 H         1 706501      0.0000 
     50 H          39.6306   40.3724    9.0442 H         1 706501      0.0000 
     51 H          38.0902   40.8153    9.1758 H         1 706501      0.0000 
@<TRIPOS>BOND
     1    2    1 1    
     2   46    1 1    
     3   47    1 1    
     4   48    1 1    
     5    3    2 1    
     6    4    2 1    
     7    8    2 1    
     8   49    3 1    
     9   50    3 1    
    10   51    3 1    
    11    5    4 1    
    12   29    4 1    
    13   30    4 1    
    14    6    5 1    
    15   31    5 1    
    16    7    6 ar   
    17    8    6 ar   
    18   11    7 ar   
    19   32    7 1    
    20    9    8 ar   
    21   10    9 ar   
    22   33    9 1    
    23   11   10 ar   
    24   34   10 1    
    25   12   11 1    
    26   13   12 am   
    27   35   12 1    
    28   14   13 2    
    29   15   13 1    
    30   16   15 ar   
    31   20   15 ar   
    32   17   16 ar   
    33   36   16 1    
    34   18   17 ar   
    35   37   17 1    
    36   19   18 ar   
    37   38   18 1    
    38   20   19 ar   
    39   21   20 1    
    40   22   21 1    
    41   39   21 1    
    42   23   22 1    
    43   40   22 1    
    44   41   22 1    
    45   24   23 ar   
    46   28   23 ar   
    47   25   24 ar   
    48   42   24 1    
    49   26   25 ar   
    50   43   25 1    
    51   27   26 ar   
    52   28   27 ar   
    53   44   27 1    
    54   45   28 1    
@<TRIPOS>SUBSTRUCTURE
     1 706501      1 GROUP   
@<TRIPOS>SET

