#    Name: 2bt0_CT5_2_INTS_M
#    Modification time : Mon Mar 24 21:38:05 2014

@<TRIPOS>MOLECULE
2bt0_CT5_2_INTS_M
   54     0     6     0     0
SMALL
NO_CHARGES


@<TRIPOS>ATOM
      1 CA          2.6290  -35.7375  -47.4170 C.3       2 GLC5        0.0000 
      2 CA          1.9790  -36.3470  -49.4420 C.3       6 GLL5        0.0000 
      3 CA          3.2790  -35.1280  -45.3920 C.3       4 GLP5        0.0000 
      4 CA          2.6205  -34.1770  -52.8845 C.3       2 GLC5        0.0000 
      5 CA          3.1560  -35.3330  -51.3270 C.3       6 GLL5        0.0000 
      6 CA          2.0850  -33.0210  -54.4420 C.3       4 GLP5        0.0000 
      7 CA          4.7875  -37.3675  -54.1370 C.3       2 GLC5        0.0000 
      8 CA          3.1720  -36.8710  -53.3910 C.3       6 GLL5        0.0000 
      9 CA          6.4030  -37.8640  -54.8830 C.3       4 GLP5        0.0000 
     10 CA          2.6285  -34.9460  -53.9165 C.3       2 GLC5        0.0000 
     11 CA          5.2390  -32.4845  -50.9680 C.3       2 GLC5        0.0000 
     12 CA          3.9440  -34.2950  -50.8860 C.3       6 GLL5        0.0000 
     13 CA          6.5340  -30.6740  -51.0500 C.3       4 GLP5        0.0000 
     14 O           5.4575  -32.6725  -52.0165 O.2       1 ALC1        0.0000 
     15 O           4.9360  -34.1430  -51.7790 O.2       5 ALL1        0.0000 
     16 O           5.9790  -31.2020  -52.2540 O.2       3 ALP1        0.0000 
     17 O           6.2960  -33.9750  -51.8990 O.2       1 ALC1        0.0000 
     18 O           7.6560  -33.8070  -52.0190 O.2       3 ALP1        0.0000 
     19 CA          1.4815  -30.8435  -50.2145 C.3       2 GLC5        0.0000 
     20 CA          0.9450  -30.4590  -48.1010 C.3       6 GLL5        0.0000 
     21 CA          2.0180  -31.2280  -52.3280 C.3       4 GLP5        0.0000 
     22 CA          1.0800  -28.4105  -48.5250 C.3       2 GLC5        0.0000 
     23 CA          1.2150  -26.3620  -48.9490 C.3       4 GLP5        0.0000 
     24 CA          2.6575  -29.4160  -47.3275 C.3       2 GLC5        0.0000 
     25 CA          4.3700  -28.3730  -46.5540 C.3       4 GLP5        0.0000 
     26 CA          5.9040  -35.0415  -49.7055 C.3       2 GLC5        0.0000 
     27 CA          4.8790  -33.3520  -48.8450 C.3       6 GLL5        0.0000 
     28 CA          6.9290  -36.7310  -50.5660 C.3       4 GLP5        0.0000 
     29 O           7.2580  -33.2395  -48.7085 O.2       1 ALC1        0.0000 
     30 O           6.1440  -33.7810  -49.1970 O.2       5 ALL1        0.0000 
     31 O           8.3720  -32.6980  -48.2200 O.2       3 ALP1        0.0000 
     32 CA         -1.4260  -35.0380  -51.9168 C.3       2 GLC5        0.0000 
     33 CA          0.7710  -35.7680  -51.4610 C.3       6 GLL5        0.0000 
     34 CA         -3.0290  -34.0700  -52.6530 C.3       4 GLP5        0.0000 
     35 CA          1.1493  -34.0440  -52.1640 C.3       2 GLC5        0.0000 
     36 CA          0.9290  -32.2940  -53.2280 C.3       4 GLP5        0.0000 
     37 CA          5.2395  -35.7725  -50.8362 C.3       2 GLC5        0.0000 
     38 CA          2.9402  -32.5817  -51.3113 C.3       2 GLC5        0.0000 
     39 CA          2.8578  -33.9633  -47.0678 C.3       2 GLC5        0.0000 
     40 CA          2.5280  -33.1330  -49.3420 C.3       6 GLL5        0.0000 
     41 CA          2.2272  -32.0132  -50.5358 C.3       2 GLC5        0.0000 
     42 CA          2.3450  -32.4640  -48.1450 C.3       6 GLL5        0.0000 
     43 CA         -0.6138  -31.0677  -48.7935 C.3       2 GLC5        0.0000 
     44 CA          0.9920  -31.9480  -47.7830 C.3       6 GLL5        0.0000 
     45 CA         -2.1960  -30.9320  -49.6450 C.3       4 GLP5        0.0000 
     46 CA          0.2062  -30.4513  -46.8165 C.3       2 GLC5        0.0000 
     47 CA         -0.5560  -29.6990  -45.6910 C.3       4 GLP5        0.0000 
     48 CA          4.2167  -30.4055  -47.0200 C.3       2 GLC5        0.0000 
     49 CA          4.6990  -32.6650  -47.6620 C.3       6 GLL5        0.0000 
     50 CA          6.2225  -34.2287  -47.2677 C.3       2 GLC5        0.0000 
     51 CA          7.6560  -35.4490  -46.2820 C.3       4 GLP5        0.0000 
     52 CA          3.8751  -34.0115  -46.7788 C.3       2 GLC5        0.0000 
     53 CA          4.6991  -31.4148  -49.3569 C.3       2 GLC5        0.0000 
     54 CA          5.3580  -29.9340  -50.3790 C.3       4 GLP5        0.0000 
@<TRIPOS>BOND
@<TRIPOS>SUBSTRUCTURE
     1 ALC1       14 GROUP        1 X    ALC  0     ROOT ALC X 1
     2 GLC5        1 GROUP        1 X    GLC  0     **** GLC X 6
     3 ALP1       16 GROUP        1 Y    ALP  0     ROOT ALP Y 8
     4 GLP5        3 GROUP        1 Y    GLP  0     **** GLP Y 13
     5 ALL1       15 GROUP        1 Z    ALL  0     ROOT ALL Z 15
     6 GLL5        2 GROUP        1 Z    GLL  0     **** GLL Z 20
@<TRIPOS>SET

