#    Name: 2bt0_CT5_2_ligand
#    Modification time : Mon Mar 24 21:38:05 2014

@<TRIPOS>MOLECULE
2bt0_CT5_2_ligand
   46    49     1     0     0
SMALL
NO_CHARGES


@<TRIPOS>ATOM
      1 C15         1.9790  -36.3470  -49.4420 C.ar      1 CT51224     0.0000 
      2 C12         0.7900  -36.8280  -48.8670 C.ar      1 CT51224     0.0000 
      3 O17         0.8210  -37.3380  -47.5750 O.3       1 CT51224     0.0000 
      4 O18        -1.6160  -37.2370  -49.0820 O.3       1 CT51224     0.0000 
      5 C16        -0.4270  -36.7660  -49.6120 C.ar      1 CT51224     0.0000 
      6 C22        -0.4170  -36.2440  -50.9000 C.ar      1 CT51224     0.0000 
      7 C20         0.7710  -35.7680  -51.4610 C.ar      1 CT51224     0.0000 
      8 C8          1.9680  -35.8200  -50.7390 C.ar      1 CT51224     0.0000 
      9 C4          3.1560  -35.3330  -51.3270 C.2       1 CT51224     0.0000 
     10 C1          3.6980  -35.7430  -52.4970 C.2       1 CT51224     0.0000 
     11 C7          3.1720  -36.8710  -53.3910 C.3       1 CT51224     0.0000 
     12 N5          4.7960  -34.9940  -52.7170 N.2       1 CT51224     0.0000 
     13 C2          3.9440  -34.2950  -50.8860 C.2       1 CT51224     0.0000 
     14 N3          4.9360  -34.1430  -51.7790 N.pl3     1 CT51224     0.0000 
     15 C6          3.7810  -33.5760  -49.7030 C.ar      1 CT51224     0.0000 
     16 C10         2.5280  -33.1330  -49.3420 C.ar      1 CT51224     0.0000 
     17 C14         2.3450  -32.4640  -48.1450 C.ar      1 CT51224     0.0000 
     18 C26         0.9920  -31.9480  -47.7830 C.3       1 CT51224     0.0000 
     19 C27         0.9450  -30.4590  -48.1010 C.3       1 CT51224     0.0000 
     20 C13         3.4280  -32.2110  -47.3100 C.ar      1 CT51224     0.0000 
     21 C17        -0.4070  -38.0310  -47.2560 C.3       1 CT51224     0.0000 
     22 O25         3.2400  -31.5490  -46.1290 O.3       1 CT51224     0.0000 
     23 C11         4.6990  -32.6650  -47.6620 C.ar      1 CT51224     0.0000 
     24 C18        -1.5560  -37.2190  -47.6910 C.3       1 CT51224     0.0000 
     25 C9          4.8790  -33.3520  -48.8450 C.ar      1 CT51224     0.0000 
     26 O24         6.1440  -33.7810  -49.1970 O.3       1 CT51224     0.0000 
     27 H           2.8536  -36.3832  -48.9092 H         1 CT51224     0.0000 
     28 H          -1.2890  -36.2063  -51.4472 H         1 CT51224     0.0000 
     29 H           0.7660  -35.3760  -52.4127 H         1 CT51224     0.0000 
     30 H           5.6471  -33.4628  -51.6865 H         1 CT51224     0.0000 
     31 H           1.7208  -33.2993  -49.9647 H         1 CT51224     0.0000 
     32 H           0.8069  -32.0894  -46.7253 H         1 CT51224     0.0000 
     33 H           0.2295  -32.4567  -48.3599 H         1 CT51224     0.0000 
     34 H          -0.4767  -38.2124  -46.1749 H         1 CT51224     0.0000 
     35 H          -0.4392  -39.0075  -47.7580 H         1 CT51224     0.0000 
     36 H           5.4953  -32.4848  -47.0371 H         1 CT51224     0.0000 
     37 H          -2.4708  -37.6313  -47.2350 H         1 CT51224     0.0000 
     38 H          -1.4329  -36.1965  -47.2984 H         1 CT51224     0.0000 
     39 H           3.7383  -36.9937  -54.2060 H         1 CT51224     0.0000 
     40 H           3.1551  -37.7481  -52.9110 H         1 CT51224     0.0000 
     41 H           2.2401  -36.6913  -53.7060 H         1 CT51224     0.0000 
     42 H           1.6368  -29.9482  -47.5907 H         1 CT51224     0.0000 
     43 H           1.1063  -30.2813  -49.0718 H         1 CT51224     0.0000 
     44 H           0.0575  -30.0584  -47.8732 H         1 CT51224     0.0000 
     45 H           3.9971  -31.8417  -45.5450 H         1 CT51224     0.0000 
     46 H           6.7688  -33.1957  -48.6802 H         1 CT51224     0.0000 
@<TRIPOS>BOND
     1    2    1 ar   
     2    8    1 ar   
     3   27    1 1    
     4    3    2 1    
     5    5    2 ar   
     6   21    3 1    
     7    5    4 1    
     8   24    4 1    
     9    6    5 ar   
    10    7    6 ar   
    11   28    6 1    
    12    8    7 ar   
    13   29    7 1    
    14    9    8 1    
    15   10    9 1    
    16   13    9 2    
    17   11   10 1    
    18   12   10 2    
    19   39   11 1    
    20   40   11 1    
    21   41   11 1    
    22   14   12 1    
    23   14   13 1    
    24   15   13 1    
    25   30   14 1    
    26   16   15 ar   
    27   25   15 ar   
    28   17   16 ar   
    29   31   16 1    
    30   18   17 1    
    31   20   17 ar   
    32   19   18 1    
    33   32   18 1    
    34   33   18 1    
    35   42   19 1    
    36   43   19 1    
    37   44   19 1    
    38   22   20 1    
    39   23   20 ar   
    40   24   21 1    
    41   34   21 1    
    42   35   21 1    
    43   45   22 1    
    44   25   23 ar   
    45   36   23 1    
    46   37   24 1    
    47   38   24 1    
    48   26   25 1    
    49   46   26 1    
@<TRIPOS>SUBSTRUCTURE
     1 CT51224     1 GROUP   
@<TRIPOS>SET

