#    Name: 3bkl_KAW_1_INTS_M
#    Modification time : Mon Mar 24 19:49:38 2014

@<TRIPOS>MOLECULE
3bkl_KAW_1_INTS_M
   82     0    15     0     0
SMALL
NO_CHARGES


@<TRIPOS>ATOM
      1 CA         39.5160   48.3685   38.1865 C.3       5 GLC5        0.0000 
      2 CA         41.3680   47.6450   38.5800 C.3      15 GLL5        0.0000 
      3 CA         37.6640   49.0920   37.7930 C.3      10 GLP5        0.0000 
      4 CA         47.1190   45.9555   38.6670 C.3       5 GLC5        0.0000 
      5 CA         46.3430   46.5210   40.2200 C.3      15 GLL5        0.0000 
      6 CA         47.8950   45.3900   37.1140 C.3      10 GLP5        0.0000 
      7 CA         46.3150   44.8465   40.7605 C.3       5 GLC5        0.0000 
      8 CA         46.2870   43.1720   41.3010 C.3      10 GLP5        0.0000 
      9 CA         46.4895   45.3145   42.0945 C.3       5 GLC5        0.0000 
     10 CA         46.8120   47.0180   41.5880 C.3      15 GLL5        0.0000 
     11 CA         46.1670   43.6110   42.6010 C.3      10 GLP5        0.0000 
     12 NZ         49.7265   49.2430   40.9850 N.4       3 LYC4        0.0000 
     13 NZ         48.7380   48.3000   40.9940 N.4      13 LYL4        0.0000 
     14 NZ         50.7150   50.1860   40.9760 N.4       8 LYP4        0.0000 
     15 N          49.7265   49.2430   40.9850 N.am      2 SEC2        0.0000 
     16 N          48.7380   48.3000   40.9940 N.am     12 SEL2        0.0000 
     17 N          50.7150   50.1860   40.9760 N.am      7 SEP2        0.0000 
     18 N          49.3000   47.4625   40.1470 N.am      2 SEC2        0.0000 
     19 N          49.8620   46.6250   39.3000 N.am      7 SEP2        0.0000 
     20 NZ         48.8520   49.7875   41.3780 N.4       3 LYC4        0.0000 
     21 NZ         46.9890   49.3890   41.7800 N.4      13 LYL4        0.0000 
     22 N          47.3165   48.4885   44.9220 N.am      2 SEC2        0.0000 
     23 N          46.9960   47.2770   44.2980 N.am     12 SEL2        0.0000 
     24 N          47.6370   49.7000   45.5460 N.am      7 SEP2        0.0000 
     25 CA         42.7940   46.6020   44.3750 C.3       5 GLC5        0.0000 
     26 CA         44.6390   47.4650   44.6780 C.3      15 GLL5        0.0000 
     27 CA         40.9490   45.7390   44.0720 C.3      10 GLP5        0.0000 
     28 Zn         44.1685   44.3030   45.4775 Zn        4 ZIC7        0.0000 
     29 Zn         45.1310   44.8520   45.6130 Zn       14 ZIL7        0.0000 
     30 Zn         43.2060   43.7540   45.3420 Zn        9 ZIP7        0.0000 
     31 O          46.1635   44.5480   45.1480 O.2       1 ALC1        0.0000 
     32 O          45.1310   44.8520   45.6130 O.2      11 ALL1        0.0000 
     33 O          47.1960   44.2440   44.6830 O.2       6 ALP1        0.0000 
     34 Zn         43.2515   44.7420   46.0405 Zn        4 ZIC7        0.0000 
     35 Zn         43.2970   45.7300   46.7390 Zn       14 ZIL7        0.0000 
     36 O          42.4725   46.7135   46.6255 O.2       1 ALC1        0.0000 
     37 O          43.2970   45.7300   46.7390 O.2      11 ALL1        0.0000 
     38 O          41.6480   47.6970   46.5120 O.2       6 ALP1        0.0000 
     39 CA         44.2260   46.6645   49.2115 C.3       5 GLC5        0.0000 
     40 CA         45.3540   45.5030   47.9470 C.3      15 GLL5        0.0000 
     41 CA         43.0980   47.8260   50.4760 C.3      10 GLP5        0.0000 
     42 CA         48.5660   47.0930   48.2190 C.3       5 GLC5        0.0000 
     43 CA         46.8750   45.6680   47.9210 C.3      15 GLL5        0.0000 
     44 CA         50.2570   48.5180   48.5170 C.3      10 GLP5        0.0000 
     45 CA         49.2240   43.6060   48.6125 C.3       5 GLC5        0.0000 
     46 CA         47.8590   44.1770   49.6860 C.3      15 GLL5        0.0000 
     47 CA         50.5890   43.0350   47.5390 C.3      10 GLP5        0.0000 
     48 O          45.9325   43.1650   47.5980 O.2       1 ALC1        0.0000 
     49 O          45.0470   44.1520   48.4000 O.2      11 ALL1        0.0000 
     50 O          46.8180   42.1780   46.7960 O.2       6 ALP1        0.0000 
     51 N          42.3815   45.4465   50.4080 N.am      2 SEC2        0.0000 
     52 N          43.2210   44.7820   49.5600 N.am     12 SEL2        0.0000 
     53 N          41.5420   46.1110   51.2560 N.am      7 SEP2        0.0000 
     54 CA         41.3145   43.3720   50.8840 C.3       5 GLC5        0.0000 
     55 CA         43.0610   42.1030   50.6870 C.3      15 GLL5        0.0000 
     56 CA         39.5680   44.6410   51.0810 C.3      10 GLP5        0.0000 
     57 CA         42.3885   38.2610   49.6370 C.3       5 GLC5        0.0000 
     58 CA         43.5040   39.7850   50.2690 C.3      15 GLL5        0.0000 
     59 CA         41.2730   36.7370   49.0050 C.3      10 GLP5        0.0000 
     60 CA         42.7655   38.8095   48.5270 C.3       5 GLC5        0.0000 
     61 CA         44.2790   40.1280   49.1770 C.3      15 GLL5        0.0000 
     62 CA         41.2520   37.4910   47.8770 C.3      10 GLP5        0.0000 
     63 CA         41.2773   46.0403   41.2658 C.3       5 GLC5        0.0000 
     64 CA         43.0900   46.3710   39.7150 C.3      15 GLL5        0.0000 
     65 CA         40.1250   45.6240   43.0020 C.3      10 GLP5        0.0000 
     66 CA         48.6167   46.1887   40.3465 C.3       5 GLC5        0.0000 
     67 CA         50.6560   45.6080   39.7890 C.3      10 GLP5        0.0000 
     68 CA         46.1578   48.6820   46.1398 C.3       5 GLC5        0.0000 
     69 CA         47.4620   50.0160   46.8710 C.3      10 GLP5        0.0000 
     70 CA         49.6047   45.1935   49.5288 C.3       5 GLC5        0.0000 
     71 CA         47.7080   46.5100   50.1360 C.3      15 GLL5        0.0000 
     72 CA         51.6060   44.4080   49.3540 C.3      10 GLP5        0.0000 
     73 CA         46.1329   46.9290   50.9611 C.3       5 GLC5        0.0000 
     74 CA         47.4990   45.4480   49.2710 C.3      15 GLL5        0.0000 
     75 CA         44.3310   47.7140   51.3780 C.3      10 GLP5        0.0000 
     76 CA         50.0183   44.6137   50.3068 C.3       5 GLC5        0.0000 
     77 CA         48.4170   43.9670   50.9330 C.3      15 GLL5        0.0000 
     78 CA         42.5343   42.5973   48.2793 C.3       5 GLC5        0.0000 
     79 CA         44.4470   41.4580   48.8390 C.3      15 GLL5        0.0000 
     80 CA         40.9270   43.2430   47.3430 C.3      10 GLP5        0.0000 
     81 CA         41.5805   41.8347   49.3535 C.3       5 GLC5        0.0000 
     82 CA         40.1820   42.2320   47.8520 C.3      10 GLP5        0.0000 
@<TRIPOS>BOND
@<TRIPOS>SUBSTRUCTURE
     1 ALC1       31 GROUP        1 X    ALC  0     ROOT ALC X 1
     2 SEC2       15 GROUP        1 X    SEC  0     **** SEC X 2
     3 LYC4       12 GROUP        1 X    LYC  0     **** LYC X 4
     4 ZIC7       28 GROUP        1 X    ZIC  0     **** ZIC X 5
     5 GLC5        1 GROUP        1 X    GLC  0     **** GLC X 6
     6 ALP1       33 GROUP        1 Y    ALP  0     ROOT ALP Y 8
     7 SEP2       17 GROUP        1 Y    SEP  0     **** SEP Y 9
     8 LYP4       14 GROUP        1 Y    LYP  0     **** LYP Y 11
     9 ZIP7       30 GROUP        1 Y    ZIP  0     **** ZIP Y 12
    10 GLP5        3 GROUP        1 Y    GLP  0     **** GLP Y 13
    11 ALL1       32 GROUP        1 Z    ALL  0     ROOT ALL Z 15
    12 SEL2       16 GROUP        1 Z    SEL  0     **** SEL Z 16
    13 LYL4       13 GROUP        1 Z    LYL  0     **** LYL Z 18
    14 ZIL7       29 GROUP        1 Z    ZIL  0     **** ZIL Z 19
    15 GLL5        2 GROUP        1 Z    GLL  0     **** GLL Z 20
@<TRIPOS>SET

