#    Name: 3bkl_KAW_1_ligand
#    Modification time : Mon Mar 24 19:49:38 2014

@<TRIPOS>MOLECULE
3bkl_KAW_1_ligand
   69    72     1     0     0
SMALL
NO_CHARGES


@<TRIPOS>ATOM
      1 CD2        44.0270   47.3280   39.3110 C.ar      1 KAW800      0.0000 
      2 CE3        43.0900   46.3710   39.7150 C.ar      1 KAW800      0.0000 
      3 CZ3        41.7690   46.5420   39.3440 C.ar      1 KAW800      0.0000 
      4 CH2        41.3680   47.6450   38.5800 C.ar      1 KAW800      0.0000 
      5 CZ2        42.2600   48.5980   38.1680 C.ar      1 KAW800      0.0000 
      6 CE2        43.5930   48.4270   38.5420 C.ar      1 KAW800      0.0000 
      7 NE1        44.6900   49.2040   38.2820 N.pl3     1 KAW800      0.0000 
      8 CD1        45.7960   48.6270   38.8600 C.2       1 KAW800      0.0000 
      9 CG         45.4400   47.4740   39.4980 C.2       1 KAW800      0.0000 
     10 CB         46.3430   46.5210   40.2200 C.3       1 KAW800      0.0000 
     11 CA         46.8120   47.0180   41.5880 C.3       1 KAW800      0.0000 
     12 C          47.5730   48.3370   41.4420 C.2       1 KAW800      0.0000 
     13 OXT        48.7380   48.3000   40.9940 O.co2     1 KAW800      0.0000 
     14 O          46.9890   49.3890   41.7800 O.co2     1 KAW800      0.0000 
     15 N          45.6760   47.1780   42.4880 N.am      1 KAW800      0.0000 
     16 CBC        45.8720   47.2920   43.7970 C.2       1 KAW800      0.0000 
     17 OAA        46.9960   47.2770   44.2980 O.2       1 KAW800      0.0000 
     18 CAV        44.6390   47.4650   44.6780 C.3       1 KAW800      0.0000 
     19 CAW        45.0680   47.2310   46.1390 C.3       1 KAW800      0.0000 
     20 CBM        44.7160   45.8110   46.5900 C.3       1 KAW800      0.0000 
     21 OAE        45.1310   44.8520   45.6130 O.3       1 KAW800      0.0000 
     22 OAF        43.2970   45.7300   46.7390 O.3       1 KAW800      0.0000 
     23 CBL        45.3540   45.5030   47.9470 C.3       1 KAW800      0.0000 
     24 CAX        46.8750   45.6680   47.9210 C.3       1 KAW800      0.0000 
     25 CBF        47.4990   45.4480   49.2710 C.ar      1 KAW800      0.0000 
     26 CAO        47.7080   46.5100   50.1360 C.ar      1 KAW800      0.0000 
     27 CAI        48.2660   46.3090   51.3850 C.ar      1 KAW800      0.0000 
     28 CAG        48.6220   45.0350   51.7870 C.ar      1 KAW800      0.0000 
     29 CAJ        48.4170   43.9670   50.9330 C.ar      1 KAW800      0.0000 
     30 CAP        47.8590   44.1770   49.6860 C.ar      1 KAW800      0.0000 
     31 NBA        45.0470   44.1520   48.4000 N.am      1 KAW800      0.0000 
     32 CBE        44.0130   43.9120   49.1980 C.2       1 KAW800      0.0000 
     33 OAC        43.2210   44.7820   49.5600 O.2       1 KAW800      0.0000 
     34 CBG        43.8360   42.4450   49.5920 C.ar      1 KAW800      0.0000 
     35 CAQ        43.0610   42.1030   50.6870 C.ar      1 KAW800      0.0000 
     36 CAK        42.8970   40.7720   51.0230 C.ar      1 KAW800      0.0000 
     37 CAH        43.5040   39.7850   50.2690 C.ar      1 KAW800      0.0000 
     38 CAL        44.2790   40.1280   49.1770 C.ar      1 KAW800      0.0000 
     39 CAR        44.4470   41.4580   48.8390 C.ar      1 KAW800      0.0000 
     40 H          43.3818   45.5689   40.2699 H         1 KAW800      0.0000 
     41 H          41.0576   45.8462   39.6325 H         1 KAW800      0.0000 
     42 H          40.3607   47.7303   38.3253 H         1 KAW800      0.0000 
     43 H          41.9771   49.3969   37.6155 H         1 KAW800      0.0000 
     44 H          44.6902   50.0217   37.7770 H         1 KAW800      0.0000 
     45 H          46.6923   48.9892   38.8176 H         1 KAW800      0.0000 
     46 H          47.2352   46.3129   39.5997 H         1 KAW800      0.0000 
     47 H          45.8260   45.5528   40.3590 H         1 KAW800      0.0000 
     48 H          47.5036   46.2789   41.9894 H         1 KAW800      0.0000 
     49 H          44.7429   47.1957   42.0517 H         1 KAW800      0.0000 
     50 H          43.8938   46.7389   44.4081 H         1 KAW800      0.0000 
     51 H          44.2572   48.4649   44.5778 H         1 KAW800      0.0000 
     52 H          44.5585   47.9490   46.7769 H         1 KAW800      0.0000 
     53 H          46.1418   47.3799   46.2208 H         1 KAW800      0.0000 
     54 H          44.9649   46.2241   48.6753 H         1 KAW800      0.0000 
     55 H          47.1124   46.6788   47.5636 H         1 KAW800      0.0000 
     56 H          47.2933   44.9542   47.1990 H         1 KAW800      0.0000 
     57 H          47.4420   47.4677   49.8416 H         1 KAW800      0.0000 
     58 H          48.4167   47.1098   52.0170 H         1 KAW800      0.0000 
     59 H          49.0367   44.8825   52.7154 H         1 KAW800      0.0000 
     60 H          48.6803   43.0145   51.2265 H         1 KAW800      0.0000 
     61 H          47.7072   43.3709   49.0507 H         1 KAW800      0.0000 
     62 H          45.6810   43.4033   48.0620 H         1 KAW800      0.0000 
     63 H          42.6090   42.8375   51.2483 H         1 KAW800      0.0000 
     64 H          42.3198   40.5145   51.8391 H         1 KAW800      0.0000 
     65 H          43.3786   38.7932   50.5212 H         1 KAW800      0.0000 
     66 H          44.7318   39.3921   48.6145 H         1 KAW800      0.0000 
     67 H          45.0269   41.7147   48.0267 H         1 KAW800      0.0000 
     68 H          46.1274   44.8177   45.6911 H         1 KAW800      0.0000 
     69 H          42.9700   46.6669   46.6153 H         1 KAW800      0.0000 
@<TRIPOS>BOND
     1    2    1 ar   
     2    6    1 ar   
     3    9    1 1    
     4    3    2 ar   
     5   40    2 1    
     6    4    3 ar   
     7   41    3 1    
     8    5    4 ar   
     9   42    4 1    
    10    6    5 ar   
    11   43    5 1    
    12    7    6 1    
    13    8    7 1    
    14   44    7 1    
    15    9    8 2    
    16   45    8 1    
    17   10    9 1    
    18   11   10 1    
    19   46   10 1    
    20   47   10 1    
    21   12   11 1    
    22   15   11 1    
    23   48   11 1    
    24   13   12 ar   
    25   14   12 ar   
    26   16   15 am   
    27   49   15 1    
    28   17   16 2    
    29   18   16 1    
    30   19   18 1    
    31   50   18 1    
    32   51   18 1    
    33   20   19 1    
    34   52   19 1    
    35   53   19 1    
    36   21   20 1    
    37   22   20 1    
    38   23   20 1    
    39   68   21 1    
    40   69   22 1    
    41   24   23 1    
    42   31   23 1    
    43   54   23 1    
    44   25   24 1    
    45   55   24 1    
    46   56   24 1    
    47   26   25 ar   
    48   30   25 ar   
    49   27   26 ar   
    50   57   26 1    
    51   28   27 ar   
    52   58   27 1    
    53   29   28 ar   
    54   59   28 1    
    55   30   29 ar   
    56   60   29 1    
    57   61   30 1    
    58   32   31 am   
    59   62   31 1    
    60   33   32 2    
    61   34   32 1    
    62   35   34 ar   
    63   39   34 ar   
    64   36   35 ar   
    65   63   35 1    
    66   37   36 ar   
    67   64   36 1    
    68   38   37 ar   
    69   65   37 1    
    70   39   38 ar   
    71   66   38 1    
    72   67   39 1    
@<TRIPOS>SUBSTRUCTURE
     1 KAW800      1 GROUP   
@<TRIPOS>SET

