#    Name: 1sc6_NAD_2_INTS_M
#    Modification time : Tue Mar 25 02:16:17 2014

@<TRIPOS>MOLECULE
1sc6_NAD_2_INTS_M
   93     0     9     0     0
SMALL
NO_CHARGES


@<TRIPOS>ATOM
      1 N          39.5315   83.4230   22.6530 N.am      2 SEC2        0.0000 
      2 N          39.8970   84.2930   21.5870 N.am      8 SEL2        0.0000 
      3 N          39.1660   82.5530   23.7190 N.am      5 SEP2        0.0000 
      4 N          40.3505   84.8080   22.7255 N.am      2 SEC2        0.0000 
      5 N          40.8040   85.3230   23.8640 N.am      5 SEP2        0.0000 
      6 CA         36.7750   82.6305   17.0815 C.3       3 GLC5        0.0000 
      7 CA         38.5470   82.7510   18.3490 C.3       9 GLL5        0.0000 
      8 CA         35.0030   82.5100   15.8140 C.3       6 GLP5        0.0000 
      9 CA         37.9485   83.3745   16.5300 C.3       3 GLC5        0.0000 
     10 CA         37.3500   83.9980   14.7110 C.3       6 GLP5        0.0000 
     11 CA         37.8385   79.7925   17.9365 C.3       3 GLC5        0.0000 
     12 CA         39.0310   81.3550   18.0220 C.3       9 GLL5        0.0000 
     13 CA         36.6460   78.2300   17.8510 C.3       6 GLP5        0.0000 
     14 CA         41.9940   79.7225   18.5575 C.3       3 GLC5        0.0000 
     15 CA         40.5740   81.2040   17.9400 C.3       9 GLL5        0.0000 
     16 CA         43.4140   78.2410   19.1750 C.3       6 GLP5        0.0000 
     17 N          42.5165   79.8525   19.0545 N.am      2 SEC2        0.0000 
     18 N          41.0280   80.1140   18.7820 N.am      8 SEL2        0.0000 
     19 N          44.0050   79.5910   19.3270 N.am      5 SEP2        0.0000 
     20 O          40.6395   78.8480   18.3225 O.2       1 ALC1        0.0000 
     21 O          41.0280   80.1140   18.7820 O.2       7 ALL1        0.0000 
     22 O          40.2510   77.5820   17.8630 O.2       4 ALP1        0.0000 
     23 O          41.8205   78.9135   16.1940 O.2       1 ALC1        0.0000 
     24 O          41.9360   80.2150   16.1740 O.2       7 ALL1        0.0000 
     25 O          41.7050   77.6120   16.2140 O.2       4 ALP1        0.0000 
     26 CA         38.0745   79.2375   16.9465 C.3       3 GLC5        0.0000 
     27 CA         39.5030   80.2450   16.0420 C.3       9 GLL5        0.0000 
     28 CA         37.3425   80.1925   15.5305 C.3       3 GLC5        0.0000 
     29 CA         35.1820   80.1400   15.0190 C.3       6 GLP5        0.0000 
     30 CA         35.7285   78.9155   11.2060 C.3       3 GLC5        0.0000 
     31 CA         37.8840   79.1420   11.5990 C.3       9 GLL5        0.0000 
     32 CA         33.5730   78.6890   10.8130 C.3       6 GLP5        0.0000 
     33 O          38.1285   80.8720    9.5185 O.2       1 ALC1        0.0000 
     34 O          37.7330   79.4920   10.3270 O.2       7 ALL1        0.0000 
     35 O          38.5240   82.2520    8.7100 O.2       4 ALP1        0.0000 
     36 CA         35.6600   76.9955   13.9290 C.3       3 GLC5        0.0000 
     37 CA         37.5350   77.5440   13.3060 C.3       9 GLL5        0.0000 
     38 CA         33.7850   76.4470   14.5520 C.3       6 GLP5        0.0000 
     39 CA         38.7565   76.3495   14.4175 C.3       3 GLC5        0.0000 
     40 CA         39.9780   75.1550   15.5290 C.3       6 GLP5        0.0000 
     41 CA         39.1950   77.4240   12.1855 C.3       3 GLC5        0.0000 
     42 CA         40.8550   77.3040   11.0650 C.3       6 GLP5        0.0000 
     43 CA         36.3585   78.8420   14.1625 C.3       3 GLC5        0.0000 
     44 CA         35.7550   77.1690   12.0210 C.3       3 GLC5        0.0000 
     45 CA         33.9750   76.7940   10.7360 C.3       6 GLP5        0.0000 
     46 CA         40.5120   78.9835   13.2355 C.3       3 GLC5        0.0000 
     47 CA         38.5840   79.4160   13.8750 C.3       9 GLL5        0.0000 
     48 CA         42.4400   78.5510   12.5960 C.3       6 GLP5        0.0000 
     49 N          36.5340   83.1545   23.2070 N.am      2 SEC2        0.0000 
     50 N          36.6560   83.7290   21.8280 N.am      8 SEL2        0.0000 
     51 N          36.4120   82.5800   24.5860 N.am      5 SEP2        0.0000 
     52 CA         34.1200   84.8800   21.1900 C.3       3 GLC5        0.0000 
     53 CA         35.0450   84.8650   19.3090 C.3       9 GLL5        0.0000 
     54 CA         33.1950   84.8950   23.0710 C.3       6 GLP5        0.0000 
     55 CA         35.0975   86.3880   16.0945 C.3       3 GLC5        0.0000 
     56 CA         34.2810   86.8600   17.8240 C.3       9 GLL5        0.0000 
     57 CA         35.9140   85.9160   14.3650 C.3       6 GLP5        0.0000 
     58 O          33.6470   85.7575   16.0670 O.2       1 ALC1        0.0000 
     59 O          33.4530   86.9330   16.6350 O.2       7 ALL1        0.0000 
     60 O          33.8410   84.5820   15.4990 O.2       4 ALP1        0.0000 
     61 CA         32.9835   86.2150   21.2810 C.3       3 GLC5        0.0000 
     62 CA         32.7720   87.5350   19.4910 C.3       9 GLL5        0.0000 
     63 N          34.0370   90.5085   25.4150 N.am      2 SEC2        0.0000 
     64 N          33.9220   89.1960   25.2900 N.am      8 SEL2        0.0000 
     65 N          34.1520   91.8210   25.5400 N.am      5 SEP2        0.0000 
     66 O          35.8485   87.1990   25.4520 O.2       1 ALC1        0.0000 
     67 O          35.2260   87.6530   24.2020 O.2       7 ALL1        0.0000 
     68 O          36.4710   86.7450   26.7020 O.2       4 ALP1        0.0000 
     69 CA         31.9730   90.3450   25.3150 C.3       3 GLC5        0.0000 
     70 CA         32.0800   89.7650   23.2390 C.3       9 GLL5        0.0000 
     71 CA         31.8660   90.9250   27.3910 C.3       6 GLP5        0.0000 
     72 CA         39.6878   81.2028   20.0984 C.3       3 GLC5        0.0000 
     73 CA         39.6940   80.7770   22.1340 C.3       6 GLP5        0.0000 
     74 CA         39.5293   78.4235   11.5795 C.3       3 GLC5        0.0000 
     75 CA         38.5230   79.9440   12.5890 C.3       9 GLL5        0.0000 
     76 CA         36.9317   80.9035   11.4020 C.3       3 GLC5        0.0000 
     77 CA         35.6600   82.2640   10.7100 C.3       6 GLP5        0.0000 
     78 CA         36.7879   79.8097   14.0017 C.3       3 GLC5        0.0000 
     79 CA         33.6758   83.2745   18.8498 C.3       3 GLC5        0.0000 
     80 CA         32.8830   81.2980   18.7080 C.3       6 GLP5        0.0000 
     81 CA         34.7358   83.8805   17.4028 C.3       3 GLC5        0.0000 
     82 CA         32.4433   85.3058   17.4620 C.3       3 GLC5        0.0000 
     83 CA         33.8920   85.6370   18.6740 C.3       9 GLL5        0.0000 
     84 CA         30.8000   84.3630   16.6750 C.3       6 GLP5        0.0000 
     85 CA         33.2565   86.6697   22.7913 C.3       3 GLC5        0.0000 
     86 CA         33.4220   88.0790   21.8790 C.3       9 GLL5        0.0000 
     87 CA         31.2832   91.4040   23.5430 C.3       3 GLC5        0.0000 
     88 CA         30.9190   92.9730   24.4670 C.3       6 GLP5        0.0000 
     89 CA         30.9300   88.1736   23.7576 C.3       3 GLC5        0.0000 
     90 CA         31.2150   89.9050   21.9990 C.3       9 GLL5        0.0000 
     91 CA         29.9290   86.7510   24.9200 C.3       6 GLP5        0.0000 
     92 CA         29.7760   88.3545   21.0830 C.3       3 GLC5        0.0000 
     93 CA         28.2050   87.1570   20.7190 C.3       6 GLP5        0.0000 
@<TRIPOS>BOND
@<TRIPOS>SUBSTRUCTURE
     1 ALC1       20 GROUP        1 X    ALC  0     ROOT ALC X 1
     2 SEC2        1 GROUP        1 X    SEC  0     **** SEC X 2
     3 GLC5        6 GROUP        1 X    GLC  0     **** GLC X 6
     4 ALP1       22 GROUP        1 Y    ALP  0     ROOT ALP Y 8
     5 SEP2        3 GROUP        1 Y    SEP  0     **** SEP Y 9
     6 GLP5        8 GROUP        1 Y    GLP  0     **** GLP Y 13
     7 ALL1       21 GROUP        1 Z    ALL  0     ROOT ALL Z 15
     8 SEL2        2 GROUP        1 Z    SEL  0     **** SEL Z 16
     9 GLL5        7 GROUP        1 Z    GLL  0     **** GLL Z 20
@<TRIPOS>SET

