#    Name: 1sc6_NAD_2_ligand
#    Modification time : Tue Mar 25 02:16:17 2014

@<TRIPOS>MOLECULE
1sc6_NAD_2_ligand
   70    74     1     0     0
SMALL
NO_CHARGES


@<TRIPOS>ATOM
      1 PA         39.3340   84.4580   20.2240 P.3       1 NAD2102     0.0000 
      2 O1A        40.2200   85.1910   19.3160 O.co2     1 NAD2102     0.0000 
      3 O2A        39.8970   84.2930   21.5870 O.co2     1 NAD2102     0.0000 
      4 O5B        39.0930   82.9830   19.6740 O.3       1 NAD2102     0.0000 
      5 C5B        38.5470   82.7510   18.3490 C.3       1 NAD2102     0.0000 
      6 C4B        39.0310   81.3550   18.0220 C.3       1 NAD2102     0.0000 
      7 O4B        38.5530   80.9840   16.6930 O.3       1 NAD2102     0.0000 
      8 C3B        40.5740   81.2040   17.9400 C.3       1 NAD2102     0.0000 
      9 O3B        41.0280   80.1140   18.7820 O.3       1 NAD2102     0.0000 
     10 C2B        40.7710   80.9920   16.4440 C.3       1 NAD2102     0.0000 
     11 O2B        41.9360   80.2150   16.1740 O.3       1 NAD2102     0.0000 
     12 C1B        39.5030   80.2450   16.0420 C.3       1 NAD2102     0.0000 
     13 N9A        39.2170   80.3490   14.6250 N.pl3     1 NAD2102     0.0000 
     14 C8A        39.5200   81.3930   13.7800 C.2       1 NAD2102     0.0000 
     15 N7A        39.1130   81.1890   12.5190 N.2       1 NAD2102     0.0000 
     16 C5A        38.5230   79.9440   12.5890 C.ar      1 NAD2102     0.0000 
     17 C6A        37.8840   79.1420   11.5990 C.ar      1 NAD2102     0.0000 
     18 N6A        37.7330   79.4920   10.3270 N.pl3     1 NAD2102     0.0000 
     19 N1A        37.3890   77.9240   11.9900 N.ar      1 NAD2102     0.0000 
     20 C2A        37.5350   77.5440   13.3060 C.ar      1 NAD2102     0.0000 
     21 N3A        38.1110   78.2310   14.2860 N.ar      1 NAD2102     0.0000 
     22 C4A        38.5840   79.4160   13.8750 C.ar      1 NAD2102     0.0000 
     23 O3         37.9200   85.2190   20.2080 O.3       1 NAD2102     0.0000 
     24 PN         36.7560   85.1470   21.3280 P.3       1 NAD2102     0.0000 
     25 O1N        36.9200   86.1250   22.4310 O.co2     1 NAD2102     0.0000 
     26 O2N        36.6560   83.7290   21.8280 O.co2     1 NAD2102     0.0000 
     27 O5D        35.5370   85.6490   20.4350 O.3       1 NAD2102     0.0000 
     28 C5D        35.0450   84.8650   19.3090 C.3       1 NAD2102     0.0000 
     29 C4D        33.8920   85.6370   18.6740 C.3       1 NAD2102     0.0000 
     30 O4D        32.9790   86.1340   19.6940 O.3       1 NAD2102     0.0000 
     31 C3D        34.2810   86.8600   17.8240 C.3       1 NAD2102     0.0000 
     32 O3D        33.4530   86.9330   16.6350 O.3       1 NAD2102     0.0000 
     33 C2D        33.9770   88.0250   18.7420 C.3       1 NAD2102     0.0000 
     34 O2D        33.7220   89.2450   18.0210 O.3       1 NAD2102     0.0000 
     35 C1D        32.7720   87.5350   19.4910 C.3       1 NAD2102     0.0000 
     36 N1N        32.5670   88.2650   20.7600 N.pl3     1 NAD2102     0.0000 
     37 C2N        33.4220   88.0790   21.8790 C.ar      1 NAD2102     0.0000 
     38 C3N        33.2140   88.8100   23.1440 C.ar      1 NAD2102     0.0000 
     39 C7N        34.1730   88.5350   24.2650 C.2       1 NAD2102     0.0000 
     40 O7N        33.9220   89.1960   25.2900 O.2       1 NAD2102     0.0000 
     41 N7N        35.2260   87.6530   24.2020 N.am      1 NAD2102     0.0000 
     42 C4N        32.0800   89.7650   23.2390 C.ar      1 NAD2102     0.0000 
     43 C5N        31.2150   89.9050   21.9990 C.ar      1 NAD2102     0.0000 
     44 C6N        31.4790   89.1990   20.8950 C.ar      1 NAD2102     0.0000 
     45 H          38.9474   83.4353   17.6337 H         1 NAD2102     0.0000 
     46 H          37.4792   82.7567   18.3575 H         1 NAD2102     0.0000 
     47 H          38.6656   80.6511   18.7412 H         1 NAD2102     0.0000 
     48 H          40.9841   82.1517   18.2030 H         1 NAD2102     0.0000 
     49 H          40.7608   81.9388   15.9698 H         1 NAD2102     0.0000 
     50 H          39.5607   79.2635   16.3846 H         1 NAD2102     0.0000 
     51 H          39.9939   82.2087   14.0923 H         1 NAD2102     0.0000 
     52 H          37.2552   78.8351    9.7437 H         1 NAD2102     0.0000 
     53 H          38.1107   80.3808   10.0673 H         1 NAD2102     0.0000 
     54 H          37.1239   76.5622   13.5535 H         1 NAD2102     0.0000 
     55 H          34.6739   83.8996   19.6347 H         1 NAD2102     0.0000 
     56 H          35.8173   84.7242   18.5610 H         1 NAD2102     0.0000 
     57 H          33.3310   84.9561   18.0187 H         1 NAD2102     0.0000 
     58 H          35.3061   86.8245   17.6290 H         1 NAD2102     0.0000 
     59 H          34.7884   88.1102   19.4380 H         1 NAD2102     0.0000 
     60 H          31.9061   87.6825   18.8402 H         1 NAD2102     0.0000 
     61 H          34.2078   87.4275   21.8302 H         1 NAD2102     0.0000 
     62 H          35.7834   87.5734   25.0284 H         1 NAD2102     0.0000 
     63 H          35.3426   87.1681   23.3352 H         1 NAD2102     0.0000 
     64 H          31.8913   90.2735   24.0347 H         1 NAD2102     0.0000 
     65 H          30.4385   90.5688   22.0885 H         1 NAD2102     0.0000 
     66 H          30.8661   89.3053   20.0329 H         1 NAD2102     0.0000 
     67 H          40.6828   79.2855   18.3411 H         1 NAD2102     0.0000 
     68 H          41.6369   79.2641   16.2534 H         1 NAD2102     0.0000 
     69 H          33.9092   86.3465   15.9657 H         1 NAD2102     0.0000 
     70 H          33.4385   88.9515   17.1081 H         1 NAD2102     0.0000 
@<TRIPOS>BOND
     1    2    1 ar   
     2    3    1 ar   
     3    4    1 1    
     4   23    1 1    
     5    5    4 1    
     6    6    5 1    
     7   45    5 1    
     8   46    5 1    
     9    7    6 1    
    10    8    6 1    
    11   47    6 1    
    12   12    7 1    
    13    9    8 1    
    14   10    8 1    
    15   48    8 1    
    16   67    9 1    
    17   11   10 1    
    18   12   10 1    
    19   49   10 1    
    20   68   11 1    
    21   13   12 1    
    22   50   12 1    
    23   14   13 1    
    24   22   13 1    
    25   15   14 2    
    26   51   14 1    
    27   16   15 1    
    28   17   16 ar   
    29   22   16 ar   
    30   18   17 1    
    31   19   17 ar   
    32   52   18 1    
    33   53   18 1    
    34   20   19 ar   
    35   21   20 ar   
    36   54   20 1    
    37   22   21 ar   
    38   24   23 1    
    39   25   24 ar   
    40   26   24 ar   
    41   27   24 1    
    42   28   27 1    
    43   29   28 1    
    44   55   28 1    
    45   56   28 1    
    46   30   29 1    
    47   31   29 1    
    48   57   29 1    
    49   35   30 1    
    50   32   31 1    
    51   33   31 1    
    52   58   31 1    
    53   69   32 1    
    54   34   33 1    
    55   35   33 1    
    56   59   33 1    
    57   70   34 1    
    58   36   35 1    
    59   60   35 1    
    60   37   36 ar   
    61   44   36 ar   
    62   38   37 ar   
    63   61   37 1    
    64   39   38 1    
    65   42   38 ar   
    66   40   39 2    
    67   41   39 am   
    68   62   41 1    
    69   63   41 1    
    70   43   42 ar   
    71   64   42 1    
    72   44   43 ar   
    73   65   43 1    
    74   66   44 1    
@<TRIPOS>SUBSTRUCTURE
     1 NAD2102     1 GROUP   
@<TRIPOS>SET

