#    Name: 1w8c_N69_1_INTS_M
#    Modification time : Tue Mar 25 08:48:35 2014

@<TRIPOS>MOLECULE
1w8c_N69_1_INTS_M
   57     0     9     0     0
SMALL
NO_CHARGES


@<TRIPOS>ATOM
      1 O          40.1290  -10.7605   16.1460 O.2       1 ALC1        0.0000 
      2 O          40.3010  -10.0820   15.0340 O.2       7 ALL1        0.0000 
      3 O          39.9570  -11.4390   17.2580 O.2       4 ALP1        0.0000 
      4 CA         40.7960  -11.4675   13.8020 C.3       3 GLC5        0.0000 
      5 CA         39.7320  -10.1370   13.8200 C.3       9 GLL5        0.0000 
      6 CA         41.8600  -12.7980   13.7840 C.3       6 GLP5        0.0000 
      7 CA         41.7965   -9.6405   13.2005 C.3       3 GLC5        0.0000 
      8 CA         43.8610   -9.1440   12.5810 C.3       6 GLP5        0.0000 
      9 CA         38.5550   -8.9780   13.9105 C.3       3 GLC5        0.0000 
     10 CA         37.3780   -7.8190   14.0010 C.3       6 GLP5        0.0000 
     11 N          41.6840   -8.6605   12.5240 N.am      2 SEC2        0.0000 
     12 N          40.2990   -9.3780   12.8500 N.am      8 SEL2        0.0000 
     13 N          43.0690   -7.9430   12.1980 N.am      5 SEP2        0.0000 
     14 N          37.4735  -11.5835   14.6695 N.am      2 SEC2        0.0000 
     15 N          38.6270  -10.9030   13.5840 N.am      8 SEL2        0.0000 
     16 N          36.3200  -12.2640   15.7550 N.am      5 SEP2        0.0000 
     17 CA         39.9845  -11.8455   13.0635 C.3       3 GLC5        0.0000 
     18 CA         38.1090  -10.8930   12.3430 C.3       9 GLL5        0.0000 
     19 O          36.0745  -11.9765   12.6515 O.2       1 ALC1        0.0000 
     20 O          37.0580  -11.5670   11.9160 O.2       7 ALL1        0.0000 
     21 O          35.0910  -12.3860   13.3870 O.2       4 ALP1        0.0000 
     22 CA         37.4070  -11.9640    8.5655 C.3       3 GLC5        0.0000 
     23 CA         35.8550  -11.7180    9.6640 C.3       9 GLL5        0.0000 
     24 CA         38.9590  -12.2100    7.4670 C.3       6 GLP5        0.0000 
     25 CA         37.5110  -13.5710    9.8565 C.3       3 GLC5        0.0000 
     26 CA         35.3760  -13.1310    9.9390 C.3       9 GLL5        0.0000 
     27 CA         39.6460  -14.0110    9.7740 C.3       6 GLP5        0.0000 
     28 CA         35.6455  -14.4070   11.2000 C.3       3 GLC5        0.0000 
     29 CA         35.9150  -15.6830   12.4610 C.3       6 GLP5        0.0000 
     30 CA         33.9245  -13.1880   11.5400 C.3       3 GLC5        0.0000 
     31 CA         32.4730  -13.2450   13.1410 C.3       6 GLP5        0.0000 
     32 CA         33.0070  -10.4950   10.5220 C.3       3 GLC5        0.0000 
     33 CA         34.6700  -10.7820    9.8250 C.3       9 GLL5        0.0000 
     34 CA         31.3440  -10.2080   11.2190 C.3       6 GLP5        0.0000 
     35 CA         34.2270   -8.5960    9.6615 C.3       3 GLC5        0.0000 
     36 CA         33.7840   -6.4100    9.4980 C.3       6 GLP5        0.0000 
     37 CA         41.2920  -10.5390   10.5205 C.3       3 GLC5        0.0000 
     38 CA         39.8010   -9.3530   11.5840 C.3       9 GLL5        0.0000 
     39 CA         42.7830  -11.7250    9.4570 C.3       6 GLP5        0.0000 
     40 CA         41.8310   -9.2485   12.0825 C.3       3 GLC5        0.0000 
     41 N          41.7660   -8.2430   11.4480 N.am      2 SEC2        0.0000 
     42 N          40.4630   -8.5430   10.6980 N.am      8 SEL2        0.0000 
     43 CA         39.7295  -10.4830    8.3775 C.3       3 GLC5        0.0000 
     44 CA         40.5000   -8.7560    9.2880 C.3       9 GLL5        0.0000 
     45 CA         41.6415  -10.2405    9.3725 C.3       3 GLC5        0.0000 
     46 CA         40.2280   -3.6515    9.9920 C.3       3 GLC5        0.0000 
     47 CA         40.8550   -4.9240    8.7590 C.3       9 GLL5        0.0000 
     48 CA         39.6010   -2.3790   11.2250 C.3       6 GLP5        0.0000 
     49 CA         39.0230  -12.2523   10.7932 C.3       3 GLC5        0.0000 
     50 CA         38.6910  -10.0940   11.2820 C.3       9 GLL5        0.0000 
     51 CA         38.2392   -8.8711   12.8496 C.3       3 GLC5        0.0000 
     52 CA         42.3880   -8.6923    8.0750 C.3       3 GLC5        0.0000 
     53 CA         40.4140   -7.4000    8.5980 C.3       9 GLL5        0.0000 
     54 CA         44.0590   -9.9700    8.2520 C.3       6 GLP5        0.0000 
     55 CA         43.0424   -6.0311    6.2596 C.3       3 GLC5        0.0000 
     56 CA         41.0200   -7.4290    7.1980 C.3       9 GLL5        0.0000 
     57 CA         44.9380   -6.2280    5.4340 C.3       6 GLP5        0.0000 
@<TRIPOS>BOND
@<TRIPOS>SUBSTRUCTURE
     1 ALC1        1 GROUP        1 X    ALC  0     ROOT ALC X 1
     2 SEC2       11 GROUP        1 X    SEC  0     **** SEC X 2
     3 GLC5        4 GROUP        1 X    GLC  0     **** GLC X 6
     4 ALP1        3 GROUP        1 Y    ALP  0     ROOT ALP Y 8
     5 SEP2       13 GROUP        1 Y    SEP  0     **** SEP Y 9
     6 GLP5        6 GROUP        1 Y    GLP  0     **** GLP Y 13
     7 ALL1        2 GROUP        1 Z    ALL  0     ROOT ALL Z 15
     8 SEL2       12 GROUP        1 Z    SEL  0     **** SEL Z 16
     9 GLL5        5 GROUP        1 Z    GLL  0     **** GLL Z 20
@<TRIPOS>SET

