#    Name: 1w8c_N69_1_ligand
#    Modification time : Tue Mar 25 08:48:35 2014

@<TRIPOS>MOLECULE
1w8c_N69_1_ligand
   44    46     1     0     0
SMALL
NO_CHARGES


@<TRIPOS>ATOM
      1 N2         40.3010  -10.0820   15.0340 N.pl3     1 N691301     0.0000 
      2 C2         39.7320  -10.1370   13.8200 C.ar      1 N691301     0.0000 
      3 N1         40.2990   -9.3780   12.8500 N.ar      1 N691301     0.0000 
      4 N3         38.6270  -10.9030   13.5840 N.ar      1 N691301     0.0000 
      5 C4         38.1090  -10.8930   12.3430 C.ar      1 N691301     0.0000 
      6 N9         37.0580  -11.5670   11.9160 N.pl3     1 N691301     0.0000 
      7 C8         36.9370  -11.2280   10.5810 C.2       1 N691301     0.0000 
      8 C17        35.8550  -11.7180    9.6640 C.3       1 N691301     0.0000 
      9 C19        35.3760  -13.1310    9.9390 C.3       1 N691301     0.0000 
     10 C18        34.6700  -10.7820    9.8250 C.3       1 N691301     0.0000 
     11 C5         38.6910  -10.0940   11.2820 C.ar      1 N691301     0.0000 
     12 N7         37.9040  -10.3250   10.1570 N.2       1 N691301     0.0000 
     13 C6         39.8010   -9.3530   11.5840 C.ar      1 N691301     0.0000 
     14 O6         40.4630   -8.5430   10.6980 O.3       1 N691301     0.0000 
     15 C10        40.5000   -8.7560    9.2880 C.3       1 N691301     0.0000 
     16 C11        40.4140   -7.4000    8.5980 C.3       1 N691301     0.0000 
     17 C12        41.0200   -7.4290    7.1980 C.3       1 N691301     0.0000 
     18 C13        40.8110   -6.0780    6.4990 C.3       1 N691301     0.0000 
     19 C14        41.3780   -4.9150    7.3220 C.3       1 N691301     0.0000 
     20 C15        40.8550   -4.9240    8.7590 C.3       1 N691301     0.0000 
     21 C16        41.0430   -6.2820    9.4360 C.3       1 N691301     0.0000 
     22 H          41.1204   -9.5139   15.1106 H         1 N691301     0.0000 
     23 H          39.8548  -10.6141   15.7536 H         1 N691301     0.0000 
     24 H          36.4907  -12.1573   12.3846 H         1 N691301     0.0000 
     25 H          36.1852  -11.6443    8.6381 H         1 N691301     0.0000 
     26 H          39.6601   -9.3616    8.9455 H         1 N691301     0.0000 
     27 H          41.4274   -9.2356    8.9729 H         1 N691301     0.0000 
     28 H          39.3404   -7.1513    8.4825 H         1 N691301     0.0000 
     29 H          40.5428   -8.2094    6.6128 H         1 N691301     0.0000 
     30 H          42.0845   -7.6318    7.2682 H         1 N691301     0.0000 
     31 H          39.7422   -5.9187    6.3432 H         1 N691301     0.0000 
     32 H          41.3033   -6.1006    5.5247 H         1 N691301     0.0000 
     33 H          41.1009   -3.9720    6.8445 H         1 N691301     0.0000 
     34 H          42.4683   -4.9864    7.3359 H         1 N691301     0.0000 
     35 H          39.7901   -4.6705    8.7541 H         1 N691301     0.0000 
     36 H          41.3834   -4.1592    9.3372 H         1 N691301     0.0000 
     37 H          42.1062   -6.4801    9.5558 H         1 N691301     0.0000 
     38 H          40.5729   -6.2630   10.4171 H         1 N691301     0.0000 
     39 H          36.1164  -13.7976    9.8524 H         1 N691301     0.0000 
     40 H          35.0045  -13.2240   10.8627 H         1 N691301     0.0000 
     41 H          34.6554  -13.4091    9.3039 H         1 N691301     0.0000 
     42 H          34.9058   -9.8399    9.5864 H         1 N691301     0.0000 
     43 H          33.9036  -11.0492    9.2409 H         1 N691301     0.0000 
     44 H          34.3313  -10.7701   10.7658 H         1 N691301     0.0000 
@<TRIPOS>BOND
     1    2    1 1    
     2   22    1 1    
     3   23    1 1    
     4    3    2 ar   
     5    4    2 ar   
     6   13    3 ar   
     7    5    4 ar   
     8    6    5 1    
     9   11    5 ar   
    10    7    6 1    
    11   24    6 1    
    12    8    7 1    
    13   12    7 2    
    14    9    8 1    
    15   10    8 1    
    16   25    8 1    
    17   39    9 1    
    18   40    9 1    
    19   41    9 1    
    20   42   10 1    
    21   43   10 1    
    22   44   10 1    
    23   12   11 1    
    24   13   11 ar   
    25   14   13 1    
    26   15   14 1    
    27   16   15 1    
    28   26   15 1    
    29   27   15 1    
    30   17   16 1    
    31   21   16 1    
    32   28   16 1    
    33   18   17 1    
    34   29   17 1    
    35   30   17 1    
    36   19   18 1    
    37   31   18 1    
    38   32   18 1    
    39   20   19 1    
    40   33   19 1    
    41   34   19 1    
    42   21   20 1    
    43   35   20 1    
    44   36   20 1    
    45   37   21 1    
    46   38   21 1    
@<TRIPOS>SUBSTRUCTURE
     1 N691301     1 GROUP   
@<TRIPOS>SET

