#    Name: 3i53_SAH_1_INTS_M
#    Modification time : Tue Mar 25 15:52:56 2014

@<TRIPOS>MOLECULE
3i53_SAH_1_INTS_M
   68     0     9     0     0
SMALL
NO_CHARGES


@<TRIPOS>ATOM
      1 O          15.3580   24.4655  -28.2840 O.2       1 ALC1        0.0000 
      2 O          16.2010   25.6220  -28.0650 O.2       7 ALL1        0.0000 
      3 O          14.5150   23.3090  -28.5030 O.2       4 ALP1        0.0000 
      4 O          17.4160   25.1295  -27.6760 O.2       1 ALC1        0.0000 
      5 O          18.6310   24.6370  -27.2870 O.2       4 ALP1        0.0000 
      6 CA         14.3780   25.3890  -28.4975 C.3       3 GLC5        0.0000 
      7 CA         15.5540   25.7800  -26.7550 C.3       9 GLL5        0.0000 
      8 CA         13.2020   24.9980  -30.2400 C.3       6 GLP5        0.0000 
      9 CA         17.2810   26.1875  -28.0440 C.3       3 GLC5        0.0000 
     10 CA         19.0080   26.5950  -29.3330 C.3       6 GLP5        0.0000 
     11 CA         16.8460   22.9510  -27.0120 C.3       3 GLC5        0.0000 
     12 CA         15.8840   24.5440  -25.9150 C.3       9 GLL5        0.0000 
     13 CA         17.8080   21.3580  -28.1090 C.3       6 GLP5        0.0000 
     14 N          18.1685   27.4970  -27.3630 N.am      2 SEC2        0.0000 
     15 N          17.2000   27.4620  -26.4490 N.am      8 SEL2        0.0000 
     16 N          19.1370   27.5320  -28.2770 N.am      5 SEP2        0.0000 
     17 CA         16.6335   21.4865  -26.3305 C.3       3 GLC5        0.0000 
     18 CA         15.4590   21.6150  -24.5520 C.3       9 GLL5        0.0000 
     19 CA         14.0860   21.4085  -27.5635 C.3       3 GLC5        0.0000 
     20 CA         14.1990   21.4840  -25.4130 C.3       9 GLL5        0.0000 
     21 CA         13.9730   21.3330  -29.7140 C.3       6 GLP5        0.0000 
     22 CA         13.2090   22.7060  -22.6535 C.3       3 GLC5        0.0000 
     23 CA         12.9130   21.6700  -24.6010 C.3       9 GLL5        0.0000 
     24 CA         13.5050   23.7420  -20.7060 C.3       6 GLP5        0.0000 
     25 O          11.6485   22.2900  -26.5750 O.2       1 ALC1        0.0000 
     26 O          12.0410   22.5760  -25.2840 O.2       7 ALL1        0.0000 
     27 O          11.2560   22.0040  -27.8660 O.2       4 ALP1        0.0000 
     28 CA         12.4600   20.0580  -22.8635 C.3       3 GLC5        0.0000 
     29 CA         12.3050   20.2670  -24.5760 C.3       9 GLL5        0.0000 
     30 CA         12.6150   19.8490  -21.1510 C.3       6 GLP5        0.0000 
     31 O          10.2685   20.5305  -25.8715 O.2       1 ALC1        0.0000 
     32 O          10.8790   20.3630  -24.6070 O.2       7 ALL1        0.0000 
     33 O           9.6580   20.6980  -27.1360 O.2       4 ALP1        0.0000 
     34 CA         13.3775   20.5495  -27.8255 C.3       3 GLC5        0.0000 
     35 CA         12.7820   19.7660  -25.9370 C.3       9 GLL5        0.0000 
     36 CA         13.9000   18.7155  -27.3175 C.3       3 GLC5        0.0000 
     37 CA         15.0180   17.6650  -28.6980 C.3       6 GLP5        0.0000 
     38 CA         11.0535   14.7385  -29.6690 C.3       3 GLC5        0.0000 
     39 CA         11.9830   15.4270  -27.9410 C.3       9 GLL5        0.0000 
     40 CA         10.1240   14.0500  -31.3970 C.3       6 GLP5        0.0000 
     41 O          11.6435   13.1885  -28.9980 O.2       1 ALC1        0.0000 
     42 O          12.0980   14.1130  -27.7730 O.2       7 ALL1        0.0000 
     43 O          11.1890   12.2640  -30.2230 O.2       4 ALP1        0.0000 
     44 N          12.0420   15.3505  -30.4410 N.am      2 SEC2        0.0000 
     45 N          11.6490   15.9210  -29.1410 N.am      8 SEL2        0.0000 
     46 N          12.4350   14.7800  -31.7410 N.am      5 SEP2        0.0000 
     47 CA         11.4165   17.8180  -31.3150 C.3       3 GLC5        0.0000 
     48 CA         11.6090   17.2230  -29.3560 C.3       9 GLL5        0.0000 
     49 CA         11.2240   18.4130  -33.2740 C.3       6 GLP5        0.0000 
     50 CA         10.4420   18.7965  -29.7560 C.3       3 GLC5        0.0000 
     51 CA          9.2750   20.3700  -30.1560 C.3       6 GLP5        0.0000 
     52 CA         10.0260   16.6355  -28.3110 C.3       3 GLC5        0.0000 
     53 CA          8.4430   16.0480  -27.2660 C.3       6 GLP5        0.0000 
     54 CA         10.8665   15.6365  -30.3765 C.3       3 GLC5        0.0000 
     55 CA         13.0850   16.6365  -30.7425 C.3       3 GLC5        0.0000 
     56 CA         14.5610   16.0500  -32.1290 C.3       6 GLP5        0.0000 
     57 CA         10.3830   17.4995  -26.8135 C.3       3 GLC5        0.0000 
     58 CA         12.2380   17.6690  -27.1760 C.3       9 GLL5        0.0000 
     59 CA          8.5280   17.3300  -26.4510 C.3       6 GLP5        0.0000 
     60 CA         14.3990   23.7692  -22.3970 C.3       3 GLC5        0.0000 
     61 CA         15.5580   23.1270  -23.5240 C.3       9 GLL5        0.0000 
     62 CA         15.7850   25.1692  -22.6820 C.3       3 GLC5        0.0000 
     63 CA         16.2770   26.5420  -21.2760 C.3       6 GLP5        0.0000 
     64 CA         14.7503   21.1485  -22.7430 C.3       3 GLC5        0.0000 
     65 CA         13.9920   19.9260  -21.4480 C.3       6 GLP5        0.0000 
     66 CA         13.7740   20.7515  -23.2275 C.3       3 GLC5        0.0000 
     67 CA         10.2880   15.9580  -27.3457 C.3       3 GLC5        0.0000 
     68 CA         12.2830   16.3090  -26.9100 C.3       9 GLL5        0.0000 
@<TRIPOS>BOND
@<TRIPOS>SUBSTRUCTURE
     1 ALC1        1 GROUP        1 X    ALC  0     ROOT ALC X 1
     2 SEC2       14 GROUP        1 X    SEC  0     **** SEC X 2
     3 GLC5        6 GROUP        1 X    GLC  0     **** GLC X 6
     4 ALP1        3 GROUP        1 Y    ALP  0     ROOT ALP Y 8
     5 SEP2       16 GROUP        1 Y    SEP  0     **** SEP Y 9
     6 GLP5        8 GROUP        1 Y    GLP  0     **** GLP Y 13
     7 ALL1        2 GROUP        1 Z    ALL  0     ROOT ALL Z 15
     8 SEL2       15 GROUP        1 Z    SEL  0     **** SEL Z 16
     9 GLL5        7 GROUP        1 Z    GLL  0     **** GLL Z 20
@<TRIPOS>SET

