#    Name: 3i53_SAH_1_ligand
#    Modification time : Tue Mar 25 15:52:57 2014

@<TRIPOS>MOLECULE
3i53_SAH_1_ligand
   46    48     1     0     0
SMALL
NO_CHARGES


@<TRIPOS>ATOM
      1 N          16.2010   25.6220  -28.0650 N.4       1 SAH401      0.0000 
      2 CA         15.5540   25.7800  -26.7550 C.3       1 SAH401      0.0000 
      3 CB         15.8840   24.5440  -25.9150 C.3       1 SAH401      0.0000 
      4 CG         15.0280   24.4660  -24.6520 C.3       1 SAH401      0.0000 
      5 SD         15.5580   23.1270  -23.5240 S.3       1 SAH401      0.0000 
      6 C          16.0870   27.0410  -26.0700 C.2       1 SAH401      0.0000 
      7 O          17.2000   27.4620  -26.4490 O.co2     1 SAH401      0.0000 
      8 OXT        15.3760   27.5670  -25.1850 O.co2     1 SAH401      0.0000 
      9 C5'        15.4590   21.6150  -24.5520 C.3       1 SAH401      0.0000 
     10 C4'        14.1990   21.4840  -25.4130 C.3       1 SAH401      0.0000 
     11 O4'        14.1660   20.1410  -25.9260 O.3       1 SAH401      0.0000 
     12 C3'        12.9130   21.6700  -24.6010 C.3       1 SAH401      0.0000 
     13 O3'        12.0410   22.5760  -25.2840 O.3       1 SAH401      0.0000 
     14 C2'        12.3050   20.2670  -24.5760 C.3       1 SAH401      0.0000 
     15 O2'        10.8790   20.3630  -24.6070 O.3       1 SAH401      0.0000 
     16 C1'        12.7820   19.7660  -25.9370 C.3       1 SAH401      0.0000 
     17 N9         12.6200   18.3010  -26.0710 N.pl3     1 SAH401      0.0000 
     18 C8         12.8780   17.3830  -25.1400 C.2       1 SAH401      0.0000 
     19 N7         12.6740   16.1690  -25.6460 N.2       1 SAH401      0.0000 
     20 C5         12.2830   16.3090  -26.9100 C.ar      1 SAH401      0.0000 
     21 C6         11.9830   15.4270  -27.9410 C.ar      1 SAH401      0.0000 
     22 N6         12.0980   14.1130  -27.7730 N.pl3     1 SAH401      0.0000 
     23 N1         11.6490   15.9210  -29.1410 N.ar      1 SAH401      0.0000 
     24 C2         11.6090   17.2230  -29.3560 C.ar      1 SAH401      0.0000 
     25 N3         11.8970   18.0900  -28.4020 N.ar      1 SAH401      0.0000 
     26 C4         12.2380   17.6690  -27.1760 C.ar      1 SAH401      0.0000 
     27 H          14.4981   25.8545  -26.8616 H         1 SAH401      0.0000 
     28 H          16.9397   24.5755  -25.6322 H         1 SAH401      0.0000 
     29 H          15.7175   23.6472  -26.5179 H         1 SAH401      0.0000 
     30 H          14.0051   24.2071  -24.8391 H         1 SAH401      0.0000 
     31 H          15.1064   25.3303  -24.0233 H         1 SAH401      0.0000 
     32 H          15.5552   20.8330  -23.8075 H         1 SAH401      0.0000 
     33 H          16.3723   21.6802  -25.1322 H         1 SAH401      0.0000 
     34 H          14.2265   22.1932  -26.1990 H         1 SAH401      0.0000 
     35 H          13.1629   21.9550  -23.6286 H         1 SAH401      0.0000 
     36 H          12.7169   19.7143  -23.8342 H         1 SAH401      0.0000 
     37 H          12.2525   20.2970  -26.6857 H         1 SAH401      0.0000 
     38 H          13.1720   17.5732  -24.2257 H         1 SAH401      0.0000 
     39 H          12.3860   13.8090  -26.8649 H         1 SAH401      0.0000 
     40 H          11.8861   13.5473  -28.5699 H         1 SAH401      0.0000 
     41 H          11.3390   17.5819  -30.3182 H         1 SAH401      0.0000 
     42 H          17.0417   25.0841  -28.0016 H         1 SAH401      0.0000 
     43 H          15.6048   25.1579  -28.7201 H         1 SAH401      0.0000 
     44 H          16.4470   26.5042  -28.4665 H         1 SAH401      0.0000 
     45 H          12.0229   22.2537  -26.2305 H         1 SAH401      0.0000 
     46 H          10.6465   20.4478  -25.5759 H         1 SAH401      0.0000 
@<TRIPOS>BOND
     1    2    1 1    
     2   42    1 1    
     3   43    1 1    
     4   44    1 1    
     5    3    2 1    
     6    6    2 1    
     7   27    2 1    
     8    4    3 1    
     9   28    3 1    
    10   29    3 1    
    11    5    4 1    
    12   30    4 1    
    13   31    4 1    
    14    9    5 1    
    15    7    6 ar   
    16    8    6 ar   
    17   10    9 1    
    18   32    9 1    
    19   33    9 1    
    20   11   10 1    
    21   12   10 1    
    22   34   10 1    
    23   16   11 1    
    24   13   12 1    
    25   14   12 1    
    26   35   12 1    
    27   45   13 1    
    28   15   14 1    
    29   16   14 1    
    30   36   14 1    
    31   46   15 1    
    32   17   16 1    
    33   37   16 1    
    34   18   17 1    
    35   26   17 1    
    36   19   18 2    
    37   38   18 1    
    38   20   19 1    
    39   21   20 ar   
    40   26   20 ar   
    41   22   21 1    
    42   23   21 ar   
    43   39   22 1    
    44   40   22 1    
    45   24   23 ar   
    46   25   24 ar   
    47   41   24 1    
    48   26   25 ar   
@<TRIPOS>SUBSTRUCTURE
     1 SAH401      1 GROUP   
@<TRIPOS>SET

