#    Name: 2nvk_FAD_1_INTS_M
#    Modification time : Tue Mar 25 21:41:55 2014

@<TRIPOS>MOLECULE
2nvk_FAD_1_INTS_M
  118     0     9     0     0
SMALL
NO_CHARGES


@<TRIPOS>ATOM
      1 N         112.4580   24.7910   64.2275 N.am      2 SEC2        0.0000 
      2 N         111.2980   24.7400   64.8910 N.am      8 SEL2        0.0000 
      3 N         113.6180   24.8420   63.5640 N.am      5 SEP2        0.0000 
      4 N         112.2895   27.4225   64.7755 N.am      2 SEC2        0.0000 
      5 N         110.8500   27.2240   64.8010 N.am      8 SEL2        0.0000 
      6 N         113.7290   27.6210   64.7500 N.am      5 SEP2        0.0000 
      7 CA        108.7290   23.4240   68.1470 C.3       3 GLC5        0.0000 
      8 CA        110.0960   24.8060   67.7000 C.3       9 GLL5        0.0000 
      9 CA        107.3620   22.0420   68.5940 C.3       6 GLP5        0.0000 
     10 CA        109.1445   23.4015   66.2805 C.3       3 GLC5        0.0000 
     11 CA        108.1930   21.9970   64.8610 C.3       6 GLP5        0.0000 
     12 CA        109.5520   25.0040   70.3720 C.3       3 GLC5        0.0000 
     13 CA        110.9980   24.8280   68.9320 C.3       9 GLL5        0.0000 
     14 CA        108.1060   25.1800   71.8120 C.3       6 GLP5        0.0000 
     15 O         112.7570   25.5700   70.5305 O.2       1 ALC1        0.0000 
     16 O         113.3250   25.1020   69.2950 O.2       7 ALL1        0.0000 
     17 O         112.1890   26.0380   71.7660 O.2       4 ALP1        0.0000 
     18 CA        111.9640   20.9530   68.4320 C.3       3 GLC5        0.0000 
     19 CA        112.3170   22.8670   69.1940 C.3       9 GLL5        0.0000 
     20 CA        111.6110   19.0390   67.6700 C.3       6 GLP5        0.0000 
     21 O         113.9565   22.4180   70.8165 O.2       1 ALC1        0.0000 
     22 O         113.5540   22.2700   69.5130 O.2       7 ALL1        0.0000 
     23 O         114.3590   22.5660   72.1200 O.2       4 ALP1        0.0000 
     24 CA        109.7810   24.1445   71.1150 C.3       3 GLC5        0.0000 
     25 CA        111.4560   23.1090   70.4180 C.3       9 GLL5        0.0000 
     26 CA        107.7260   20.8110   74.0310 C.3       3 GLC5        0.0000 
     27 CA        109.4780   20.0800   73.6810 C.3       9 GLL5        0.0000 
     28 CA        105.9740   21.5420   74.3810 C.3       6 GLP5        0.0000 
     29 O         108.2180   18.3335   75.0065 O.2       1 ALC1        0.0000 
     30 O         108.9830   18.8470   73.8700 O.2       7 ALL1        0.0000 
     31 O         107.4530   17.8200   76.1430 O.2       4 ALP1        0.0000 
     32 N         109.4430   20.3275   76.0775 N.am      2 SEC2        0.0000 
     33 N         109.6360   20.9490   74.7480 N.am      8 SEL2        0.0000 
     34 N         109.2500   19.7060   77.4070 N.am      5 SEP2        0.0000 
     35 CA        108.0955   21.8670   74.4890 C.3       3 GLC5        0.0000 
     36 CA        110.2170   22.1920   74.5970 C.3       9 GLL5        0.0000 
     37 CA        109.3515   23.3890   76.0115 C.3       3 GLC5        0.0000 
     38 CA        108.4860   24.5860   77.4260 C.3       6 GLP5        0.0000 
     39 CA        111.0300   23.9510   74.6210 C.3       3 GLC5        0.0000 
     40 CA        111.8430   25.7100   74.6450 C.3       6 GLP5        0.0000 
     41 CA        112.3285   22.0100   74.9260 C.3       3 GLC5        0.0000 
     42 CA        114.4400   21.8280   75.2550 C.3       6 GLP5        0.0000 
     43 CA        110.9455   20.9765   76.0245 C.3       3 GLC5        0.0000 
     44 CA        111.6740   19.7610   77.4520 C.3       6 GLP5        0.0000 
     45 N         111.9910   23.2135   73.8255 N.am      2 SEC2        0.0000 
     46 N         110.6490   22.5870   73.3450 N.am      8 SEL2        0.0000 
     47 N         113.3330   23.8400   74.3060 N.am      5 SEP2        0.0000 
     48 CA        109.2995   23.4660   72.0500 C.3       3 GLC5        0.0000 
     49 CA        110.4930   21.7520   72.2880 C.3       9 GLL5        0.0000 
     50 N         109.2855   30.0220   57.2470 N.am      2 SEC2        0.0000 
     51 N         110.6890   29.6710   56.3080 N.am      8 SEL2        0.0000 
     52 N         107.8820   30.3730   58.1860 N.am      5 SEP2        0.0000 
     53 N         108.6135   30.8925   56.9705 N.am      2 SEC2        0.0000 
     54 N         109.3450   31.4120   55.7550 N.am      8 SEL2        0.0000 
     55 N         114.8210   29.6235   54.0595 N.am      2 SEC2        0.0000 
     56 N         114.0980   28.9170   55.1560 N.am      8 SEL2        0.0000 
     57 N         115.5440   30.3300   52.9630 N.am      5 SEP2        0.0000 
     58 CA        114.9790   29.6400   56.4560 C.3       3 GLC5        0.0000 
     59 CA        114.3610   27.7520   55.8600 C.3       9 GLL5        0.0000 
     60 CA        115.5970   31.5280   57.0520 C.3       6 GLP5        0.0000 
     61 CA        118.5120   24.0590   56.8185 C.3       3 GLC5        0.0000 
     62 CA        117.3140   25.5030   56.4600 C.3       9 GLL5        0.0000 
     63 CA        119.7100   22.6150   57.1770 C.3       6 GLP5        0.0000 
     64 CA        119.0835   26.1290   56.9720 C.3       3 GLC5        0.0000 
     65 CA        120.8530   26.7550   57.4840 C.3       6 GLP5        0.0000 
     66 CA        114.0170   22.6650   58.2360 C.3       3 GLC5        0.0000 
     67 CA        115.2600   24.3300   58.2560 C.3       9 GLL5        0.0000 
     68 CA        112.7740   21.0000   58.2160 C.3       6 GLP5        0.0000 
     69 CA        109.0235   27.9355   57.1270 C.3       3 GLC5        0.0000 
     70 CA        111.0170   27.2020   57.5940 C.3       9 GLL5        0.0000 
     71 CA        107.0300   28.6690   56.6600 C.3       6 GLP5        0.0000 
     72 CA        111.9315   29.6935   58.6030 C.3       3 GLC5        0.0000 
     73 CA        110.9150   27.7970   59.0010 C.3       9 GLL5        0.0000 
     74 CA        112.9480   31.5900   58.2050 C.3       6 GLP5        0.0000 
     75 CA        110.0985   29.8440   59.3155 C.3       3 GLC5        0.0000 
     76 CA        109.2820   31.8910   59.6300 C.3       6 GLP5        0.0000 
     77 CA        108.4285   27.8750   58.2265 C.3       3 GLC5        0.0000 
     78 CA        109.8270   27.0810   59.7930 C.3       9 GLL5        0.0000 
     79 O         107.7435   25.9370   59.4870 O.2       1 ALC1        0.0000 
     80 O         108.6400   27.0940   59.0320 O.2       7 ALL1        0.0000 
     81 O         106.8470   24.7800   59.9420 O.2       4 ALP1        0.0000 
     82 CA        108.9030   29.3800   62.4110 C.3       3 GLC5        0.0000 
     83 CA        109.5450   27.7290   61.1450 C.3       9 GLL5        0.0000 
     84 CA        108.2610   31.0310   63.6770 C.3       6 GLP5        0.0000 
     85 CA        108.7260   29.4570   60.2765 C.3       3 GLC5        0.0000 
     86 CA        107.9070   31.1850   59.4080 C.3       6 GLP5        0.0000 
     87 CA        107.7570   24.8575   61.6775 C.3       3 GLC5        0.0000 
     88 CA        108.5900   26.8480   61.9570 C.3       9 GLL5        0.0000 
     89 CA        106.9240   22.8670   61.3980 C.3       6 GLP5        0.0000 
     90 CA        106.7820   28.0870   62.0370 C.3       3 GLC5        0.0000 
     91 CA        104.9740   29.3260   62.1170 C.3       6 GLP5        0.0000 
     92 N         106.7650   28.8380   65.6715 N.am      2 SEC2        0.0000 
     93 N         107.4220   27.5730   65.5830 N.am      8 SEL2        0.0000 
     94 N         106.1080   30.1030   65.7600 N.am      5 SEP2        0.0000 
     95 N         105.7155   25.0005   63.1465 N.am      2 SEC2        0.0000 
     96 N         106.4630   25.8450   64.0860 N.am      8 SEL2        0.0000 
     97 N         104.9680   24.1560   62.2070 N.am      5 SEP2        0.0000 
     98 CA        110.2940   26.9140   68.0360 C.3       3 GLC5        0.0000 
     99 CA        110.0410   29.0110   67.7560 C.3       6 GLP5        0.0000 
    100 CA        111.0725   19.2742   73.8212 C.3       3 GLC5        0.0000 
    101 CA        109.9160   20.4950   72.4280 C.3       9 GLL5        0.0000 
    102 CA        112.4480   18.2610   74.5880 C.3       6 GLP5        0.0000 
    103 CA        108.3700   20.9339   71.6931 C.3       3 GLC5        0.0000 
    104 CA        106.6450   20.8480   70.7150 C.3       6 GLP5        0.0000 
    105 CA        115.8503   27.9380   57.3545 C.3       3 GLC5        0.0000 
    106 CA        116.7250   28.4420   58.9300 C.3       6 GLP5        0.0000 
    107 CA        116.6607   27.0845   57.6808 C.3       3 GLC5        0.0000 
    108 CA        115.8790   25.9510   56.4030 C.3       9 GLL5        0.0000 
    109 CA        115.9541   24.8006   54.9471 C.3       3 GLC5        0.0000 
    110 CA        115.3840   23.5830   53.6390 C.3       6 GLP5        0.0000 
    111 CA        115.9062   26.6575   58.3480 C.3       3 GLC5        0.0000 
    112 CA        114.2971   25.6135   59.5198 C.3       3 GLC5        0.0000 
    113 CA        114.9150   25.4160   57.2760 C.3       9 GLL5        0.0000 
    114 CA        114.2130   25.7650   61.4440 C.3       6 GLP5        0.0000 
    115 CA        115.1292   27.5397   58.0010 C.3       3 GLC5        0.0000 
    116 CA        113.6750   26.0510   57.4250 C.3       9 GLL5        0.0000 
    117 CA        114.5371   24.0750   56.1292 C.3       3 GLC5        0.0000 
    118 CA        114.6930   22.6880   54.6630 C.3       6 GLP5        0.0000 
@<TRIPOS>BOND
@<TRIPOS>SUBSTRUCTURE
     1 ALC1       15 GROUP        1 X    ALC  0     ROOT ALC X 1
     2 SEC2        1 GROUP        1 X    SEC  0     **** SEC X 2
     3 GLC5        7 GROUP        1 X    GLC  0     **** GLC X 6
     4 ALP1       17 GROUP        1 Y    ALP  0     ROOT ALP Y 8
     5 SEP2        3 GROUP        1 Y    SEP  0     **** SEP Y 9
     6 GLP5        9 GROUP        1 Y    GLP  0     **** GLP Y 13
     7 ALL1       16 GROUP        1 Z    ALL  0     ROOT ALL Z 15
     8 SEL2        2 GROUP        1 Z    SEL  0     **** SEL Z 16
     9 GLL5        8 GROUP        1 Z    GLL  0     **** GLL Z 20
@<TRIPOS>SET

