#    Name: 2nvk_FAD_1_ligand
#    Modification time : Tue Mar 25 21:41:55 2014

@<TRIPOS>MOLECULE
2nvk_FAD_1_ligand
   84    89     1     0     0
SMALL
NO_CHARGES


@<TRIPOS>ATOM
      1 PA        110.3860   25.8800   65.3140 P.3       1 FAD489      0.0000 
      2 O1A       111.2980   24.7400   64.8910 O.co2     1 FAD489      0.0000 
      3 O2A       110.8500   27.2240   64.8010 O.co2     1 FAD489      0.0000 
      4 O5B       110.3580   25.9490   66.9170 O.3       1 FAD489      0.0000 
      5 C5B       110.0960   24.8060   67.7000 C.3       1 FAD489      0.0000 
      6 C4B       110.9980   24.8280   68.9320 C.3       1 FAD489      0.0000 
      7 O4B       110.4650   24.0130   69.9610 O.3       1 FAD489      0.0000 
      8 C3B       112.3840   24.2860   68.6320 C.3       1 FAD489      0.0000 
      9 O3B       113.3250   25.1020   69.2950 O.3       1 FAD489      0.0000 
     10 C2B       112.3170   22.8670   69.1940 C.3       1 FAD489      0.0000 
     11 O2B       113.5540   22.2700   69.5130 O.3       1 FAD489      0.0000 
     12 C1B       111.4560   23.1090   70.4180 C.3       1 FAD489      0.0000 
     13 N9A       110.8250   21.8960   70.9720 N.pl3     1 FAD489      0.0000 
     14 C8A       110.4590   20.7470   70.3210 C.2       1 FAD489      0.0000 
     15 N7A       109.9130   19.9050   71.2180 N.2       1 FAD489      0.0000 
     16 C5A       109.9160   20.4950   72.4280 C.ar      1 FAD489      0.0000 
     17 C6A       109.4780   20.0800   73.6810 C.ar      1 FAD489      0.0000 
     18 N6A       108.9830   18.8470   73.8700 N.pl3     1 FAD489      0.0000 
     19 N1A       109.6360   20.9490   74.7480 N.ar      1 FAD489      0.0000 
     20 C2A       110.2170   22.1920   74.5970 C.ar      1 FAD489      0.0000 
     21 N3A       110.6490   22.5870   73.3450 N.ar      1 FAD489      0.0000 
     22 C4A       110.4930   21.7520   72.2880 C.ar      1 FAD489      0.0000 
     23 N1        110.6890   29.6710   56.3080 N.2       1 FAD489      0.0000 
     24 C2        110.4250   30.8400   55.6190 C.2       1 FAD489      0.0000 
     25 O2        109.3450   31.4120   55.7550 O.2       1 FAD489      0.0000 
     26 N3        111.3780   31.3590   54.7660 N.am      1 FAD489      0.0000 
     27 C4        112.5940   30.7250   54.5940 C.2       1 FAD489      0.0000 
     28 O4        113.5060   31.3580   54.0820 O.2       1 FAD489      0.0000 
     29 C4X       112.8740   29.5610   55.3010 C.2       1 FAD489      0.0000 
     30 N5        114.0980   28.9170   55.1560 N.2       1 FAD489      0.0000 
     31 C5X       114.3610   27.7520   55.8600 C.ar      1 FAD489      0.0000 
     32 C6        115.5900   27.1160   55.6980 C.ar      1 FAD489      0.0000 
     33 C7        115.8790   25.9510   56.4030 C.ar      1 FAD489      0.0000 
     34 C7M       117.3140   25.5030   56.4600 C.3       1 FAD489      0.0000 
     35 C8        114.9150   25.4160   57.2760 C.ar      1 FAD489      0.0000 
     36 C8M       115.2600   24.3300   58.2560 C.3       1 FAD489      0.0000 
     37 C9        113.6750   26.0510   57.4250 C.ar      1 FAD489      0.0000 
     38 C9A       113.3920   27.2240   56.7190 C.ar      1 FAD489      0.0000 
     39 N10       112.1600   27.8700   56.8690 N.pl3     1 FAD489      0.0000 
     40 C10       111.9050   29.0340   56.1640 C.2       1 FAD489      0.0000 
     41 C1'       111.0170   27.2020   57.5940 C.3       1 FAD489      0.0000 
     42 C2'       110.9150   27.7970   59.0010 C.3       1 FAD489      0.0000 
     43 O2'       112.1730   27.7100   59.6620 O.3       1 FAD489      0.0000 
     44 C3'       109.8270   27.0810   59.7930 C.3       1 FAD489      0.0000 
     45 O3'       108.6400   27.0940   59.0320 O.3       1 FAD489      0.0000 
     46 C4'       109.5450   27.7290   61.1450 C.3       1 FAD489      0.0000 
     47 O4'       110.7640   27.9260   61.8310 O.3       1 FAD489      0.0000 
     48 C5'       108.5900   26.8480   61.9570 C.3       1 FAD489      0.0000 
     49 O5'       108.2760   27.4400   63.2030 O.3       1 FAD489      0.0000 
     50 P         107.7000   26.6000   64.4570 P.3       1 FAD489      0.0000 
     51 O1P       107.4220   27.5730   65.5830 O.co2     1 FAD489      0.0000 
     52 O2P       106.4630   25.8450   64.0860 O.co2     1 FAD489      0.0000 
     53 O3P       108.8620   25.5430   64.8620 O.3       1 FAD489      0.0000 
     54 H         110.2996   23.8756   67.1581 H         1 FAD489      0.0000 
     55 H         109.0585   24.7716   68.0508 H         1 FAD489      0.0000 
     56 H         111.1053   25.8490   69.2673 H         1 FAD489      0.0000 
     57 H         112.4970   24.2378   67.5875 H         1 FAD489      0.0000 
     58 H         111.7098   22.2907   68.5081 H         1 FAD489      0.0000 
     59 H         112.0733   23.5929   71.1627 H         1 FAD489      0.0000 
     60 H         110.5783   20.5833   69.3801 H         1 FAD489      0.0000 
     61 H         108.7304   18.6134   74.8090 H         1 FAD489      0.0000 
     62 H         108.9110   18.2720   73.0550 H         1 FAD489      0.0000 
     63 H         110.3272   22.8158   75.4040 H         1 FAD489      0.0000 
     64 H         111.1800   32.2350   54.2477 H         1 FAD489      0.0000 
     65 H         116.2891   27.5109   55.0521 H         1 FAD489      0.0000 
     66 H         112.9702   25.6510   58.0574 H         1 FAD489      0.0000 
     67 H         111.2000   26.1391   57.6719 H         1 FAD489      0.0000 
     68 H         110.0902   27.3807   57.0663 H         1 FAD489      0.0000 
     69 H         110.6085   28.8390   58.8876 H         1 FAD489      0.0000 
     70 H         110.1540   26.0606   59.9693 H         1 FAD489      0.0000 
     71 H         109.0416   28.6731   60.9544 H         1 FAD489      0.0000 
     72 H         109.0753   25.8636   62.0781 H         1 FAD489      0.0000 
     73 H         107.6897   26.6843   61.3389 H         1 FAD489      0.0000 
     74 H         117.6850   25.3281   55.5480 H         1 FAD489      0.0000 
     75 H         117.9009   26.1901   56.8883 H         1 FAD489      0.0000 
     76 H         117.4190   24.6590   56.9859 H         1 FAD489      0.0000 
     77 H         115.5950   23.5076   57.7962 H         1 FAD489      0.0000 
     78 H         115.9725   24.6192   58.8953 H         1 FAD489      0.0000 
     79 H         114.4682   24.0581   58.8030 H         1 FAD489      0.0000 
     80 H         112.7929   25.6167   69.9673 H         1 FAD489      0.0000 
     81 H         113.7078   22.4921   70.4758 H         1 FAD489      0.0000 
     82 H         111.9594   27.7872   60.6359 H         1 FAD489      0.0000 
     83 H         108.1032   26.3240   59.3768 H         1 FAD489      0.0000 
     84 H         110.5810   27.6389   62.7713 H         1 FAD489      0.0000 
@<TRIPOS>BOND
     1    2    1 ar   
     2    3    1 ar   
     3    4    1 1    
     4   53    1 1    
     5    5    4 1    
     6    6    5 1    
     7   54    5 1    
     8   55    5 1    
     9    7    6 1    
    10    8    6 1    
    11   56    6 1    
    12   12    7 1    
    13    9    8 1    
    14   10    8 1    
    15   57    8 1    
    16   80    9 1    
    17   11   10 1    
    18   12   10 1    
    19   58   10 1    
    20   81   11 1    
    21   13   12 1    
    22   59   12 1    
    23   14   13 1    
    24   22   13 1    
    25   15   14 2    
    26   60   14 1    
    27   16   15 1    
    28   17   16 ar   
    29   22   16 ar   
    30   18   17 1    
    31   19   17 ar   
    32   61   18 1    
    33   62   18 1    
    34   20   19 ar   
    35   21   20 ar   
    36   63   20 1    
    37   22   21 ar   
    38   24   23 1    
    39   40   23 2    
    40   25   24 2    
    41   26   24 am   
    42   27   26 am   
    43   64   26 1    
    44   28   27 2    
    45   29   27 1    
    46   30   29 2    
    47   40   29 1    
    48   31   30 1    
    49   32   31 ar   
    50   38   31 ar   
    51   33   32 ar   
    52   65   32 1    
    53   34   33 1    
    54   35   33 ar   
    55   74   34 1    
    56   75   34 1    
    57   76   34 1    
    58   36   35 1    
    59   37   35 ar   
    60   77   36 1    
    61   78   36 1    
    62   79   36 1    
    63   38   37 ar   
    64   66   37 1    
    65   39   38 1    
    66   40   39 1    
    67   41   39 1    
    68   42   41 1    
    69   67   41 1    
    70   68   41 1    
    71   43   42 1    
    72   44   42 1    
    73   69   42 1    
    74   82   43 1    
    75   45   44 1    
    76   46   44 1    
    77   70   44 1    
    78   83   45 1    
    79   47   46 1    
    80   48   46 1    
    81   71   46 1    
    82   84   47 1    
    83   49   48 1    
    84   72   48 1    
    85   73   48 1    
    86   50   49 1    
    87   51   50 ar   
    88   52   50 ar   
    89   53   50 1    
@<TRIPOS>SUBSTRUCTURE
     1 FAD489      1 GROUP   
@<TRIPOS>SET

