#    Name: 3ghh_2NF_1_INTS_M
#    Modification time : Tue Mar 25 12:31:41 2014

@<TRIPOS>MOLECULE
3ghh_2NF_1_INTS_M
   83     0    12     0     0
SMALL
NO_CHARGES


@<TRIPOS>ATOM
      1 O          23.9425   -1.3835    2.1460 O.2       1 ALC1        0.0000 
      2 O          24.2620   -2.6000    1.6640 O.2       9 ALL1        0.0000 
      3 O          23.6230   -0.1670    2.6280 O.2       5 ALP1        0.0000 
      4 O          25.9050   -2.7045    1.5225 O.2       1 ALC1        0.0000 
      5 O          27.5480   -2.8090    1.3810 O.2       5 ALP1        0.0000 
      6 CA         21.0700   -1.1775    3.8065 C.3       4 GLC5        0.0000 
      7 CA         21.3090   -2.1570    1.9340 C.3      12 GLL5        0.0000 
      8 CA         20.8310   -0.1980    5.6790 C.3       8 GLP5        0.0000 
      9 CA         17.9270   -1.0535    4.2730 C.3       4 GLC5        0.0000 
     10 CA         19.2130   -0.7770    2.4510 C.3      12 GLL5        0.0000 
     11 CA         16.6410   -1.3300    6.0950 C.3       8 GLP5        0.0000 
     12 CA         17.4260   -1.8940    2.6980 C.3       4 GLC5        0.0000 
     13 CA         15.6390   -3.0110    2.9450 C.3       8 GLP5        0.0000 
     14 CA         20.7245    1.7415    4.0105 C.3       4 GLC5        0.0000 
     15 CA         19.4720    1.5560    2.9600 C.3      12 GLL5        0.0000 
     16 CA         21.9770    1.9270    5.0610 C.3       8 GLP5        0.0000 
     17 N          18.4030    3.1445   -0.1300 N.am      2 SEC2        0.0000 
     18 N          18.3710    2.1780    0.9360 N.am     10 SEL2        0.0000 
     19 N          18.4350    4.1110   -1.1960 N.am      6 SEP2        0.0000 
     20 O          17.2190    1.8870    1.5965 O.2       1 ALC1        0.0000 
     21 O          18.3710    2.1780    0.9360 O.2       9 ALL1        0.0000 
     22 O          16.0670    1.5960    2.2570 O.2       5 ALP1        0.0000 
     23 CA         19.5925    0.5800   -0.8330 C.3       4 GLC5        0.0000 
     24 CA         17.9960   -0.1260    0.5760 C.3      12 GLL5        0.0000 
     25 CA         21.1890    1.2860   -2.2420 C.3       8 GLP5        0.0000 
     26 CA         16.8175   -1.5685    1.7605 C.3       4 GLC5        0.0000 
     27 CA         15.9510    0.3855   -0.1620 C.3       4 GLC5        0.0000 
     28 CA         13.9060    0.8970   -0.9000 C.3       8 GLP5        0.0000 
     29 CA         19.7695   -0.9985   -1.8520 C.3       4 GLC5        0.0000 
     30 CA         18.3820   -1.0410   -0.6060 C.3      12 GLL5        0.0000 
     31 CA         21.1570   -0.9560   -3.0980 C.3       8 GLP5        0.0000 
     32 CA         17.8260   -0.1500   -2.5685 C.3       4 GLC5        0.0000 
     33 CA         17.2700    0.7410   -4.5310 C.3       8 GLP5        0.0000 
     34 N          15.4610   -1.0085   -3.0610 N.am      2 SEC2        0.0000 
     35 N          15.7060   -1.4900   -1.8220 N.am     10 SEL2        0.0000 
     36 N          15.2160   -0.5270   -4.3000 N.am      6 SEP2        0.0000 
     37 N          14.7990   -1.3910   -0.7660 N.am      2 SEC2        0.0000 
     38 N          13.8920   -1.2920    0.2900 N.am      6 SEP2        0.0000 
     39 N          14.9580   -4.0560   -0.8545 N.am      2 SEC2        0.0000 
     40 N          16.1220   -4.0550   -1.5010 N.am     10 SEL2        0.0000 
     41 N          13.7940   -4.0570   -0.2080 N.am      6 SEP2        0.0000 
     42 N          16.3610   -1.5225   -3.6605 N.am      2 SEC2        0.0000 
     43 N          17.5060   -2.5180   -3.0210 N.am     10 SEL2        0.0000 
     44 N          18.7305   -1.7680   -5.5120 N.am      2 SEC2        0.0000 
     45 N          19.0140   -2.9750   -4.8270 N.am     10 SEL2        0.0000 
     46 N          18.4470   -0.5610   -6.1970 N.am      6 SEP2        0.0000 
     47 NZ         15.5510   -4.3190   -5.5685 N.4       3 LYC4        0.0000 
     48 NZ         16.6960   -4.2610   -4.5100 N.4      11 LYL4        0.0000 
     49 NZ         14.4060   -4.3770   -6.6270 N.4       7 LYP4        0.0000 
     50 N          15.5510   -4.3190   -5.5685 N.am      2 SEC2        0.0000 
     51 N          16.6960   -4.2610   -4.5100 N.am     10 SEL2        0.0000 
     52 N          14.4060   -4.3770   -6.6270 N.am      6 SEP2        0.0000 
     53 CA         21.0010   -2.9170   -2.3345 C.3       4 GLC5        0.0000 
     54 CA         20.0150   -4.4570   -2.6170 C.3      12 GLL5        0.0000 
     55 CA         21.9870   -1.3770   -2.0520 C.3       8 GLP5        0.0000 
     56 N          14.2845   -7.9505   -0.3460 N.am      2 SEC2        0.0000 
     57 N          15.6700   -7.9560   -0.6070 N.am     10 SEL2        0.0000 
     58 N          12.8990   -7.9450   -0.0850 N.am      6 SEP2        0.0000 
     59 CA         16.4060  -11.8585    1.1990 C.3       4 GLC5        0.0000 
     60 CA         15.8910   -9.6970    1.2200 C.3      12 GLL5        0.0000 
     61 CA         16.9210  -14.0200    1.1780 C.3       8 GLP5        0.0000 
     62 CA         16.6305  -10.6090    2.9590 C.3       4 GLC5        0.0000 
     63 CA         17.3700  -11.5210    4.6980 C.3       8 GLP5        0.0000 
     64 CA         17.2510   -7.1570    1.3805 C.3       4 GLC5        0.0000 
     65 CA         17.6500   -8.7790   -0.0320 C.3      12 GLL5        0.0000 
     66 CA         16.8520   -5.5350    2.7930 C.3       8 GLP5        0.0000 
     67 CA         17.5490  -12.2135    1.4020 C.3       4 GLC5        0.0000 
     68 CA         18.1770  -10.4070    1.6260 C.3      12 GLL5        0.0000 
     69 CA         17.7735  -10.9640    3.1620 C.3       4 GLC5        0.0000 
     70 N          17.3785  -11.3355    2.7510 N.am      2 SEC2        0.0000 
     71 N          16.8070  -10.4720    1.9050 N.am     10 SEL2        0.0000 
     72 N          17.9500  -12.1990    3.5970 N.am      6 SEP2        0.0000 
     73 CA         18.1573   -4.6800    2.3370 C.3       4 GLC5        0.0000 
     74 CA         19.7440   -4.4510    1.7360 C.3      12 GLL5        0.0000 
     75 CA         19.8939   -4.8774    3.5620 C.3       4 GLC5        0.0000 
     76 CA         19.9820   -5.9040    5.2910 C.3       8 GLP5        0.0000 
     77 CA         20.1737   -0.1513    3.9533 C.3       4 GLC5        0.0000 
     78 CA         20.7323    0.7987    0.0892 C.3       4 GLC5        0.0000 
     79 CA         19.8200    0.5680    2.0040 C.3      12 GLL5        0.0000 
     80 CA         22.0270    0.8310   -1.2030 C.3       8 GLP5        0.0000 
     81 CA         15.9117   -7.2527    1.2698 C.3       4 GLC5        0.0000 
     82 CA         16.3080   -8.8300    0.2290 C.3      12 GLL5        0.0000 
     83 CA         15.7240   -5.2420    1.8150 C.3       8 GLP5        0.0000 
@<TRIPOS>BOND
@<TRIPOS>SUBSTRUCTURE
     1 ALC1        1 GROUP        1 X    ALC  0     ROOT ALC X 1
     2 SEC2       17 GROUP        1 X    SEC  0     **** SEC X 2
     3 LYC4       47 GROUP        1 X    LYC  0     **** LYC X 4
     4 GLC5        6 GROUP        1 X    GLC  0     **** GLC X 6
     5 ALP1        3 GROUP        1 Y    ALP  0     ROOT ALP Y 8
     6 SEP2       19 GROUP        1 Y    SEP  0     **** SEP Y 9
     7 LYP4       49 GROUP        1 Y    LYP  0     **** LYP Y 11
     8 GLP5        8 GROUP        1 Y    GLP  0     **** GLP Y 13
     9 ALL1        2 GROUP        1 Z    ALL  0     ROOT ALL Z 15
    10 SEL2       18 GROUP        1 Z    SEL  0     **** SEL Z 16
    11 LYL4       48 GROUP        1 Z    LYL  0     **** LYL Z 18
    12 GLL5        7 GROUP        1 Z    GLL  0     **** GLL Z 20
@<TRIPOS>SET

