#    Name: 3ghh_2NF_1_ligand
#    Modification time : Tue Mar 25 12:31:41 2014

@<TRIPOS>MOLECULE
3ghh_2NF_1_ligand
   69    73     1     0     0
SMALL
NO_CHARGES


@<TRIPOS>ATOM
      1 O7N        23.8750   -4.8780    1.0790 O.2       1 2NF301      0.0000 
      2 C7N        23.3960   -3.5980    1.4440 C.2       1 2NF301      0.0000 
      3 N7N        24.2620   -2.6000    1.6640 N.am      1 2NF301      0.0000 
      4 C3N        21.9070   -3.4050    1.6400 C.ar      1 2NF301      0.0000 
      5 C4N        21.1170   -4.5540    1.5440 C.ar      1 2NF301      0.0000 
      6 C5N        19.7440   -4.4510    1.7360 C.ar      1 2NF301      0.0000 
      7 C6N        19.1810   -3.1990    2.0260 C.ar      1 2NF301      0.0000 
      8 C2N        21.3090   -2.1570    1.9340 C.ar      1 2NF301      0.0000 
      9 N1N        19.9420   -2.0560    2.1270 N.pl3     1 2NF301      0.0000 
     10 C1D        19.2130   -0.7770    2.4510 C.3       1 2NF301      0.0000 
     11 C2D        19.8200    0.5680    2.0040 C.3       1 2NF301      0.0000 
     12 F2D        19.4720    1.5560    2.9600 F         1 2NF301      0.0000 
     13 C3D        19.0550    0.9650    0.7590 C.3       1 2NF301      0.0000 
     14 O3D        18.3710    2.1780    0.9360 O.3       1 2NF301      0.0000 
     15 O4D        17.9280   -0.7720    1.8440 O.3       1 2NF301      0.0000 
     16 C4D        17.9960   -0.1260    0.5760 C.3       1 2NF301      0.0000 
     17 C5D        18.3820   -1.0410   -0.6060 C.3       1 2NF301      0.0000 
     18 O5D        17.6990   -2.2900   -0.5680 O.3       1 2NF301      0.0000 
     19 PN         16.6160   -2.6590   -1.7240 P.3       1 2NF301      0.0000 
     20 O1N        15.7060   -1.4900   -1.8220 O.co2     1 2NF301      0.0000 
     21 O2N        16.1220   -4.0550   -1.5010 O.co2     1 2NF301      0.0000 
     22 O3         17.5060   -2.5180   -3.0210 O.3       1 2NF301      0.0000 
     23 PA         17.9630   -3.6830   -4.0390 P.3       1 2NF301      0.0000 
     24 O1A        19.0140   -2.9750   -4.8270 O.co2     1 2NF301      0.0000 
     25 O2A        16.6960   -4.2610   -4.5100 O.co2     1 2NF301      0.0000 
     26 O5B        18.7410   -4.7650   -3.1720 O.3       1 2NF301      0.0000 
     27 C5B        20.0150   -4.4570   -2.6170 C.3       1 2NF301      0.0000 
     28 C4B        20.5210   -5.7990   -2.1390 C.3       1 2NF301      0.0000 
     29 O4B        19.6460   -6.3100   -1.1330 O.3       1 2NF301      0.0000 
     30 C1B        19.1500   -7.5710   -1.5500 C.3       1 2NF301      0.0000 
     31 C2B        19.2010   -7.6070   -3.0760 C.3       1 2NF301      0.0000 
     32 O2B        19.2100   -8.9170   -3.6020 O.3       1 2NF301      0.0000 
     33 C3B        20.4380   -6.7380   -3.3410 C.3       1 2NF301      0.0000 
     34 O3B        21.6660   -7.4070   -3.4510 O.3       1 2NF301      0.0000 
     35 N9A        17.8050   -7.8590   -1.0360 N.pl3     1 2NF301      0.0000 
     36 C8A        16.5860   -7.3500   -1.3900 C.2       1 2NF301      0.0000 
     37 N7A        15.6700   -7.9560   -0.6070 N.2       1 2NF301      0.0000 
     38 C5A        16.3080   -8.8300    0.2290 C.ar      1 2NF301      0.0000 
     39 C6A        15.8910   -9.6970    1.2200 C.ar      1 2NF301      0.0000 
     40 N6A        14.5980   -9.7550    1.5260 N.pl3     1 2NF301      0.0000 
     41 C4A        17.6500   -8.7790   -0.0320 C.ar      1 2NF301      0.0000 
     42 N3A        18.5700   -9.5450    0.6460 N.ar      1 2NF301      0.0000 
     43 C2A        18.1770  -10.4070    1.6260 C.ar      1 2NF301      0.0000 
     44 N1A        16.8070  -10.4720    1.9050 N.ar      1 2NF301      0.0000 
     45 H          23.8619   -1.7129    1.8941 H         1 2NF301      0.0000 
     46 H          25.2311   -2.8314    1.5784 H         1 2NF301      0.0000 
     47 H          21.5466   -5.4570    1.3351 H         1 2NF301      0.0000 
     48 H          19.1451   -5.2764    1.6678 H         1 2NF301      0.0000 
     49 H          18.1476   -3.1437    2.1683 H         1 2NF301      0.0000 
     50 H          21.9090   -1.3221    2.0024 H         1 2NF301      0.0000 
     51 H          19.0677   -0.7056    3.5432 H         1 2NF301      0.0000 
     52 H          20.8137    0.4772    1.8092 H         1 2NF301      0.0000 
     53 H          19.6941    0.9439   -0.0754 H         1 2NF301      0.0000 
     54 H          17.0699    0.3788    0.3418 H         1 2NF301      0.0000 
     55 H          19.4795   -1.1716   -0.5697 H         1 2NF301      0.0000 
     56 H          18.1631   -0.4811   -1.5342 H         1 2NF301      0.0000 
     57 H          19.9424   -3.7979   -1.7733 H         1 2NF301      0.0000 
     58 H          20.6974   -4.0757   -3.3522 H         1 2NF301      0.0000 
     59 H          21.5165   -5.7223   -1.8304 H         1 2NF301      0.0000 
     60 H          19.8410   -8.3655   -1.2081 H         1 2NF301      0.0000 
     61 H          18.3408   -7.0112   -3.4052 H         1 2NF301      0.0000 
     62 H          20.2207   -6.1057   -4.1954 H         1 2NF301      0.0000 
     63 H          16.4266   -6.6946   -2.0612 H         1 2NF301      0.0000 
     64 H          14.3472  -10.3877    2.2587 H         1 2NF301      0.0000 
     65 H          13.9933   -9.1607    0.9958 H         1 2NF301      0.0000 
     66 H          18.8324  -10.9815    2.1388 H         1 2NF301      0.0000 
     67 H          17.5429    1.9366    1.4419 H         1 2NF301      0.0000 
     68 H          20.1424   -9.0553   -3.9360 H         1 2NF301      0.0000 
     69 H          22.3423   -6.6844   -3.5941 H         1 2NF301      0.0000 
@<TRIPOS>BOND
     1    2    1 2    
     2    3    2 am   
     3    4    2 1    
     4   45    3 1    
     5   46    3 1    
     6    5    4 ar   
     7    8    4 ar   
     8    6    5 ar   
     9   47    5 1    
    10    7    6 ar   
    11   48    6 1    
    12    9    7 ar   
    13   49    7 1    
    14    9    8 ar   
    15   50    8 1    
    16   10    9 1    
    17   11   10 1    
    18   15   10 1    
    19   51   10 1    
    20   12   11 1    
    21   13   11 1    
    22   52   11 1    
    23   14   13 1    
    24   16   13 1    
    25   53   13 1    
    26   67   14 1    
    27   16   15 1    
    28   17   16 1    
    29   54   16 1    
    30   18   17 1    
    31   55   17 1    
    32   56   17 1    
    33   19   18 1    
    34   20   19 ar   
    35   21   19 ar   
    36   22   19 1    
    37   23   22 1    
    38   24   23 ar   
    39   25   23 ar   
    40   26   23 1    
    41   27   26 1    
    42   28   27 1    
    43   57   27 1    
    44   58   27 1    
    45   29   28 1    
    46   33   28 1    
    47   59   28 1    
    48   30   29 1    
    49   31   30 1    
    50   35   30 1    
    51   60   30 1    
    52   32   31 1    
    53   33   31 1    
    54   61   31 1    
    55   68   32 1    
    56   34   33 1    
    57   62   33 1    
    58   69   34 1    
    59   36   35 1    
    60   41   35 1    
    61   37   36 2    
    62   63   36 1    
    63   38   37 1    
    64   39   38 ar   
    65   41   38 ar   
    66   40   39 1    
    67   44   39 ar   
    68   64   40 1    
    69   65   40 1    
    70   42   41 ar   
    71   43   42 ar   
    72   44   43 ar   
    73   66   43 1    
@<TRIPOS>SUBSTRUCTURE
     1 2NF301      1 GROUP   
@<TRIPOS>SET

