#    Name: 2cvw_GDP_2_INTS_M
#    Modification time : Tue Mar 25 01:17:48 2014

@<TRIPOS>MOLECULE
2cvw_GDP_2_INTS_M
   50     0     9     0     0
SMALL
NO_CHARGES


@<TRIPOS>ATOM
      1 N          29.3205   52.0670   16.8865 N.am      2 SEC2        0.0000 
      2 N          28.0980   52.4100   17.1750 N.am      8 SEL2        0.0000 
      3 N          30.5430   51.7240   16.5980 N.am      5 SEP2        0.0000 
      4 N          27.0830   55.1315   16.6330 N.am      2 SEC2        0.0000 
      5 N          26.6100   54.0880   16.2150 N.am      8 SEL2        0.0000 
      6 N          27.5560   56.1750   17.0510 N.am      5 SEP2        0.0000 
      7 N          26.3760   50.0435   13.7270 N.am      2 SEC2        0.0000 
      8 N          24.9220   49.9410   14.5240 N.am      8 SEL2        0.0000 
      9 N          27.8300   50.1460   12.9300 N.am      5 SEP2        0.0000 
     10 N          27.3210   48.6510   15.5135 N.am      2 SEC2        0.0000 
     11 N          26.6010   49.2770   16.2720 N.am      8 SEL2        0.0000 
     12 N          28.0410   48.0250   14.7550 N.am      5 SEP2        0.0000 
     13 CA         25.1220   47.6490   18.1310 C.3       3 GLC5        0.0000 
     14 CA         23.9850   49.2310   17.8310 C.3       9 GLL5        0.0000 
     15 CA         26.2590   46.0670   18.4310 C.3       6 GLP5        0.0000 
     16 CA         24.4020   47.7725   16.7160 C.3       3 GLC5        0.0000 
     17 CA         24.8190   46.3140   15.6010 C.3       6 GLP5        0.0000 
     18 CA         22.9240   50.7435   20.2970 C.3       3 GLC5        0.0000 
     19 CA         22.7990   49.6880   18.6730 C.3       9 GLL5        0.0000 
     20 CA         23.0490   51.7990   21.9210 C.3       6 GLP5        0.0000 
     21 O          22.2705   47.0570   19.1470 O.2       1 ALC1        0.0000 
     22 O          21.3180   47.8750   19.1460 O.2       7 ALL1        0.0000 
     23 O          23.2230   46.2390   19.1480 O.2       4 ALP1        0.0000 
     24 CA         18.6605   51.1750   18.6885 C.3       3 GLC5        0.0000 
     25 CA         20.4370   50.0200   18.2190 C.3       9 GLL5        0.0000 
     26 CA         16.8840   52.3300   19.1580 C.3       6 GLP5        0.0000 
     27 CA         18.5925   49.3515   17.5945 C.3       3 GLC5        0.0000 
     28 CA         16.7480   48.6830   16.9700 C.3       6 GLP5        0.0000 
     29 N          18.7140   51.4995   19.5995 N.am      2 SEC2        0.0000 
     30 N          19.5080   50.0060   19.2980 N.am      8 SEL2        0.0000 
     31 N          17.9200   52.9930   19.9010 N.am      5 SEP2        0.0000 
     32 O          19.7440   50.9390   20.3310 O.2       1 ALC1        0.0000 
     33 O          19.5080   50.0060   19.2980 O.2       7 ALL1        0.0000 
     34 O          19.9800   51.8720   21.3640 O.2       4 ALP1        0.0000 
     35 CA         22.1235   51.5725   20.0400 C.3       3 GLC5        0.0000 
     36 CA         21.1980   51.3460   18.1590 C.3       9 GLL5        0.0000 
     37 O          17.2030   54.9835   18.3740 O.2       1 ALC1        0.0000 
     38 O          17.4540   54.9420   16.9340 O.2       7 ALL1        0.0000 
     39 O          16.9520   55.0250   19.8140 O.2       4 ALP1        0.0000 
     40 CA         18.5225   52.5055   17.7470 C.3       3 GLC5        0.0000 
     41 CA         20.1610   52.6810   16.3360 C.3       9 GLL5        0.0000 
     42 CA         24.3060   48.9483   19.6755 C.3       3 GLC5        0.0000 
     43 CA         25.2200   48.4370   21.0990 C.3       6 GLP5        0.0000 
     44 CA         21.2241   48.9723   20.2920 C.3       3 GLC5        0.0000 
     45 CA         21.1460   48.2730   22.2430 C.3       6 GLP5        0.0000 
     46 CA         20.9321   48.7662   16.7895 C.3       3 GLC5        0.0000 
     47 CA         21.5360   48.9580   18.2530 C.3       9 GLL5        0.0000 
     48 CA         20.5620   47.8610   15.2380 C.3       6 GLP5        0.0000 
     49 CA         18.6082   51.8175   15.6803 C.3       3 GLC5        0.0000 
     50 CA         16.9540   50.8810   15.7520 C.3       6 GLP5        0.0000 
@<TRIPOS>BOND
@<TRIPOS>SUBSTRUCTURE
     1 ALC1       21 GROUP        1 X    ALC  0     ROOT ALC X 1
     2 SEC2        1 GROUP        1 X    SEC  0     **** SEC X 2
     3 GLC5       13 GROUP        1 X    GLC  0     **** GLC X 6
     4 ALP1       23 GROUP        1 Y    ALP  0     ROOT ALP Y 8
     5 SEP2        3 GROUP        1 Y    SEP  0     **** SEP Y 9
     6 GLP5       15 GROUP        1 Y    GLP  0     **** GLP Y 13
     7 ALL1       22 GROUP        1 Z    ALL  0     ROOT ALL Z 15
     8 SEL2        2 GROUP        1 Z    SEL  0     **** SEL Z 16
     9 GLL5       14 GROUP        1 Z    GLL  0     **** GLL Z 20
@<TRIPOS>SET

