#    Name: 2cvw_GDP_2_ligand
#    Modification time : Tue Mar 25 01:17:48 2014

@<TRIPOS>MOLECULE
2cvw_GDP_2_ligand
   40    42     1     0     0
SMALL
NO_CHARGES


@<TRIPOS>ATOM
      1 PB         26.6810   52.7350   16.8880 P.3       1 GDP1002     0.0000 
      2 O1B        28.0980   52.4100   17.1750 O.co2     1 GDP1002     0.0000 
      3 O2B        25.8390   52.6720   18.1620 O.co2     1 GDP1002     0.0000 
      4 O3B        26.6100   54.0880   16.2150 O.co2     1 GDP1002     0.0000 
      5 O3A        26.0570   51.7410   15.7820 O.3       1 GDP1002     0.0000 
      6 PA         25.4870   50.2280   15.8820 P.3       1 GDP1002     0.0000 
      7 O1A        24.9220   49.9410   14.5240 O.co2     1 GDP1002     0.0000 
      8 O2A        26.6010   49.2770   16.2720 O.co2     1 GDP1002     0.0000 
      9 O5'        24.3480   50.3210   16.9940 O.3       1 GDP1002     0.0000 
     10 C5'        23.9850   49.2310   17.8310 C.3       1 GDP1002     0.0000 
     11 C4'        22.7990   49.6880   18.6730 C.3       1 GDP1002     0.0000 
     12 O4'        22.5530   51.0970   18.5390 O.3       1 GDP1002     0.0000 
     13 C3'        21.5360   48.9580   18.2530 C.3       1 GDP1002     0.0000 
     14 O3'        21.3180   47.8750   19.1460 O.3       1 GDP1002     0.0000 
     15 C2'        20.4370   50.0200   18.2190 C.3       1 GDP1002     0.0000 
     16 O2'        19.5080   50.0060   19.2980 O.3       1 GDP1002     0.0000 
     17 C1'        21.1980   51.3460   18.1590 C.3       1 GDP1002     0.0000 
     18 N9         21.0780   51.8010   16.7450 N.pl3     1 GDP1002     0.0000 
     19 C8         21.7970   51.3860   15.6760 C.2       1 GDP1002     0.0000 
     20 N7         21.3730   52.0040   14.5330 N.2       1 GDP1002     0.0000 
     21 C5         20.3640   52.8270   14.8810 C.2       1 GDP1002     0.0000 
     22 C6         19.4700   53.7670   14.1680 C.2       1 GDP1002     0.0000 
     23 O6         19.6270   53.8930   12.9270 O.2       1 GDP1002     0.0000 
     24 N1         18.5260   54.4350   14.8860 N.am      1 GDP1002     0.0000 
     25 C2         18.3970   54.2580   16.2420 C.2       1 GDP1002     0.0000 
     26 N2         17.4540   54.9420   16.9340 N.pl3     1 GDP1002     0.0000 
     27 N3         19.1890   53.4060   16.9520 N.2       1 GDP1002     0.0000 
     28 C4         20.1610   52.6810   16.3360 C.2       1 GDP1002     0.0000 
     29 H          24.7872   48.9483   18.5073 H         1 GDP1002     0.0000 
     30 H          23.6748   48.3605   17.2594 H         1 GDP1002     0.0000 
     31 H          22.9946   49.4331   19.7094 H         1 GDP1002     0.0000 
     32 H          21.7027   48.6212   17.2329 H         1 GDP1002     0.0000 
     33 H          19.9381   49.9260   17.2444 H         1 GDP1002     0.0000 
     34 H          20.7045   52.0293   18.8041 H         1 GDP1002     0.0000 
     35 H          22.5234   50.7324   15.7093 H         1 GDP1002     0.0000 
     36 H          17.8812   55.0998   14.3987 H         1 GDP1002     0.0000 
     37 H          16.9216   55.6081   16.4116 H         1 GDP1002     0.0000 
     38 H          17.3740   54.7202   17.9058 H         1 GDP1002     0.0000 
     39 H          22.2315   47.5960   19.4421 H         1 GDP1002     0.0000 
     40 H          19.4975   50.9447   19.6425 H         1 GDP1002     0.0000 
@<TRIPOS>BOND
     1    2    1 ar   
     2    3    1 ar   
     3    4    1 ar   
     4    5    1 1    
     5    6    5 1    
     6    7    6 ar   
     7    8    6 ar   
     8    9    6 1    
     9   10    9 1    
    10   11   10 1    
    11   29   10 1    
    12   30   10 1    
    13   12   11 1    
    14   13   11 1    
    15   31   11 1    
    16   17   12 1    
    17   14   13 1    
    18   15   13 1    
    19   32   13 1    
    20   39   14 1    
    21   16   15 1    
    22   17   15 1    
    23   33   15 1    
    24   40   16 1    
    25   18   17 1    
    26   34   17 1    
    27   19   18 1    
    28   28   18 1    
    29   20   19 2    
    30   35   19 1    
    31   21   20 1    
    32   22   21 1    
    33   28   21 2    
    34   23   22 2    
    35   24   22 am   
    36   25   24 1    
    37   36   24 1    
    38   26   25 1    
    39   27   25 2    
    40   37   26 1    
    41   38   26 1    
    42   28   27 1    
@<TRIPOS>SUBSTRUCTURE
     1 GDP1002     1 GROUP   
@<TRIPOS>SET

