#    Name: 3fzp_AGS_1_INTS_M
#    Modification time : Tue Mar 25 06:51:27 2014

@<TRIPOS>MOLECULE
3fzp_AGS_1_INTS_M
   63     0    12     0     0
SMALL
NO_CHARGES


@<TRIPOS>ATOM
      1 CA         13.6070  -14.0965   12.1195 C.3       4 GLC5        0.0000 
      2 CA         12.0730  -13.6810   12.5580 C.3      12 GLL5        0.0000 
      3 CA         15.1410  -14.5120   11.6810 C.3       8 GLP5        0.0000 
      4 CA         13.4105  -13.9645   14.0255 C.3       4 GLC5        0.0000 
      5 CA         14.7480  -14.2480   15.4930 C.3       8 GLP5        0.0000 
      6 CA         11.1785  -13.5210   14.2165 C.3       4 GLC5        0.0000 
      7 CA         10.2840  -13.3610   15.8750 C.3       8 GLP5        0.0000 
      8 CA         11.2415  -12.6320   10.9665 C.3       4 GLC5        0.0000 
      9 CA         10.4100  -11.5830    9.3750 C.3       8 GLP5        0.0000 
     10 NZ         10.4185  -10.8810   11.4500 N.4       3 LYC4        0.0000 
     11 NZ         10.3420  -11.3740   12.6330 N.4      11 LYL4        0.0000 
     12 NZ         10.4950  -10.3880   10.2670 N.4       7 LYP4        0.0000 
     13 N          10.4185  -10.8810   11.4500 N.am      2 SEC2        0.0000 
     14 N          10.3420  -11.3740   12.6330 N.am     10 SEL2        0.0000 
     15 N          10.4950  -10.3880   10.2670 N.am      6 SEP2        0.0000 
     16 N          14.7975  -12.8080   13.7775 N.am      2 SEC2        0.0000 
     17 N          14.8590  -11.6590   13.5050 N.am     10 SEL2        0.0000 
     18 N          14.7360  -13.9570   14.0500 N.am      6 SEP2        0.0000 
     19 N          11.6690  -10.6830   11.1355 N.am      2 SEC2        0.0000 
     20 N          12.8430  -10.9780   12.0040 N.am     10 SEL2        0.0000 
     21 NZ         11.8975  -10.3345    9.8970 N.4       3 LYC4        0.0000 
     22 NZ         13.3000  -10.2810    9.5270 N.4      11 LYL4        0.0000 
     23 N          11.8975  -10.3345    9.8970 N.am      2 SEC2        0.0000 
     24 N          13.3000  -10.2810    9.5270 N.am     10 SEL2        0.0000 
     25 CA         15.8065  -13.3850    9.9890 C.3       4 GLC5        0.0000 
     26 CA         16.4720  -12.2580    8.2970 C.3      12 GLL5        0.0000 
     27 CA         14.7170  -13.4735    7.9930 C.3       4 GLC5        0.0000 
     28 CA         12.9620  -14.6890    7.6890 C.3       8 GLP5        0.0000 
     29 CA         17.4670  -14.6280    6.5725 C.3       4 GLC5        0.0000 
     30 CA         17.0490  -12.5830    6.9090 C.3      12 GLL5        0.0000 
     31 CA         17.8850  -16.6730    6.2360 C.3       8 GLP5        0.0000 
     32 CA         18.6450   -8.8785    5.6790 C.3       4 GLC5        0.0000 
     33 CA         17.1670  -10.4500    6.0210 C.3      12 GLL5        0.0000 
     34 CA         20.1230   -7.3070    5.3370 C.3       8 GLP5        0.0000 
     35 O          19.0685   -9.2715    6.1485 O.2       1 ALC1        0.0000 
     36 O          17.9600   -9.6090    5.2320 O.2       9 ALL1        0.0000 
     37 O          20.1770   -8.9340    7.0650 O.2       5 ALP1        0.0000 
     38 CA         11.8385   -9.4135    0.5990 C.3       4 GLC5        0.0000 
     39 CA         12.7210   -9.2600    2.5870 C.3      12 GLL5        0.0000 
     40 CA         10.9560   -9.5670   -1.3890 C.3       8 GLP5        0.0000 
     41 O          10.5435   -8.5035    1.6685 O.2       1 ALC1        0.0000 
     42 O          11.4070   -8.7570    2.6280 O.2       9 ALL1        0.0000 
     43 O           9.6800   -8.2500    0.7090 O.2       5 ALP1        0.0000 
     44 N          13.1215   -8.6640    0.1075 N.am      2 SEC2        0.0000 
     45 N          13.4040   -9.2530    1.4420 N.am     10 SEL2        0.0000 
     46 N          12.8390   -8.0750   -1.2270 N.am      6 SEP2        0.0000 
     47 CA         14.2840  -11.7500    1.6970 C.3       4 GLC5        0.0000 
     48 CA         14.6550   -9.7410    1.4580 C.3      12 GLL5        0.0000 
     49 CA         13.9130  -13.7590    1.9360 C.3       8 GLP5        0.0000 
     50 CA         13.8730  -10.7740    0.1380 C.3       4 GLC5        0.0000 
     51 CA         13.0910  -11.8070   -1.1820 C.3       8 GLP5        0.0000 
     52 CA         14.1490   -8.3250   -0.0820 C.3       4 GLC5        0.0000 
     53 CA         13.6430   -6.9090   -1.6220 C.3       8 GLP5        0.0000 
     54 CA         15.4705   -8.1670    2.5490 C.3       4 GLC5        0.0000 
     55 CA         16.2860   -6.5930    3.6400 C.3       8 GLP5        0.0000 
     56 CA         15.4620   -8.4280    3.6050 C.3       4 GLC5        0.0000 
     57 CA         14.6380  -10.2630    3.5700 C.3      12 GLL5        0.0000 
     58 CA         13.9563  -11.8942    2.7862 C.3       4 GLC5        0.0000 
     59 CA         11.9555  -10.9490    2.7080 C.3       4 GLC5        0.0000 
     60 CA         13.3610   -9.7960    3.7030 C.3      12 GLL5        0.0000 
     61 CA         10.8700  -12.3700    2.2710 C.3       8 GLP5        0.0000 
     62 CA         13.4630   -7.9185    3.6815 C.3       4 GLC5        0.0000 
     63 CA         13.8850   -6.3090    4.2180 C.3       8 GLP5        0.0000 
@<TRIPOS>BOND
@<TRIPOS>SUBSTRUCTURE
     1 ALC1       35 GROUP        1 X    ALC  0     ROOT ALC X 1
     2 SEC2       13 GROUP        1 X    SEC  0     **** SEC X 2
     3 LYC4       10 GROUP        1 X    LYC  0     **** LYC X 4
     4 GLC5        1 GROUP        1 X    GLC  0     **** GLC X 6
     5 ALP1       37 GROUP        1 Y    ALP  0     ROOT ALP Y 8
     6 SEP2       15 GROUP        1 Y    SEP  0     **** SEP Y 9
     7 LYP4       12 GROUP        1 Y    LYP  0     **** LYP Y 11
     8 GLP5        3 GROUP        1 Y    GLP  0     **** GLP Y 13
     9 ALL1       36 GROUP        1 Z    ALL  0     ROOT ALL Z 15
    10 SEL2       14 GROUP        1 Z    SEL  0     **** SEL Z 16
    11 LYL4       11 GROUP        1 Z    LYL  0     **** LYL Z 18
    12 GLL5        2 GROUP        1 Z    GLL  0     **** GLL Z 20
@<TRIPOS>SET

