#    Name: 3fzp_AGS_1_ligand
#    Modification time : Tue Mar 25 06:51:27 2014

@<TRIPOS>MOLECULE
3fzp_AGS_1_ligand
   43    45     1     0     0
SMALL
NO_CHARGES


@<TRIPOS>ATOM
      1 PG         11.7700  -11.7790   12.9540 P.3       1 AGS999      0.0000 
      2 S1G        12.0730  -13.6810   12.5580 S.3       1 AGS999      0.0000 
      3 O2G        12.2740  -11.3980   14.3210 O.co2     1 AGS999      0.0000 
      4 O3G        10.3420  -11.3740   12.6330 O.co2     1 AGS999      0.0000 
      5 PB         14.4420  -10.8570   12.3040 P.3       1 AGS999      0.0000 
      6 O1B        14.7690   -9.3920   12.2190 O.co2     1 AGS999      0.0000 
      7 O2B        14.8590  -11.6590   13.5050 O.co2     1 AGS999      0.0000 
      8 O3B        12.8430  -10.9780   12.0040 O.3       1 AGS999      0.0000 
      9 PA         14.7320  -10.7800    9.4990 P.3       1 AGS999      0.0000 
     10 O1A        13.3000  -10.2810    9.5270 O.co2     1 AGS999      0.0000 
     11 O2A        15.8780   -9.8030    9.4750 O.co2     1 AGS999      0.0000 
     12 O3A        14.9130  -11.5430   10.9040 O.3       1 AGS999      0.0000 
     13 O5'        15.1030  -11.8950    8.3530 O.3       1 AGS999      0.0000 
     14 C5'        16.4720  -12.2580    8.2970 C.3       1 AGS999      0.0000 
     15 C4'        17.0490  -12.5830    6.9090 C.3       1 AGS999      0.0000 
     16 O4'        16.0620  -12.5470    5.8700 O.3       1 AGS999      0.0000 
     17 C3'        18.0700  -11.4980    6.5660 C.3       1 AGS999      0.0000 
     18 O3'        18.9060  -11.8700    5.4590 O.3       1 AGS999      0.0000 
     19 C2'        17.1670  -10.4500    6.0210 C.3       1 AGS999      0.0000 
     20 O2'        17.9600   -9.6090    5.2320 O.3       1 AGS999      0.0000 
     21 C1'        16.2760  -11.3190    5.1430 C.3       1 AGS999      0.0000 
     22 N9         14.9920  -10.7040    4.8140 N.pl3     1 AGS999      0.0000 
     23 C8         13.9410  -10.5180    5.6540 C.2       1 AGS999      0.0000 
     24 N7         12.9440   -9.9490    5.0120 N.2       1 AGS999      0.0000 
     25 C5         13.3610   -9.7960    3.7030 C.ar      1 AGS999      0.0000 
     26 C6         12.7210   -9.2600    2.5870 C.ar      1 AGS999      0.0000 
     27 N6         11.4070   -8.7570    2.6280 N.pl3     1 AGS999      0.0000 
     28 N1         13.4040   -9.2530    1.4420 N.ar      1 AGS999      0.0000 
     29 C2         14.6550   -9.7410    1.4580 C.ar      1 AGS999      0.0000 
     30 N3         15.3670  -10.2750    2.4540 N.ar      1 AGS999      0.0000 
     31 C4         14.6380  -10.2630    3.5700 C.ar      1 AGS999      0.0000 
     32 H          16.6834  -13.1530    8.9491 H         1 AGS999      0.0000 
     33 H          17.1260  -11.4506    8.7345 H         1 AGS999      0.0000 
     34 H          17.5630  -13.5131    6.9500 H         1 AGS999      0.0000 
     35 H          18.5462  -11.1639    7.3971 H         1 AGS999      0.0000 
     36 H          16.6234  -10.0212    6.7653 H         1 AGS999      0.0000 
     37 H          16.8326  -11.5411    4.2338 H         1 AGS999      0.0000 
     38 H          13.9484  -10.7791    6.6002 H         1 AGS999      0.0000 
     39 H          11.0417   -8.4096    1.7644 H         1 AGS999      0.0000 
     40 H          10.9508   -8.7899    3.5173 H         1 AGS999      0.0000 
     41 H          15.1859   -9.6910    0.4746 H         1 AGS999      0.0000 
     42 H          18.8465  -11.1026    4.8206 H         1 AGS999      0.0000 
     43 H          18.7301   -9.3554    5.8174 H         1 AGS999      0.0000 
@<TRIPOS>BOND
     1    2    1 1    
     2    3    1 ar   
     3    4    1 ar   
     4    8    1 1    
     5    6    5 ar   
     6    7    5 ar   
     7    8    5 1    
     8   12    5 1    
     9   10    9 ar   
    10   11    9 ar   
    11   12    9 1    
    12   13    9 1    
    13   14   13 1    
    14   15   14 1    
    15   32   14 1    
    16   33   14 1    
    17   16   15 1    
    18   17   15 1    
    19   34   15 1    
    20   21   16 1    
    21   18   17 1    
    22   19   17 1    
    23   35   17 1    
    24   42   18 1    
    25   20   19 1    
    26   21   19 1    
    27   36   19 1    
    28   43   20 1    
    29   22   21 1    
    30   37   21 1    
    31   23   22 1    
    32   31   22 1    
    33   24   23 2    
    34   38   23 1    
    35   25   24 1    
    36   26   25 ar   
    37   31   25 ar   
    38   27   26 1    
    39   28   26 ar   
    40   39   27 1    
    41   40   27 1    
    42   29   28 ar   
    43   30   29 ar   
    44   41   29 1    
    45   31   30 ar   
@<TRIPOS>SUBSTRUCTURE
     1 AGS999      1 GROUP   
@<TRIPOS>SET

