#    Name: 2ji8_FYN_2_INTS_M
#    Modification time : Tue Mar 25 20:52:28 2014

@<TRIPOS>MOLECULE
2ji8_FYN_2_INTS_M
   92     0    12     0     0
SMALL
NO_CHARGES


@<TRIPOS>ATOM
      1 CA         37.5960   25.0195    3.0580 C.3       4 GLC5        0.0000 
      2 CA         37.7670   23.5800    4.0390 C.3      12 GLL5        0.0000 
      3 CA         37.4250   26.4590    2.0770 C.3       8 GLP5        0.0000 
      4 CA         37.1240   25.7500    4.7450 C.3       4 GLC5        0.0000 
      5 CA         36.8490   24.3630    6.0440 C.3      12 GLL5        0.0000 
      6 CA         37.3990   27.1370    3.4460 C.3       8 GLP5        0.0000 
      7 CA         35.0140   25.2815    5.4835 C.3       4 GLC5        0.0000 
      8 CA         33.1790   26.2000    4.9230 C.3       8 GLP5        0.0000 
      9 CA         36.2290   25.8560    7.3125 C.3       4 GLC5        0.0000 
     10 CA         35.6090   27.3490    8.5810 C.3       8 GLP5        0.0000 
     11 CA         37.7790   23.6405    7.4715 C.3       4 GLC5        0.0000 
     12 CA         38.7090   22.9180    8.8990 C.3       8 GLP5        0.0000 
     13 CA         38.2955   26.6620    6.4565 C.3       4 GLC5        0.0000 
     14 CA         39.1170   24.7860    5.6070 C.3      12 GLL5        0.0000 
     15 CA         37.4740   28.5380    7.3060 C.3       8 GLP5        0.0000 
     16 CA         38.9130   23.8520    7.2530 C.3       4 GLC5        0.0000 
     17 O          41.1075   24.0025    5.9995 O.2       1 ALC1        0.0000 
     18 O          40.2920   25.3300    6.0020 O.2       9 ALL1        0.0000 
     19 O          41.9230   22.6750    5.9970 O.2       5 ALP1        0.0000 
     20 CA         38.0685   21.4255    3.6075 C.3       4 GLC5        0.0000 
     21 CA         36.7610   22.3150    2.1590 C.3      12 GLL5        0.0000 
     22 CA         39.3760   20.5360    5.0560 C.3       8 GLP5        0.0000 
     23 CA         37.0175   23.3035   -1.3075 C.3       4 GLC5        0.0000 
     24 CA         36.6620   22.5990    0.6650 C.3      12 GLL5        0.0000 
     25 CA         37.3730   24.0080   -3.2800 C.3       8 GLP5        0.0000 
     26 N          35.7995   24.6110   -0.8810 N.am      2 SEC2        0.0000 
     27 N          35.8240   23.7260    0.3890 N.am     10 SEL2        0.0000 
     28 N          35.7750   25.4960   -2.1510 N.am      6 SEP2        0.0000 
     29 CA         37.6990   17.4460    0.7060 C.3       4 GLC5        0.0000 
     30 CA         37.8260   19.5380    0.5610 C.3      12 GLL5        0.0000 
     31 CA         37.5720   15.3540    0.8510 C.3       8 GLP5        0.0000 
     32 NZ         41.4610   17.6085   -0.5630 N.4       3 LYC4        0.0000 
     33 NZ         40.6340   18.9610   -0.4620 N.4      11 LYL4        0.0000 
     34 NZ         43.4770   16.8480   -0.5810 N.4       7 LYP4        0.0000 
     35 N          42.0865   18.5715   -0.4830 N.am      2 SEC2        0.0000 
     36 N          40.6340   18.9610   -0.4620 N.am     10 SEL2        0.0000 
     37 N          43.5390   18.1820   -0.5040 N.am      6 SEP2        0.0000 
     38 N          41.4610   17.6085   -0.5630 N.am      2 SEC2        0.0000 
     39 N          42.2880   16.2560   -0.6640 N.am      6 SEP2        0.0000 
     40 N          36.2030   17.8625   -2.1955 N.am      2 SEC2        0.0000 
     41 N          37.2980   18.3850   -3.3800 N.am     10 SEL2        0.0000 
     42 N          35.1080   17.3400   -1.0110 N.am      6 SEP2        0.0000 
     43 N          38.0375   16.7015   -1.0795 N.am      2 SEC2        0.0000 
     44 N          39.2130   17.2860   -1.9870 N.am     10 SEL2        0.0000 
     45 N          36.8620   16.1170   -0.1720 N.am      6 SEP2        0.0000 
     46 CA         42.1810   13.6260   -6.8040 C.3       4 GLC5        0.0000 
     47 CA         41.1590   15.4640   -6.0240 C.3      12 GLL5        0.0000 
     48 CA         43.2030   11.7880   -7.5840 C.3       8 GLP5        0.0000 
     49 CA         40.6165   13.5845   -5.4000 C.3       4 GLC5        0.0000 
     50 CA         40.0740   11.7050   -4.7760 C.3       8 GLP5        0.0000 
     51 CA         43.5265   19.0020   -6.6995 C.3       4 GLC5        0.0000 
     52 CA         42.0980   17.7580   -5.7200 C.3      12 GLL5        0.0000 
     53 CA         44.9550   20.2460   -7.6790 C.3       8 GLP5        0.0000 
     54 CA         44.7095   14.6760   -5.3685 C.3       4 GLC5        0.0000 
     55 CA         44.4560   13.7050   -3.7190 C.3      12 GLL5        0.0000 
     56 CA         44.9630   15.6470   -7.0180 C.3       8 GLP5        0.0000 
     57 CA         43.0355   10.9160   -3.7305 C.3       4 GLC5        0.0000 
     58 CA         44.1040   12.3870   -3.0530 C.3      12 GLL5        0.0000 
     59 CA         41.9670    9.4450   -4.4080 C.3       8 GLP5        0.0000 
     60 O          43.7265   10.3770   -1.4145 O.2       1 ALC1        0.0000 
     61 O          45.1260   10.4050   -2.2230 O.2       9 ALL1        0.0000 
     62 O          42.3270   10.3490   -0.6060 O.2       5 ALP1        0.0000 
     63 CA         46.1645   10.9375   -1.1120 C.3       4 GLC5        0.0000 
     64 CA         46.0020    9.2700   -2.0100 C.3      12 GLL5        0.0000 
     65 CA         46.3270   12.6050   -0.2140 C.3       8 GLP5        0.0000 
     66 CA         47.4685    9.4145   -3.5760 C.3       4 GLC5        0.0000 
     67 CA         48.9350    9.5590   -5.1420 C.3       8 GLP5        0.0000 
     68 CA         44.4755    8.3625    0.5390 C.3       4 GLC5        0.0000 
     69 CA         45.0930    8.2280   -1.3690 C.3      12 GLL5        0.0000 
     70 CA         43.8580    8.4970    2.4470 C.3       8 GLP5        0.0000 
     71 CA         45.3345    6.6475   -0.6885 C.3       4 GLC5        0.0000 
     72 CA         45.5760    5.0670   -0.0080 C.3       8 GLP5        0.0000 
     73 CA         43.0475    8.4520   -3.5065 C.3       4 GLC5        0.0000 
     74 CA         44.1280    7.4590   -2.6050 C.3      12 GLL5        0.0000 
     75 CA         44.9645    6.0275   -2.0720 C.3       4 GLC5        0.0000 
     76 CA         45.8010    4.5960   -1.5390 C.3       8 GLP5        0.0000 
     77 N          34.2300   23.4430   -2.7920 N.am      2 SEC2        0.0000 
     78 N          34.0810   23.0500   -1.5150 N.am     10 SEL2        0.0000 
     79 N          34.3790   23.8360   -4.0690 N.am      6 SEP2        0.0000 
     80 N          40.8530    5.1825   -1.8980 N.am      2 SEC2        0.0000 
     81 N          42.2250    5.8220   -2.0390 N.am     10 SEL2        0.0000 
     82 N          39.4810    4.5430   -1.7570 N.am      6 SEP2        0.0000 
     83 CA         38.2290   25.7948    4.2205 C.3       4 GLC5        0.0000 
     84 CA         39.0010   24.1190    4.3830 C.3      12 GLL5        0.0000 
     85 CA         39.0632   22.4269    4.9825 C.3       4 GLC5        0.0000 
     86 CA         37.0682   24.4580    1.7445 C.3       4 GLC5        0.0000 
     87 CA         43.2974   16.2838   -6.3332 C.3       4 GLC5        0.0000 
     88 CA         44.4120   12.3915   -5.2715 C.3       4 GLC5        0.0000 
     89 CA         44.5440   11.7370   -7.1570 C.3       8 GLP5        0.0000 
     90 CA         45.3035   12.8255   -1.8000 C.3       4 GLC5        0.0000 
     91 CA         47.3863    8.2080   -1.1658 C.3       4 GLC5        0.0000 
     92 CA         49.2250    7.6670   -0.6420 C.3       8 GLP5        0.0000 
@<TRIPOS>BOND
@<TRIPOS>SUBSTRUCTURE
     1 ALC1       17 GROUP        1 X    ALC  0     ROOT ALC X 1
     2 SEC2       26 GROUP        1 X    SEC  0     **** SEC X 2
     3 LYC4       32 GROUP        1 X    LYC  0     **** LYC X 4
     4 GLC5        1 GROUP        1 X    GLC  0     **** GLC X 6
     5 ALP1       19 GROUP        1 Y    ALP  0     ROOT ALP Y 8
     6 SEP2       28 GROUP        1 Y    SEP  0     **** SEP Y 9
     7 LYP4       34 GROUP        1 Y    LYP  0     **** LYP Y 11
     8 GLP5        3 GROUP        1 Y    GLP  0     **** GLP Y 13
     9 ALL1       18 GROUP        1 Z    ALL  0     ROOT ALL Z 15
    10 SEL2       27 GROUP        1 Z    SEL  0     **** SEL Z 16
    11 LYL4       33 GROUP        1 Z    LYL  0     **** LYL Z 18
    12 GLL5        2 GROUP        1 Z    GLL  0     **** GLL Z 20
@<TRIPOS>SET

