#    Name: 2ji8_FYN_2_ligand
#    Modification time : Tue Mar 25 20:52:28 2014

@<TRIPOS>MOLECULE
2ji8_FYN_2_ligand
   82    84     1     0     0
SMALL
NO_CHARGES


@<TRIPOS>ATOM
      1 C8         39.1660   23.1470    2.4290 C.2       1 FYN1566     0.0000 
      2 N9         37.8930   23.0010    2.8440 N.pl3     1 FYN1566     0.0000 
      3 C4         37.7670   23.5800    4.0390 C.ar      1 FYN1566     0.0000 
      4 C5         39.0010   24.1190    4.3830 C.ar      1 FYN1566     0.0000 
      5 N7         39.8560   23.8370    3.3690 N.2       1 FYN1566     0.0000 
      6 N3         36.7080   23.7130    4.8790 N.ar      1 FYN1566     0.0000 
      7 C2         36.8490   24.3630    6.0440 C.ar      1 FYN1566     0.0000 
      8 N1         38.0310   24.8920    6.4080 N.ar      1 FYN1566     0.0000 
      9 C6         39.1170   24.7860    5.6070 C.ar      1 FYN1566     0.0000 
     10 N6         40.2920   25.3300    6.0020 N.pl3     1 FYN1566     0.0000 
     11 C1'        36.7610   22.3150    2.1590 C.3       1 FYN1566     0.0000 
     12 C2'        36.6620   22.5990    0.6650 C.3       1 FYN1566     0.0000 
     13 O2'        35.8240   23.7260    0.3890 O.3       1 FYN1566     0.0000 
     14 C3'        36.0670   21.3140    0.1310 C.3       1 FYN1566     0.0000 
     15 O3'        34.6400   21.3610    0.1950 O.3       1 FYN1566     0.0000 
     16 C4'        36.5760   20.2390    1.0780 C.3       1 FYN1566     0.0000 
     17 O4'        36.8790   20.8940    2.3100 O.3       1 FYN1566     0.0000 
     18 C5'        37.8260   19.5380    0.5610 C.3       1 FYN1566     0.0000 
     19 O5'        38.8000   20.5070    0.1660 O.3       1 FYN1566     0.0000 
     20 P1         39.9020   20.1830   -0.9590 P.3       1 FYN1566     0.0000 
     21 O11        40.6340   18.9610   -0.4620 O.co2     1 FYN1566     0.0000 
     22 O12        40.6370   21.4650   -1.2800 O.co2     1 FYN1566     0.0000 
     23 O6         38.9770   19.8460   -2.2390 O.3       1 FYN1566     0.0000 
     24 P2         38.7250   18.3910   -2.8920 P.3       1 FYN1566     0.0000 
     25 O21        37.2980   18.3850   -3.3800 O.co2     1 FYN1566     0.0000 
     26 O22        39.2130   17.2860   -1.9870 O.co2     1 FYN1566     0.0000 
     27 O7         39.6950   18.4010   -4.1770 O.3       1 FYN1566     0.0000 
     28 CPB        39.7530   17.2620   -5.0400 C.3       1 FYN1566     0.0000 
     29 CPA        41.1720   16.7020   -5.1300 C.3       1 FYN1566     0.0000 
     30 CP7        41.6710   16.3340   -3.7270 C.3       1 FYN1566     0.0000 
     31 CP9        41.1590   15.4640   -6.0240 C.3       1 FYN1566     0.0000 
     32 CP8        42.0980   17.7580   -5.7200 C.3       1 FYN1566     0.0000 
     33 OP3        40.7830   15.3900   -3.0990 O.3       1 FYN1566     0.0000 
     34 CP6        43.0730   15.7770   -3.7890 C.2       1 FYN1566     0.0000 
     35 OP2        44.0310   16.5290   -3.9200 O.2       1 FYN1566     0.0000 
     36 NP2        43.2110   14.4590   -3.6860 N.am      1 FYN1566     0.0000 
     37 CP5        44.4560   13.7050   -3.7190 C.3       1 FYN1566     0.0000 
     38 CP4        44.1040   12.3870   -3.0530 C.3       1 FYN1566     0.0000 
     39 CP3        45.2200   11.3710   -3.1240 C.2       1 FYN1566     0.0000 
     40 OP1        46.1180   11.4290   -3.9430 O.2       1 FYN1566     0.0000 
     41 NP1        45.1260   10.4050   -2.2230 N.am      1 FYN1566     0.0000 
     42 CP2        46.0020    9.2700   -2.0100 C.3       1 FYN1566     0.0000 
     43 CP1        45.0930    8.2280   -1.3690 C.3       1 FYN1566     0.0000 
     44 S          44.1280    7.4590   -2.6050 S.3       1 FYN1566     0.0000 
     45 P3         33.7060   21.6510   -1.0910 P.3       1 FYN1566     0.0000 
     46 O31        34.0840   20.5680   -2.0790 O.co2     1 FYN1566     0.0000 
     47 O32        32.3020   21.5140   -0.5430 O.co2     1 FYN1566     0.0000 
     48 O33        34.0810   23.0500   -1.5150 O.co2     1 FYN1566     0.0000 
     49 CM1        42.8660    6.7880   -1.6090 C.2       1 FYN1566     0.0000 
     50 OM2        42.2250    5.8220   -2.0390 O.2       1 FYN1566     0.0000 
     51 H          39.5322   22.8153    1.5969 H         1 FYN1566     0.0000 
     52 H          36.0211   24.4617    6.6857 H         1 FYN1566     0.0000 
     53 H          40.2847   26.3147    6.1757 H         1 FYN1566     0.0000 
     54 H          41.0633   24.6989    6.0851 H         1 FYN1566     0.0000 
     55 H          35.8175   22.6411    2.6137 H         1 FYN1566     0.0000 
     56 H          37.6493   22.6926    0.2828 H         1 FYN1566     0.0000 
     57 H          36.4438   21.1269   -0.8317 H         1 FYN1566     0.0000 
     58 H          35.7965   19.5117    1.2201 H         1 FYN1566     0.0000 
     59 H          37.5295   18.8967   -0.2784 H         1 FYN1566     0.0000 
     60 H          38.2026   18.8882    1.3608 H         1 FYN1566     0.0000 
     61 H          39.4278   17.5127   -6.0635 H         1 FYN1566     0.0000 
     62 H          39.0962   16.4508   -4.6842 H         1 FYN1566     0.0000 
     63 H          41.7052   17.2602   -3.1436 H         1 FYN1566     0.0000 
     64 H          42.3363   13.8404   -3.5636 H         1 FYN1566     0.0000 
     65 H          45.2225   14.1884   -3.1489 H         1 FYN1566     0.0000 
     66 H          44.7716   13.5130   -4.7238 H         1 FYN1566     0.0000 
     67 H          43.2039   11.9721   -3.5333 H         1 FYN1566     0.0000 
     68 H          43.8507   12.5753   -1.9978 H         1 FYN1566     0.0000 
     69 H          44.2862   10.4266   -1.5215 H         1 FYN1566     0.0000 
     70 H          46.7925    9.5017   -1.3275 H         1 FYN1566     0.0000 
     71 H          46.3751    8.8783   -2.9329 H         1 FYN1566     0.0000 
     72 H          44.3754    8.6551   -0.7102 H         1 FYN1566     0.0000 
     73 H          45.6326    7.4252   -0.9266 H         1 FYN1566     0.0000 
     74 H          42.8388    7.3285   -0.7567 H         1 FYN1566     0.0000 
     75 H          42.0694   15.0597   -6.1118 H         1 FYN1566     0.0000 
     76 H          40.5557   14.7523   -5.6641 H         1 FYN1566     0.0000 
     77 H          40.8424   15.6767   -6.9484 H         1 FYN1566     0.0000 
     78 H          43.0382   17.4263   -5.7970 H         1 FYN1566     0.0000 
     79 H          41.8090   18.0352   -6.6363 H         1 FYN1566     0.0000 
     80 H          42.1240   18.5849   -5.1582 H         1 FYN1566     0.0000 
     81 H          35.1934   23.4118   -0.3207 H         1 FYN1566     0.0000 
     82 H          40.1005   15.9499   -2.6293 H         1 FYN1566     0.0000 
@<TRIPOS>BOND
     1    2    1 1    
     2    5    1 2    
     3   51    1 1    
     4    3    2 1    
     5   11    2 1    
     6    4    3 ar   
     7    6    3 ar   
     8    5    4 1    
     9    9    4 ar   
    10    7    6 ar   
    11    8    7 ar   
    12   52    7 1    
    13    9    8 ar   
    14   10    9 1    
    15   53   10 1    
    16   54   10 1    
    17   12   11 1    
    18   17   11 1    
    19   55   11 1    
    20   13   12 1    
    21   14   12 1    
    22   56   12 1    
    23   81   13 1    
    24   15   14 1    
    25   16   14 1    
    26   57   14 1    
    27   45   15 1    
    28   17   16 1    
    29   18   16 1    
    30   58   16 1    
    31   19   18 1    
    32   59   18 1    
    33   60   18 1    
    34   20   19 1    
    35   21   20 ar   
    36   22   20 ar   
    37   23   20 1    
    38   24   23 1    
    39   25   24 ar   
    40   26   24 ar   
    41   27   24 1    
    42   28   27 1    
    43   29   28 1    
    44   61   28 1    
    45   62   28 1    
    46   30   29 1    
    47   31   29 1    
    48   32   29 1    
    49   33   30 1    
    50   34   30 1    
    51   63   30 1    
    52   75   31 1    
    53   76   31 1    
    54   77   31 1    
    55   78   32 1    
    56   79   32 1    
    57   80   32 1    
    58   82   33 1    
    59   35   34 2    
    60   36   34 am   
    61   37   36 1    
    62   64   36 1    
    63   38   37 1    
    64   65   37 1    
    65   66   37 1    
    66   39   38 1    
    67   67   38 1    
    68   68   38 1    
    69   40   39 2    
    70   41   39 am   
    71   42   41 1    
    72   69   41 1    
    73   43   42 1    
    74   70   42 1    
    75   71   42 1    
    76   44   43 1    
    77   72   43 1    
    78   73   43 1    
    79   49   44 1    
    80   46   45 ar   
    81   47   45 ar   
    82   48   45 ar   
    83   50   49 2    
    84   74   49 1    
@<TRIPOS>SUBSTRUCTURE
     1 FYN1566     1 GROUP   
@<TRIPOS>SET

