#    Name: 2G1A_2_CAVITY_N1_6.mol2
#    Modification time : Mon Mar 10 13:37:20 2014

@<TRIPOS>MOLECULE
2G1A_2_CAVITY_N1_6.mol2
  127     0     7     0     0
SMALL
NO_CHARGES


@<TRIPOS>ATOM
      1 NZ         43.0739  -15.9401   22.6071 N.2       4 LYS4        0.0000 
      2 NZ         43.5249  -15.0824   21.4621 N.2       4 LYS4        0.0000 
      3 NZ         43.9760  -14.2247   20.3172 N.2       4 LYS4        0.0000 
      4 CA         44.4270  -13.3670   19.1723 C.3       6 GLY6        0.0000 
      5 CZ         44.8780  -12.5093   18.0273 C.ar      5 PHE5        0.0000 
      6 OG         41.6869  -15.3838   22.4775 O.2       1 SER1        0.0000 
      7 OG         42.1380  -14.5261   21.3325 O.2       1 SER1        0.0000 
      8 DU         42.5890  -13.6684   20.1876 H         7 CUB7        0.0000 
      9 CA         43.0400  -12.8107   19.0426 C.3       6 GLY6        0.0000 
     10 CZ         43.4911  -11.9530   17.8977 C.ar      5 PHE5        0.0000 
     11 OG         40.7510  -13.9698   21.2029 O.2       1 SER1        0.0000 
     12 CZ         41.2020  -13.1121   20.0580 C.ar      5 PHE5        0.0000 
     13 CA         41.6531  -12.2543   18.9130 C.3       6 GLY6        0.0000 
     14 CZ         39.8151  -12.5557   19.9284 C.ar      5 PHE5        0.0000 
     15 CZ         40.2661  -11.6980   18.7834 C.ar      5 PHE5        0.0000 
     16 CZ         38.4281  -11.9994   19.7988 C.ar      5 PHE5        0.0000 
     17 CZ         38.8791  -11.1417   18.6538 C.ar      5 PHE5        0.0000 
     18 CA         37.0411  -11.4431   19.6692 C.3       6 GLY6        0.0000 
     19 CA         37.4921  -10.5853   18.5242 C.3       6 GLY6        0.0000 
     20 NZ         47.5854  -16.5115   23.9563 N.2       4 LYS4        0.0000 
     21 OG         43.4245  -14.8425   23.5675 O.2       1 SER1        0.0000 
     22 NZ         43.8755  -13.9848   22.4225 N.2       4 LYS4        0.0000 
     23 NZ         44.3265  -13.1271   21.2776 N.2       4 LYS4        0.0000 
     24 N          44.7775  -12.2694   20.1326 N.2       2 ALA2        0.0000 
     25 N          45.2286  -11.4117   18.9877 N.2       2 ALA2        0.0000 
     26 OG         42.9395  -12.5707   21.1480 O.2       1 SER1        0.0000 
     27 DU         43.3906  -11.7130   20.0030 H         7 CUB7        0.0000 
     28 CZ         43.8416  -10.8553   18.8581 C.ar      5 PHE5        0.0000 
     29 CZ         41.5526  -12.0144   21.0184 C.ar      5 PHE5        0.0000 
     30 CZ         42.0036  -11.1567   19.8734 C.ar      5 PHE5        0.0000 
     31 CZ         42.4546  -10.2990   18.7285 C.ar      5 PHE5        0.0000 
     32 CZ         40.1656  -11.4581   20.8888 C.ar      5 PHE5        0.0000 
     33 CZ         40.6166  -10.6004   19.7438 C.ar      5 PHE5        0.0000 
     34 CZ         39.2297  -10.0440   19.6142 C.ar      5 PHE5        0.0000 
     35 CZ         39.6807   -9.1863   18.4693 C.ar      5 PHE5        0.0000 
     36 CA         37.8427   -9.4877   19.4846 C.3       6 GLY6        0.0000 
     37 CZ         38.2937   -8.6300   18.3396 C.ar      5 PHE5        0.0000 
     38 OG         36.4557   -8.9314   19.3550 O.2       1 SER1        0.0000 
     39 N          47.4849  -16.2716   26.0616 N.2       2 ALA2        0.0000 
     40 N          47.9359  -15.4139   24.9166 N.2       2 ALA2        0.0000 
     41 CA         48.3869  -14.5561   23.7717 C.3       6 GLY6        0.0000 
     42 DU         46.0979  -15.7152   25.9320 H         7 CUB7        0.0000 
     43 NZ         46.5489  -14.8575   24.7870 N.2       4 LYS4        0.0000 
     44 NZ         47.0000  -13.9998   23.6421 N.2       4 LYS4        0.0000 
     45 N          47.4510  -13.1421   22.4971 N.2       2 ALA2        0.0000 
     46 O          44.7109  -15.1589   25.8024 O.2       2 ALA2        0.0000 
     47 NZ         45.1620  -14.3012   24.6574 N.2       4 LYS4        0.0000 
     48 NZ         45.6130  -13.4435   23.5125 N.2       4 LYS4        0.0000 
     49 CA         46.0640  -12.5858   22.3675 C.3       6 GLY6        0.0000 
     50 O          43.3240  -14.6026   25.6728 O.2       2 ALA2        0.0000 
     51 OG         43.7750  -13.7449   24.5278 O.2       1 SER1        0.0000 
     52 OG         44.2260  -12.8871   23.3829 O.2       1 SER1        0.0000 
     53 DU         44.6771  -12.0294   22.2379 H         7 CUB7        0.0000 
     54 CA         45.1281  -11.1717   21.0930 C.3       6 GLY6        0.0000 
     55 OG         42.8391  -12.3308   23.2533 O.2       1 SER1        0.0000 
     56 OG         43.2901  -11.4731   22.1083 O.2       1 SER1        0.0000 
     57 DU         43.7411  -10.6154   20.9634 H         7 CUB7        0.0000 
     58 NZ         44.1921   -9.7577   19.8184 N.2       4 LYS4        0.0000 
     59 CZ         41.9031  -10.9168   21.9787 C.ar      5 PHE5        0.0000 
     60 DU         42.3541  -10.0591   20.8338 H         7 CUB7        0.0000 
     61 NZ         42.8052   -9.2013   19.6888 N.2       4 LYS4        0.0000 
     62 CZ         40.9672   -9.5027   20.7042 C.ar      5 PHE5        0.0000 
     63 CZ         41.4182   -8.6450   19.5592 C.ar      5 PHE5        0.0000 
     64 CA         41.4369  -16.7214   19.4118 C.3       6 GLY6        0.0000 
     65 NZ         38.6630  -15.6087   19.1526 N.2       4 LYS4        0.0000 
     66 NZ         36.8249  -15.9101   20.1680 N.2       4 LYS4        0.0000 
     67 OG         37.7270  -14.1947   17.8781 O.2       1 SER1        0.0000 
     68 NZ         35.4380  -15.3538   20.0383 N.2       4 LYS4        0.0000 
     69 NZ         35.8890  -14.4961   18.8934 N.2       4 LYS4        0.0000 
     70 NZ         43.6254  -15.3224   19.3568 N.2       4 LYS4        0.0000 
     71 CA         44.0765  -14.4647   18.2119 C.3       6 GLY6        0.0000 
     72 OG         41.3364  -16.4815   21.5171 O.2       1 SER1        0.0000 
     73 CA         41.7874  -15.6237   20.3722 C.3       6 GLY6        0.0000 
     74 CA         42.2385  -14.7660   19.2272 C.3       6 GLY6        0.0000 
     75 CA         42.6895  -13.9083   18.0823 C.3       6 GLY6        0.0000 
     76 CA         40.4005  -15.0674   20.2426 C.3       6 GLY6        0.0000 
     77 CZ         39.0135  -14.5111   20.1130 C.ar      5 PHE5        0.0000 
     78 CA         39.4645  -13.6534   18.9680 C.3       6 GLY6        0.0000 
     79 CZ         37.1755  -14.8125   21.1283 C.ar      5 PHE5        0.0000 
     80 CZ         37.6265  -13.9547   19.9834 C.ar      5 PHE5        0.0000 
     81 OG         38.0775  -13.0970   18.8384 O.2       1 SER1        0.0000 
     82 OG         38.5286  -12.2393   17.6935 O.2       1 SER1        0.0000 
     83 CZ         36.2395  -13.3984   19.8538 C.ar      5 PHE5        0.0000 
     84 OG         36.6906  -12.5407   18.7088 O.2       1 SER1        0.0000 
     85 CZ         39.5802   -8.9464   20.5746 C.ar      5 PHE5        0.0000 
     86 CZ         40.0312   -8.0887   19.4296 C.ar      5 PHE5        0.0000 
     87 CA         38.1932   -8.3901   20.4450 C.3       6 GLY6        0.0000 
     88 CZ         38.6442   -7.5323   19.3000 C.ar      5 PHE5        0.0000 
     89 OG         36.8062   -7.8337   20.3154 O.2       1 SER1        0.0000 
     90 OG         37.2573   -6.9760   19.1704 O.2       1 SER1        0.0000 
     91 N          47.8354  -15.1739   27.0219 N.2       2 ALA2        0.0000 
     92 N          48.2865  -14.3162   25.8770 N.2       2 ALA2        0.0000 
     93 OG         48.7375  -13.4585   24.7321 O.2       1 SER1        0.0000 
     94 CA         46.4485  -14.6176   26.8923 C.3       6 GLY6        0.0000 
     95 N          46.8995  -13.7599   25.7474 N.2       2 ALA2        0.0000 
     96 N          47.3505  -12.9022   24.6024 N.2       2 ALA2        0.0000 
     97 CA         47.8015  -12.0445   23.4575 C.3       6 GLY6        0.0000 
     98 O          45.5125  -13.2035   25.6178 O.2       2 ALA2        0.0000 
     99 N          45.9635  -12.3458   24.4728 N.2       2 ALA2        0.0000 
    100 CA         46.4146  -11.4881   23.3279 C.3       6 GLY6        0.0000 
    101 O          44.1255  -12.6472   25.4882 O.2       2 ALA2        0.0000 
    102 N          44.5766  -11.7895   24.3432 N.2       2 ALA2        0.0000 
    103 CA         45.0276  -10.9318   23.1983 C.3       6 GLY6        0.0000 
    104 CA         45.4786  -10.0741   22.0533 C.3       6 GLY6        0.0000 
    105 OG         42.7386  -12.0909   25.3586 O.2       1 SER1        0.0000 
    106 OG         43.1896  -11.2332   24.2136 O.2       1 SER1        0.0000 
    107 DU         43.6406  -10.3755   23.0687 H         7 CUB7        0.0000 
    108 DU         44.0917   -9.5177   21.9237 H         7 CUB7        0.0000 
    109 NZ         44.5427   -8.6600   20.7788 N.2       4 LYS4        0.0000 
    110 CZ         42.2537   -9.8191   22.9391 C.ar      5 PHE5        0.0000 
    111 CA         42.7047   -8.9614   21.7941 C.3       6 GLY6        0.0000 
    112 CZ         40.8667   -9.2628   22.8095 C.ar      5 PHE5        0.0000 
    113 CA         41.3177   -8.4051   21.6645 C.3       6 GLY6        0.0000 
    114 CA         39.9307   -7.8487   21.5349 C.3       6 GLY6        0.0000 
    115 NZ         38.5438   -7.2924   21.4053 N.2       4 LYS4        0.0000 
    116 CA         38.9948   -6.4347   20.2604 C.3       6 GLY6        0.0000 
    117 CA         48.1860  -14.0763   27.9823 C.3       6 GLY6        0.0000 
    118 N          48.6370  -13.2186   26.8374 N.2       2 ALA2        0.0000 
    119 OG         49.0880  -12.3609   25.6924 O.2       1 SER1        0.0000 
    120 N          47.7011  -11.8045   25.5628 N.2       2 ALA2        0.0000 
    121 CA         46.7651  -10.3905   24.2883 C.3       6 GLY6        0.0000 
    122 OD1        45.3781   -9.8341   24.1587 O.3       3 ASP3        0.0000 
    123 O          45.8292   -8.9764   23.0137 O.2       2 ALA2        0.0000 
    124 OG         43.5401  -10.1355   25.1740 O.2       1 SER1        0.0000 
    125 OD1        43.9912   -9.2778   24.0291 O.3       3 ASP3        0.0000 
    126 NZ         44.4422   -8.4201   22.8841 N.2       4 LYS4        0.0000 
    127 OD1        43.0552   -7.8638   22.7545 O.3       3 ASP3        0.0000 
@<TRIPOS>BOND
@<TRIPOS>SUBSTRUCTURE
     1 SER1        6 GROUP   
     2 ALA2       24 GROUP   
     3 ASP3      122 GROUP   
     4 LYS4        1 GROUP   
     5 PHE5        5 GROUP   
     6 GLY6        4 GROUP   
     7 CUB7        8 GROUP   
@<TRIPOS>SET

