#    Name: 2g1a_5HG_2_INTS_M
#    Modification time : Tue Mar 25 13:22:14 2014

@<TRIPOS>MOLECULE
2g1a_5HG_2_INTS_M
   40     0     9     0     0
SMALL
NO_CHARGES


@<TRIPOS>ATOM
      1 NZ         46.7510   -9.4450   24.6900 N.4       2 LYC4        0.0000 
      2 NZ         46.2490  -11.1310   23.7910 N.4       8 LYL4        0.0000 
      3 NZ         47.2530   -7.7590   25.5890 N.4       5 LYP4        0.0000 
      4 NZ         46.5675   -8.1840   24.4430 N.4       2 LYC4        0.0000 
      5 NZ         45.8820   -8.6090   23.2970 N.4       8 LYL4        0.0000 
      6 N          47.0370   -8.7395   22.5730 N.am      1 SEC2        0.0000 
      7 N          45.8820   -8.6090   23.2970 N.am      7 SEL2        0.0000 
      8 N          48.1920   -8.8700   21.8490 N.am      4 SEP2        0.0000 
      9 N          46.5675   -8.1840   24.4430 N.am      1 SEC2        0.0000 
     10 N          47.2530   -7.7590   25.5890 N.am      4 SEP2        0.0000 
     11 N          45.6225   -7.4115   22.5365 N.am      1 SEC2        0.0000 
     12 N          45.3630   -6.2140   21.7760 N.am      4 SEP2        0.0000 
     13 NZ         45.7800   -8.8090   25.1795 N.4       2 LYC4        0.0000 
     14 NZ         44.3070   -9.8590   24.7700 N.4       8 LYL4        0.0000 
     15 CA         46.2840  -10.3015   21.7950 C.3       3 GLC5        0.0000 
     16 CA         44.3350  -10.3240   22.1470 C.3       9 GLL5        0.0000 
     17 CA         48.2330  -10.2790   21.4430 C.3       6 GLP5        0.0000 
     18 CA         41.8115   -8.9835   18.4160 C.3       3 GLC5        0.0000 
     19 CA         41.8140   -9.5760   20.1130 C.3       9 GLL5        0.0000 
     20 CA         41.8090   -8.3910   16.7190 C.3       6 GLP5        0.0000 
     21 CA         40.5965   -7.3460   20.3100 C.3       3 GLC5        0.0000 
     22 CA         39.4320   -9.0220   19.4780 C.3       9 GLL5        0.0000 
     23 CA         41.7610   -5.6700   21.1420 C.3       6 GLP5        0.0000 
     24 CA         39.8720   -6.3680   20.2625 C.3       3 GLC5        0.0000 
     25 CA         37.9830   -7.0660   19.3830 C.3       9 GLL5        0.0000 
     26 CA         36.6800   -6.2845   18.1990 C.3       3 GLC5        0.0000 
     27 CA         35.3770   -5.5030   17.0150 C.3       6 GLP5        0.0000 
     28 CA         37.8470   -7.9255   17.3960 C.3       3 GLC5        0.0000 
     29 CA         37.7110   -8.7850   15.4090 C.3       6 GLP5        0.0000 
     30 N          35.7385   -7.0800   19.0155 N.am      1 SEC2        0.0000 
     31 N          36.9060   -7.8060   18.9160 N.am      7 SEL2        0.0000 
     32 N          34.5710   -6.3540   19.1150 N.am      4 SEP2        0.0000 
     33 CA         36.1945   -7.3250   17.8735 C.3       3 GLC5        0.0000 
     34 CA         37.0120   -9.1470   18.7320 C.3       9 GLL5        0.0000 
     35 CA         41.8455   -7.6638   21.0055 C.3       3 GLC5        0.0000 
     36 CA         40.8065  -10.5048   22.2005 C.3       3 GLC5        0.0000 
     37 CA         39.6830  -11.3520   23.5320 C.3       6 GLP5        0.0000 
     38 CA         37.8261   -9.0374   17.1977 C.3       3 GLC5        0.0000 
     39 CA         37.1266   -9.8289   20.5563 C.3       3 GLC5        0.0000 
     40 CA         36.3120  -10.3680   22.1260 C.3       6 GLP5        0.0000 
@<TRIPOS>BOND
@<TRIPOS>SUBSTRUCTURE
     1 SEC2        6 GROUP        1 X    SEC  0     ROOT SEC X 2
     2 LYC4        1 GROUP        1 X    LYC  0     **** LYC X 4
     3 GLC5       15 GROUP        1 X    GLC  0     **** GLC X 6
     4 SEP2        8 GROUP        1 Y    SEP  0     ROOT SEP Y 9
     5 LYP4        3 GROUP        1 Y    LYP  0     **** LYP Y 11
     6 GLP5       17 GROUP        1 Y    GLP  0     **** GLP Y 13
     7 SEL2        7 GROUP        1 Z    SEL  0     ROOT SEL Z 16
     8 LYL4        2 GROUP        1 Z    LYL  0     **** LYL Z 18
     9 GLL5       16 GROUP        1 Z    GLL  0     **** GLL Z 20
@<TRIPOS>SET

