#    Name: 2g1a_5HG_2_ligand
#    Modification time : Tue Mar 25 13:22:14 2014

@<TRIPOS>MOLECULE
2g1a_5HG_2_ligand
   28    29     1     0     0
SMALL
NO_CHARGES


@<TRIPOS>ATOM
      1 O36        46.2490  -11.1310   23.7910 O.co2     1 5HG701      0.0000 
      2 P30        45.3100   -9.9470   23.6430 P.3       1 5HG701      0.0000 
      3 O32        45.8820   -8.6090   23.2970 O.co2     1 5HG701      0.0000 
      4 O34        44.3070   -9.8590   24.7700 O.co2     1 5HG701      0.0000 
      5 C28        44.3350  -10.3240   22.1470 C.3       1 5HG701      0.0000 
      6 O26        43.3840   -9.2710   21.9390 O.3       1 5HG701      0.0000 
      7 C24        42.0460   -9.7390   21.6250 C.3       1 5HG701      0.0000 
      8 C22        41.8140   -9.5760   20.1130 C.3       1 5HG701      0.0000 
      9 N17        40.4600   -9.8960   19.6460 N.pl3     1 5HG701      0.0000 
     10 C15        40.0530  -11.1420   19.3190 C.2       1 5HG701      0.0000 
     11 N13        38.7520  -11.1190   18.9320 N.2       1 5HG701      0.0000 
     12 C2         38.3090   -9.8430   19.0040 C.ar      1 5HG701      0.0000 
     13 C3         39.4320   -9.0220   19.4780 C.ar      1 5HG701      0.0000 
     14 N4         39.1960   -7.6560   19.6520 N.ar      1 5HG701      0.0000 
     15 C5         37.9830   -7.0660   19.3830 C.ar      1 5HG701      0.0000 
     16 N6         36.9060   -7.8060   18.9160 N.ar      1 5HG701      0.0000 
     17 C1         37.0120   -9.1470   18.7320 C.ar      1 5HG701      0.0000 
     18 N20        35.9790   -9.8960   18.2880 N.pl3     1 5HG701      0.0000 
     19 H          43.9313  -11.2803   22.4080 H         1 5HG701      0.0000 
     20 H          45.1138  -10.4081   21.4175 H         1 5HG701      0.0000 
     21 H          41.2885   -9.1587   22.1456 H         1 5HG701      0.0000 
     22 H          41.9234  -10.7903   21.8723 H         1 5HG701      0.0000 
     23 H          42.5641  -10.2115   19.5881 H         1 5HG701      0.0000 
     24 H          42.0776   -8.5270   19.8444 H         1 5HG701      0.0000 
     25 H          40.6083  -11.9414   19.3544 H         1 5HG701      0.0000 
     26 H          37.8649   -6.0421   19.5313 H         1 5HG701      0.0000 
     27 H          35.8834   -9.9694   17.2953 H         1 5HG701      0.0000 
     28 H          35.4017  -10.3105   18.9915 H         1 5HG701      0.0000 
@<TRIPOS>BOND
     1    2    1 ar   
     2    3    2 ar   
     3    4    2 ar   
     4    5    2 1    
     5    6    5 1    
     6   19    5 1    
     7   20    5 1    
     8    7    6 1    
     9    8    7 1    
    10   21    7 1    
    11   22    7 1    
    12    9    8 1    
    13   23    8 1    
    14   24    8 1    
    15   10    9 1    
    16   13    9 1    
    17   11   10 2    
    18   25   10 1    
    19   12   11 1    
    20   13   12 ar   
    21   17   12 ar   
    22   14   13 ar   
    23   15   14 ar   
    24   16   15 ar   
    25   26   15 1    
    26   17   16 ar   
    27   18   17 1    
    28   27   18 1    
    29   28   18 1    
@<TRIPOS>SUBSTRUCTURE
     1 5HG701      1 GROUP   
@<TRIPOS>SET

