#    Name: 4ix4_ADP_2_INTS_M
#    Modification time : Tue Mar 25 04:51:55 2014

@<TRIPOS>MOLECULE
4ix4_ADP_2_INTS_M
   52     0    12     0     0
SMALL
NO_CHARGES


@<TRIPOS>ATOM
      1 Zn         38.1815   24.6725    9.8705 Zn        3 ZIC7        0.0000 
      2 Zn         38.0910   25.1510   10.9900 Zn       11 ZIL7        0.0000 
      3 Zn         38.2720   24.1940    8.7510 Zn        7 ZIP7        0.0000 
      4 N          37.1275   28.3595   11.3905 N.am      2 SEC2        0.0000 
      5 N          37.5500   27.2050   12.3650 N.am     10 SEL2        0.0000 
      6 N          36.7050   29.5140   10.4160 N.am      6 SEP2        0.0000 
      7 Zn         37.1765   24.2650    9.0050 Zn        3 ZIC7        0.0000 
      8 Zn         36.0810   24.3360    9.2590 Zn       11 ZIL7        0.0000 
      9 N          36.3950   28.0250   10.4855 N.am      2 SEC2        0.0000 
     10 N          36.0850   26.5360   10.5550 N.am     10 SEL2        0.0000 
     11 CA         33.0640   26.3410   10.9980 C.3       4 GLC5        0.0000 
     12 CA         32.8790   24.7690    9.5180 C.3      12 GLL5        0.0000 
     13 CA         33.2490   27.9130   12.4780 C.3       8 GLP5        0.0000 
     14 CA         31.8705   25.8415    8.2120 C.3       4 GLC5        0.0000 
     15 CA         30.8620   26.9140    6.9060 C.3       8 GLP5        0.0000 
     16 CA         30.9065   24.8370    8.5875 C.3       4 GLC5        0.0000 
     17 CA         31.9540   23.8830   10.3280 C.3      12 GLL5        0.0000 
     18 CA         29.8590   25.7910    6.8470 C.3       8 GLP5        0.0000 
     19 CA         32.4245   19.8155   11.5525 C.3       4 GLC5        0.0000 
     20 CA         31.9880   21.5020   10.1710 C.3      12 GLL5        0.0000 
     21 CA         32.8610   18.1290   12.9340 C.3       8 GLP5        0.0000 
     22 CA         29.1905   23.2945    9.5760 C.3       4 GLC5        0.0000 
     23 CA         30.7130   22.0730    9.5630 C.3      12 GLL5        0.0000 
     24 CA         27.6680   24.5160    9.5890 C.3       8 GLP5        0.0000 
     25 CA         29.7870   18.0340    4.2635 C.3       4 GLC5        0.0000 
     26 CA         28.8910   19.2340    5.9400 C.3      12 GLL5        0.0000 
     27 CA         30.6830   16.8340    2.5870 C.3       8 GLP5        0.0000 
     28 CA         26.8175   18.7880    5.7655 C.3       4 GLC5        0.0000 
     29 CA         24.7440   18.3420    5.5910 C.3       8 GLP5        0.0000 
     30 O          27.7340   18.4945    4.0550 O.2       1 ALC1        0.0000 
     31 O          29.0060   18.9060    4.6310 O.2       9 ALL1        0.0000 
     32 O          26.4620   18.0830    3.4790 O.2       5 ALP1        0.0000 
     33 N          27.0580   17.5530    6.4540 N.am      2 SEC2        0.0000 
     34 N          27.9690   18.6720    6.7510 N.am     10 SEL2        0.0000 
     35 N          26.1470   16.4340    6.1570 N.am      6 SEP2        0.0000 
     36 CA         27.1445   20.5800    7.1595 C.3       4 GLC5        0.0000 
     37 CA         27.8480   19.0020    8.0470 C.3      12 GLL5        0.0000 
     38 CA         26.4410   22.1580    6.2720 C.3       8 GLP5        0.0000 
     39 CA         26.2960   18.6720    6.8190 C.3       4 GLC5        0.0000 
     40 CA         29.1645   17.9670    8.3975 C.3       4 GLC5        0.0000 
     41 CA         30.4810   16.9320    8.7480 C.3       8 GLP5        0.0000 
     42 CA         31.7190   19.8920    8.0270 C.3       4 GLC5        0.0000 
     43 CA         29.6060   20.5440    7.9470 C.3      12 GLL5        0.0000 
     44 CA         33.8320   19.2400    8.1070 C.3       8 GLP5        0.0000 
     45 CA         30.8553   25.1645   10.3610 C.3       4 GLC5        0.0000 
     46 CA         29.2940   26.0030   10.7990 C.3       8 GLP5        0.0000 
     47 CA         32.5913   20.5138    8.9870 C.3       4 GLC5        0.0000 
     48 CA         31.0512   18.6750    5.9720 C.3       4 GLC5        0.0000 
     49 CA         32.7580   17.6170    5.7100 C.3       8 GLP5        0.0000 
     50 CA         27.9581   21.1483    6.6813 C.3       4 GLC5        0.0000 
     51 CA         29.7980   20.2320    6.5280 C.3      12 GLL5        0.0000 
     52 CA         29.9781   18.5352    7.9192 C.3       4 GLC5        0.0000 
@<TRIPOS>BOND
@<TRIPOS>SUBSTRUCTURE
     1 ALC1       30 GROUP        1 X    ALC  0     ROOT ALC X 1
     2 SEC2        4 GROUP        1 X    SEC  0     **** SEC X 2
     3 ZIC7        1 GROUP        1 X    ZIC  0     **** ZIC X 5
     4 GLC5       11 GROUP        1 X    GLC  0     **** GLC X 6
     5 ALP1       32 GROUP        1 Y    ALP  0     ROOT ALP Y 8
     6 SEP2        6 GROUP        1 Y    SEP  0     **** SEP Y 9
     7 ZIP7        3 GROUP        1 Y    ZIP  0     **** ZIP Y 12
     8 GLP5       13 GROUP        1 Y    GLP  0     **** GLP Y 13
     9 ALL1       31 GROUP        1 Z    ALL  0     ROOT ALL Z 15
    10 SEL2        5 GROUP        1 Z    SEL  0     **** SEL Z 16
    11 ZIL7        2 GROUP        1 Z    ZIL  0     **** ZIL Z 19
    12 GLL5       12 GROUP        1 Z    GLL  0     **** GLL Z 20
@<TRIPOS>SET

