#    Name: 4ix4_ADP_2_ligand
#    Modification time : Tue Mar 25 04:51:56 2014

@<TRIPOS>MOLECULE
4ix4_ADP_2_ligand
   39    41     1     0     0
SMALL
NO_CHARGES


@<TRIPOS>ATOM
      1 PB         37.0330   25.9390   11.7150 P.3       1 ADP601      0.0000 
      2 O1B        38.0910   25.1510   10.9900 O.co2     1 ADP601      0.0000 
      3 O2B        36.1280   25.1010   12.5890 O.co2     1 ADP601      0.0000 
      4 O3B        37.5500   27.2050   12.3650 O.co2     1 ADP601      0.0000 
      5 PA         35.3050   25.6110    9.5000 P.3       1 ADP601      0.0000 
      6 O1A        36.0810   24.3360    9.2590 O.co2     1 ADP601      0.0000 
      7 O2A        34.8520   26.4740    8.3400 O.co2     1 ADP601      0.0000 
      8 O3A        36.0850   26.5360   10.5550 O.3       1 ADP601      0.0000 
      9 O5'        33.9890   25.1570   10.3020 O.3       1 ADP601      0.0000 
     10 C5'        32.8790   24.7690    9.5180 C.3       1 ADP601      0.0000 
     11 C4'        31.9540   23.8830   10.3280 C.3       1 ADP601      0.0000 
     12 O4'        30.9570   23.4620    9.4050 O.3       1 ADP601      0.0000 
     13 C3'        32.6420   22.6500   10.8930 C.3       1 ADP601      0.0000 
     14 O3'        32.3520   22.5030   12.2860 O.3       1 ADP601      0.0000 
     15 C2'        31.9880   21.5020   10.1710 C.3       1 ADP601      0.0000 
     16 O2'        31.7140   20.4120   11.0550 O.3       1 ADP601      0.0000 
     17 C1'        30.7130   22.0730    9.5630 C.3       1 ADP601      0.0000 
     18 N9         30.5180   21.4710    8.2330 N.pl3     1 ADP601      0.0000 
     19 C8         31.2420   21.7440    7.1310 C.2       1 ADP601      0.0000 
     20 N7         30.8150   20.9930    6.0840 N.2       1 ADP601      0.0000 
     21 C5         29.7980   20.2320    6.5280 C.ar      1 ADP601      0.0000 
     22 C6         28.8910   19.2340    5.9400 C.ar      1 ADP601      0.0000 
     23 N6         29.0060   18.9060    4.6310 N.pl3     1 ADP601      0.0000 
     24 N1         27.9690   18.6720    6.7510 N.ar      1 ADP601      0.0000 
     25 C2         27.8480   19.0020    8.0470 C.ar      1 ADP601      0.0000 
     26 N3         28.6380   19.9140    8.6510 N.ar      1 ADP601      0.0000 
     27 C4         29.6060   20.5440    7.9470 C.ar      1 ADP601      0.0000 
     28 H          33.1852   24.2060    8.6232 H         1 ADP601      0.0000 
     29 H          32.2964   25.6369    9.1734 H         1 ADP601      0.0000 
     30 H          31.5239   24.4547   11.1166 H         1 ADP601      0.0000 
     31 H          33.6576   22.6733   10.6668 H         1 ADP601      0.0000 
     32 H          32.6338   21.2120    9.3547 H         1 ADP601      0.0000 
     33 H          29.9084   21.8725   10.2019 H         1 ADP601      0.0000 
     34 H          31.9737   22.3912    7.0851 H         1 ADP601      0.0000 
     35 H          28.1645   18.6177    4.1740 H         1 ADP601      0.0000 
     36 H          29.9222   18.9811    4.2374 H         1 ADP601      0.0000 
     37 H          27.0951   18.5237    8.6269 H         1 ADP601      0.0000 
     38 H          31.7885   21.6792   12.3474 H         1 ADP601      0.0000 
     39 H          30.7424   20.2131   10.9270 H         1 ADP601      0.0000 
@<TRIPOS>BOND
     1    2    1 ar   
     2    3    1 ar   
     3    4    1 ar   
     4    8    1 1    
     5    6    5 ar   
     6    7    5 ar   
     7    8    5 1    
     8    9    5 1    
     9   10    9 1    
    10   11   10 1    
    11   28   10 1    
    12   29   10 1    
    13   12   11 1    
    14   13   11 1    
    15   30   11 1    
    16   17   12 1    
    17   14   13 1    
    18   15   13 1    
    19   31   13 1    
    20   38   14 1    
    21   16   15 1    
    22   17   15 1    
    23   32   15 1    
    24   39   16 1    
    25   18   17 1    
    26   33   17 1    
    27   19   18 1    
    28   27   18 1    
    29   20   19 2    
    30   34   19 1    
    31   21   20 1    
    32   22   21 ar   
    33   27   21 ar   
    34   23   22 1    
    35   24   22 ar   
    36   35   23 1    
    37   36   23 1    
    38   25   24 ar   
    39   26   25 ar   
    40   37   25 1    
    41   27   26 ar   
@<TRIPOS>SUBSTRUCTURE
     1 ADP601      1 GROUP   
@<TRIPOS>SET

