#    Name: 2gej_GDD_1_INTS_M
#    Modification time : Tue Mar 25 14:03:09 2014

@<TRIPOS>MOLECULE
2gej_GDD_1_INTS_M
   80     0    12     0     0
SMALL
NO_CHARGES


@<TRIPOS>ATOM
      1 O           3.8370   51.9395   29.7295 O.2       1 ALC1        0.0000 
      2 O           3.8970   50.7450   29.0900 O.2       9 ALL1        0.0000 
      3 O           3.7770   53.1340   30.3690 O.2       5 ALP1        0.0000 
      4 O           4.4420   50.0590   28.0795 O.2       1 ALC1        0.0000 
      5 O           4.9870   49.3730   27.0690 O.2       5 ALP1        0.0000 
      6 O           2.9425   52.0605   30.4240 O.2       1 ALC1        0.0000 
      7 O           2.1080   50.9870   30.4790 O.2       9 ALL1        0.0000 
      8 CA          3.0740   48.0470   30.1830 C.3       4 GLC5        0.0000 
      9 CA          1.1770   48.5670   29.6750 C.3      12 GLL5        0.0000 
     10 CA          4.9710   47.5270   30.6910 C.3       8 GLP5        0.0000 
     11 N           3.6120   46.1565   29.0010 N.am      2 SEC2        0.0000 
     12 N           2.5580   45.2820   29.7140 N.am     10 SEL2        0.0000 
     13 N           4.6660   47.0310   28.2880 N.am      6 SEP2        0.0000 
     14 O           3.3315   44.2605   30.1075 O.2       1 ALC1        0.0000 
     15 O           2.5580   45.2820   29.7140 O.2       9 ALL1        0.0000 
     16 O           4.1050   43.2390   30.5010 O.2       5 ALP1        0.0000 
     17 O           3.2180   43.7400   27.8140 O.2       1 ALC1        0.0000 
     18 O           2.0160   43.9440   27.3050 O.2       9 ALL1        0.0000 
     19 O           4.4200   43.5360   28.3230 O.2       5 ALP1        0.0000 
     20 NZ         -4.7935   43.1575   31.5265 N.4       3 LYC4        0.0000 
     21 NZ         -3.1420   43.4550   31.2510 N.4      11 LYL4        0.0000 
     22 NZ         -6.4450   42.8600   31.8020 N.4       7 LYP4        0.0000 
     23 N          -4.7935   43.1575   31.5265 N.am      2 SEC2        0.0000 
     24 N          -3.1420   43.4550   31.2510 N.am     10 SEL2        0.0000 
     25 N          -6.4450   42.8600   31.8020 N.am      6 SEP2        0.0000 
     26 NZ         -7.1700   44.9680   29.6390 N.4       3 LYC4        0.0000 
     27 NZ         -6.3190   44.1200   29.4230 N.4      11 LYL4        0.0000 
     28 NZ         -7.4570   47.0180   29.9850 N.4       7 LYP4        0.0000 
     29 NZ         -6.3820   43.4900   30.6125 N.4       3 LYC4        0.0000 
     30 N          -7.1700   44.9680   29.6390 N.am      2 SEC2        0.0000 
     31 N          -6.3190   44.1200   29.4230 N.am     10 SEL2        0.0000 
     32 N          -8.0210   45.8160   29.8550 N.am      6 SEP2        0.0000 
     33 N          -6.3820   43.4900   30.6125 N.am      2 SEC2        0.0000 
     34 N          -4.0455   44.5195   26.1745 N.am      2 SEC2        0.0000 
     35 N          -4.9920   44.5010   27.1840 N.am     10 SEL2        0.0000 
     36 N          -3.0990   44.5380   25.1650 N.am      6 SEP2        0.0000 
     37 CA         -3.9090   42.4460   25.5940 C.3       4 GLC5        0.0000 
     38 CA         -5.3770   41.4960   26.5960 C.3      12 GLL5        0.0000 
     39 CA         -2.4410   43.3960   24.5920 C.3       8 GLP5        0.0000 
     40 CA         -0.6940   40.1990   27.8200 C.3       4 GLC5        0.0000 
     41 CA         -2.4510   39.9310   28.0760 C.3      12 GLL5        0.0000 
     42 CA          1.0630   40.4670   27.5640 C.3       8 GLP5        0.0000 
     43 N          -0.9970   38.2195   28.2885 N.am      2 SEC2        0.0000 
     44 N          -2.1020   38.7740   27.3930 N.am     10 SEL2        0.0000 
     45 N           0.1080   37.6650   29.1840 N.am      6 SEP2        0.0000 
     46 O          -2.3945   37.6560   28.2650 O.2       1 ALC1        0.0000 
     47 O          -2.1020   38.7740   27.3930 O.2       9 ALL1        0.0000 
     48 O          -2.6870   36.5380   29.1370 O.2       5 ALP1        0.0000 
     49 CA         -8.0370   39.7645   25.1500 C.3       4 GLC5        0.0000 
     50 CA         -6.3110   40.3110   26.2860 C.3      12 GLL5        0.0000 
     51 CA         -9.7630   39.2180   24.0140 C.3       8 GLP5        0.0000 
     52 CA         -6.9460   37.9790   28.9475 C.3       4 GLC5        0.0000 
     53 CA         -6.2710   39.2660   27.3780 C.3      12 GLL5        0.0000 
     54 CA         -7.6210   36.6920   30.5170 C.3       8 GLP5        0.0000 
     55 N          -7.1110   36.8980   27.7030 N.am      2 SEC2        0.0000 
     56 N          -7.1340   38.1450   27.0260 N.am     10 SEL2        0.0000 
     57 N          -7.0880   35.6510   28.3800 N.am      6 SEP2        0.0000 
     58 CA         -3.7385   37.0620   26.9310 C.3       4 GLC5        0.0000 
     59 CA         -4.7770   38.8280   27.6260 C.3      12 GLL5        0.0000 
     60 CA         -2.7000   35.2960   26.2360 C.3       8 GLP5        0.0000 
     61 N          -4.6175   36.3625   28.2385 N.am      2 SEC2        0.0000 
     62 N          -4.7000   37.8280   28.6650 N.am     10 SEL2        0.0000 
     63 N          -4.5350   34.8970   27.8120 N.am      6 SEP2        0.0000 
     64 O          -5.1900   38.5160   29.6015 O.2       1 ALC1        0.0000 
     65 O          -4.7000   37.8280   28.6650 O.2       9 ALL1        0.0000 
     66 O          -5.6800   39.2040   30.5380 O.2       5 ALP1        0.0000 
     67 CA         -0.1285   49.7270   28.7780 C.3       4 GLC5        0.0000 
     68 CA         -1.0560   50.5140   27.4240 C.3       8 GLP5        0.0000 
     69 CA          0.7790   47.8660   31.9195 C.3       4 GLC5        0.0000 
     70 CA          0.4210   49.3130   30.5890 C.3      12 GLL5        0.0000 
     71 CA          0.7590   46.7920   33.7070 C.3       8 GLP5        0.0000 
     72 CA          0.7270   43.4107   30.3605 C.3       4 GLC5        0.0000 
     73 CA          1.1970   45.1680   29.3470 C.3      12 GLL5        0.0000 
     74 CA          0.3850   42.1870   31.9170 C.3       8 GLP5        0.0000 
     75 CA         -2.1195   45.6045   26.6303 C.3       4 GLC5        0.0000 
     76 CA         -0.2680   44.7010   27.4790 C.3      12 GLL5        0.0000 
     77 CA         -3.3350   46.8950   25.6190 C.3       8 GLP5        0.0000 
     78 CA         -1.6725   43.8550   26.1167 C.3       4 GLC5        0.0000 
     79 CA         -1.5400   43.9270   27.8040 C.3      12 GLL5        0.0000 
     80 CA          0.2306   42.3155   27.7005 C.3       4 GLC5        0.0000 
@<TRIPOS>BOND
@<TRIPOS>SUBSTRUCTURE
     1 ALC1        1 GROUP        1 X    ALC  0     ROOT ALC X 1
     2 SEC2       11 GROUP        1 X    SEC  0     **** SEC X 2
     3 LYC4       20 GROUP        1 X    LYC  0     **** LYC X 4
     4 GLC5        8 GROUP        1 X    GLC  0     **** GLC X 6
     5 ALP1        3 GROUP        1 Y    ALP  0     ROOT ALP Y 8
     6 SEP2       13 GROUP        1 Y    SEP  0     **** SEP Y 9
     7 LYP4       22 GROUP        1 Y    LYP  0     **** LYP Y 11
     8 GLP5       10 GROUP        1 Y    GLP  0     **** GLP Y 13
     9 ALL1        2 GROUP        1 Z    ALL  0     ROOT ALL Z 15
    10 SEL2       12 GROUP        1 Z    SEL  0     **** SEL Z 16
    11 LYL4       21 GROUP        1 Z    LYL  0     **** LYL Z 18
    12 GLL5        9 GROUP        1 Z    GLL  0     **** GLL Z 20
@<TRIPOS>SET

