#    Name: 2gej_GDD_1_ligand
#    Modification time : Tue Mar 25 14:03:09 2014

@<TRIPOS>MOLECULE
2gej_GDD_1_ligand
   62    65     1     0     0
SMALL
NO_CHARGES


@<TRIPOS>ATOM
      1 N2          3.8970   50.7450   29.0900 N.pl3     1 GDD2567     0.0000 
      2 C2          2.7850   50.2180   29.5620 C.2       1 GDD2567     0.0000 
      3 N1          2.1080   50.9870   30.4790 N.am      1 GDD2567     0.0000 
      4 N3          2.3400   49.0060   29.1880 N.2       1 GDD2567     0.0000 
      5 C4          1.1770   48.5670   29.6750 C.2       1 GDD2567     0.0000 
      6 C5          0.4210   49.3130   30.5890 C.2       1 GDD2567     0.0000 
      7 C6          0.8950   50.5660   31.0030 C.2       1 GDD2567     0.0000 
      8 O6          0.2980   51.3090   31.8090 O.2       1 GDD2567     0.0000 
      9 N7         -0.6790   48.5960   30.9040 N.2       1 GDD2567     0.0000 
     10 C8         -0.6290   47.4460   30.2110 C.2       1 GDD2567     0.0000 
     11 N9          0.5100   47.4330   29.4740 N.pl3     1 GDD2567     0.0000 
     12 C1'         0.9030   46.3890   28.5600 C.3       1 GDD2567     0.0000 
     13 C2'         1.1970   45.1680   29.3470 C.3       1 GDD2567     0.0000 
     14 O2'         2.5580   45.2820   29.7140 O.3       1 GDD2567     0.0000 
     15 C3'         0.9410   44.1010   28.2610 C.3       1 GDD2567     0.0000 
     16 O3'         2.0160   43.9440   27.3050 O.3       1 GDD2567     0.0000 
     17 C4'        -0.2680   44.7010   27.4790 C.3       1 GDD2567     0.0000 
     18 O4'        -0.3730   46.0720   27.9330 O.3       1 GDD2567     0.0000 
     19 C5'        -1.5400   43.9270   27.8040 C.3       1 GDD2567     0.0000 
     20 O5'        -1.6910   43.7040   29.1710 O.3       1 GDD2567     0.0000 
     21 PA         -3.0770   44.0560   29.8520 P.3       1 GDD2567     0.0000 
     22 O1A        -3.1420   43.4550   31.2510 O.co2     1 GDD2567     0.0000 
     23 O2A        -3.3660   45.5330   29.8420 O.co2     1 GDD2567     0.0000 
     24 O3A        -4.0670   43.0490   29.0530 O.3       1 GDD2567     0.0000 
     25 PB         -5.3360   43.5260   28.2250 P.3       1 GDD2567     0.0000 
     26 O2B        -6.3190   44.1200   29.4230 O.co2     1 GDD2567     0.0000 
     27 O3B        -4.9920   44.5010   27.1840 O.co2     1 GDD2567     0.0000 
     28 O1B        -5.9630   42.1740   27.6880 O.3       1 GDD2567     0.0000 
     29 C11        -5.3770   41.4960   26.5960 C.3       1 GDD2567     0.0000 
     30 O51        -4.0130   41.1410   27.0330 O.3       1 GDD2567     0.0000 
     31 C51        -3.9440   40.0680   28.0260 C.3       1 GDD2567     0.0000 
     32 C61        -2.4510   39.9310   28.0760 C.3       1 GDD2567     0.0000 
     33 O6A        -2.1020   38.7740   27.3930 O.3       1 GDD2567     0.0000 
     34 C21        -6.3110   40.3110   26.2860 C.3       1 GDD2567     0.0000 
     35 O21        -5.8500   39.6130   25.1620 O.3       1 GDD2567     0.0000 
     36 C31        -6.2710   39.2660   27.3780 C.3       1 GDD2567     0.0000 
     37 O31        -7.1340   38.1450   27.0260 O.3       1 GDD2567     0.0000 
     38 C41        -4.7770   38.8280   27.6260 C.3       1 GDD2567     0.0000 
     39 O41        -4.7000   37.8280   28.6650 O.3       1 GDD2567     0.0000 
     40 H           4.1336   51.6539   29.4335 H         1 GDD2567     0.0000 
     41 H           4.4029   50.1880   28.4314 H         1 GDD2567     0.0000 
     42 H           2.5054   51.8948   30.7862 H         1 GDD2567     0.0000 
     43 H          -1.2902   46.7409   30.2292 H         1 GDD2567     0.0000 
     44 H           1.6101   46.6369   27.9067 H         1 GDD2567     0.0000 
     45 H           0.5190   45.0683   30.1056 H         1 GDD2567     0.0000 
     46 H           0.6154   43.2139   28.7031 H         1 GDD2567     0.0000 
     47 H          -0.0501   44.6447   26.4475 H         1 GDD2567     0.0000 
     48 H          -1.4998   42.9782   27.2253 H         1 GDD2567     0.0000 
     49 H          -2.3893   44.5033   27.3758 H         1 GDD2567     0.0000 
     50 H          -5.3452   42.1396   25.7393 H         1 GDD2567     0.0000 
     51 H          -4.2775   40.4672   28.9688 H         1 GDD2567     0.0000 
     52 H          -2.1492   39.9034   29.1305 H         1 GDD2567     0.0000 
     53 H          -2.0137   40.8317   27.6272 H         1 GDD2567     0.0000 
     54 H          -7.3037   40.6520   26.1690 H         1 GDD2567     0.0000 
     55 H          -6.6145   39.7355   28.3009 H         1 GDD2567     0.0000 
     56 H          -4.3932   38.4595   26.6901 H         1 GDD2567     0.0000 
     57 H           2.8332   44.3574   29.9776 H         1 GDD2567     0.0000 
     58 H           2.8379   43.8126   27.8592 H         1 GDD2567     0.0000 
     59 H          -2.7228   38.0712   27.7405 H         1 GDD2567     0.0000 
     60 H          -5.9930   38.6476   25.3803 H         1 GDD2567     0.0000 
     61 H          -8.0335   38.3866   27.3902 H         1 GDD2567     0.0000 
     62 H          -4.9275   38.3138   29.5090 H         1 GDD2567     0.0000 
@<TRIPOS>BOND
     1    2    1 1    
     2   40    1 1    
     3   41    1 1    
     4    3    2 1    
     5    4    2 2    
     6    7    3 am   
     7   42    3 1    
     8    5    4 1    
     9    6    5 2    
    10   11    5 1    
    11    7    6 1    
    12    9    6 1    
    13    8    7 2    
    14   10    9 2    
    15   11   10 1    
    16   43   10 1    
    17   12   11 1    
    18   13   12 1    
    19   18   12 1    
    20   44   12 1    
    21   14   13 1    
    22   15   13 1    
    23   45   13 1    
    24   57   14 1    
    25   16   15 1    
    26   17   15 1    
    27   46   15 1    
    28   58   16 1    
    29   18   17 1    
    30   19   17 1    
    31   47   17 1    
    32   20   19 1    
    33   48   19 1    
    34   49   19 1    
    35   21   20 1    
    36   22   21 ar   
    37   23   21 ar   
    38   24   21 1    
    39   25   24 1    
    40   26   25 ar   
    41   27   25 ar   
    42   28   25 1    
    43   29   28 1    
    44   30   29 1    
    45   34   29 1    
    46   50   29 1    
    47   31   30 1    
    48   32   31 1    
    49   38   31 1    
    50   51   31 1    
    51   33   32 1    
    52   52   32 1    
    53   53   32 1    
    54   59   33 1    
    55   35   34 1    
    56   36   34 1    
    57   54   34 1    
    58   60   35 1    
    59   37   36 1    
    60   38   36 1    
    61   55   36 1    
    62   61   37 1    
    63   39   38 1    
    64   56   38 1    
    65   62   39 1    
@<TRIPOS>SUBSTRUCTURE
     1 GDD2567     1 GROUP   
@<TRIPOS>SET

