#    Name: 2vtd_LKM_1_INTS_M
#    Modification time : Tue Mar 25 02:53:36 2014

@<TRIPOS>MOLECULE
2vtd_LKM_1_INTS_M
   58     0     9     0     0
SMALL
NO_CHARGES


@<TRIPOS>ATOM
      1 N          -2.7395  -10.7985  -22.4260 N.am      1 SEC2        0.0000 
      2 N          -1.5900  -11.2160  -21.1870 N.am      7 SEL2        0.0000 
      3 N          -3.8890  -10.3810  -23.6650 N.am      4 SEP2        0.0000 
      4 CA         -3.2670  -11.1510  -21.4300 C.3       3 GLC5        0.0000 
      5 CA         -1.4950  -12.3550  -21.2760 C.3       9 GLL5        0.0000 
      6 CA         -5.0390   -9.9470  -21.5840 C.3       6 GLP5        0.0000 
      7 CA          0.5520  -11.9955  -20.8905 C.3       3 GLC5        0.0000 
      8 CA          2.5990  -11.6360  -20.5050 C.3       6 GLP5        0.0000 
      9 CA         -1.9300  -12.4130  -24.1655 C.3       3 GLC5        0.0000 
     10 CA         -1.5550  -14.0700  -22.7700 C.3       9 GLL5        0.0000 
     11 CA         -2.3050  -10.7560  -25.5610 C.3       6 GLP5        0.0000 
     12 CA         -3.2715  -14.6770  -23.7215 C.3       3 GLC5        0.0000 
     13 CA         -4.9880  -15.2840  -24.6730 C.3       6 GLP5        0.0000 
     14 NZ          6.9320  -26.2700  -20.3380 N.4       2 LYC4        0.0000 
     15 NZ          6.0630  -25.8580  -18.7480 N.4       8 LYL4        0.0000 
     16 NZ          7.8010  -26.6820  -21.9280 N.4       5 LYP4        0.0000 
     17 N           7.1105  -26.6500  -18.9055 N.am      1 SEC2        0.0000 
     18 N           6.0630  -25.8580  -18.7480 N.am      7 SEL2        0.0000 
     19 N           8.1580  -27.4420  -19.0630 N.am      4 SEP2        0.0000 
     20 NZ          6.6415  -26.0420  -21.3590 N.4       2 LYC4        0.0000 
     21 NZ          5.4820  -25.4020  -20.7900 N.4       8 LYL4        0.0000 
     22 N           6.6415  -26.0420  -21.3590 N.am      1 SEC2        0.0000 
     23 N           5.4820  -25.4020  -20.7900 N.am      7 SEL2        0.0000 
     24 N           7.8010  -26.6820  -21.9280 N.am      4 SEP2        0.0000 
     25 CA          3.4880  -28.3595  -19.9050 C.3       3 GLC5        0.0000 
     26 CA          2.5170  -26.4180  -20.0780 C.3       9 GLL5        0.0000 
     27 CA          4.4590  -30.3010  -19.7320 C.3       6 GLP5        0.0000 
     28 CA          3.1875  -26.6035  -21.8685 C.3       3 GLC5        0.0000 
     29 CA          3.8580  -26.7890  -23.6590 C.3       6 GLP5        0.0000 
     30 CA          1.2945  -25.4740  -21.3840 C.3       3 GLC5        0.0000 
     31 CA          0.0720  -24.5300  -22.6900 C.3       6 GLP5        0.0000 
     32 N          -0.4325  -28.3240  -19.1135 N.am      1 SEC2        0.0000 
     33 N           0.5260  -27.2330  -19.0360 N.am      7 SEL2        0.0000 
     34 N          -1.3910  -29.4150  -19.1910 N.am      4 SEP2        0.0000 
     35 N           1.2500  -28.3860  -22.2945 N.am      1 SEC2        0.0000 
     36 N           1.1580  -28.1280  -20.9020 N.am      7 SEL2        0.0000 
     37 N           1.3420  -28.6440  -23.6870 N.am      4 SEP2        0.0000 
     38 N           0.0280  -28.4975  -21.5480 N.am      1 SEC2        0.0000 
     39 N          -1.1020  -28.8670  -22.1940 N.am      4 SEP2        0.0000 
     40 CA         -3.3025  -15.5775  -24.4985 C.3       3 GLC5        0.0000 
     41 CA         -1.6170  -15.8710  -24.3240 C.3       9 GLL5        0.0000 
     42 CA         -2.2291  -12.8901  -19.2919 C.3       3 GLC5        0.0000 
     43 CA         -1.4160  -13.6220  -21.4690 C.3       9 GLL5        0.0000 
     44 CA         -3.1230  -12.0110  -17.6700 C.3       6 GLP5        0.0000 
     45 CA          0.6612  -15.7413  -19.8115 C.3       3 GLC5        0.0000 
     46 CA         -1.2150  -14.5500  -20.4550 C.3       9 GLL5        0.0000 
     47 CA          2.5050  -16.2530  -19.0120 C.3       6 GLP5        0.0000 
     48 CA         -3.1821  -16.5819  -23.0430 C.3       3 GLC5        0.0000 
     49 CA         -1.2900  -16.3250  -22.0780 C.3       9 GLL5        0.0000 
     50 CA         -5.0630  -16.3460  -23.5480 C.3       6 GLP5        0.0000 
     51 CA          0.7988  -21.3032  -21.8885 C.3       3 GLC5        0.0000 
     52 CA          0.3100  -19.1810  -21.1530 C.3       9 GLL5        0.0000 
     53 CA          0.7850  -23.2840  -22.1650 C.3       6 GLP5        0.0000 
     54 CA          0.8798  -21.6200  -20.9155 C.3       3 GLC5        0.0000 
     55 CA          1.5190  -20.3020  -19.4600 C.3       9 GLL5        0.0000 
     56 CA          1.7248  -18.0509  -19.4991 C.3       3 GLC5        0.0000 
     57 CA          1.9231  -22.0626  -21.2873 C.3       3 GLC5        0.0000 
     58 CA          2.4470  -20.1690  -21.6450 C.3       9 GLL5        0.0000 
@<TRIPOS>BOND
@<TRIPOS>SUBSTRUCTURE
     1 SEC2        1 GROUP        1 X    SEC  0     ROOT SEC X 2
     2 LYC4       14 GROUP        1 X    LYC  0     **** LYC X 4
     3 GLC5        4 GROUP        1 X    GLC  0     **** GLC X 6
     4 SEP2        3 GROUP        1 Y    SEP  0     ROOT SEP Y 9
     5 LYP4       16 GROUP        1 Y    LYP  0     **** LYP Y 11
     6 GLP5        6 GROUP        1 Y    GLP  0     **** GLP Y 13
     7 SEL2        2 GROUP        1 Z    SEL  0     ROOT SEL Z 16
     8 LYL4       15 GROUP        1 Z    LYL  0     **** LYL Z 18
     9 GLL5        5 GROUP        1 Z    GLL  0     **** GLL Z 20
@<TRIPOS>SET

