#    Name: 2vtd_LKM_1_ligand
#    Modification time : Tue Mar 25 02:53:36 2014

@<TRIPOS>MOLECULE
2vtd_LKM_1_ligand
   51    53     1     0     0
SMALL
NO_CHARGES


@<TRIPOS>ATOM
      1 N31        -1.5900  -11.2160  -21.1870 N.1       1 LKM1441     0.0000 
      2 C30        -1.4950  -12.3550  -21.2760 C.1       1 LKM1441     0.0000 
      3 C27        -1.4160  -13.6220  -21.4690 C.ar      1 LKM1441     0.0000 
      4 C28        -1.2150  -14.5500  -20.4550 C.ar      1 LKM1441     0.0000 
      5 C29        -1.1500  -15.9090  -20.7670 C.ar      1 LKM1441     0.0000 
      6 C26        -1.5550  -14.0700  -22.7700 C.ar      1 LKM1441     0.0000 
      7 C25        -1.4890  -15.4200  -23.0720 C.ar      1 LKM1441     0.0000 
      8 C24        -1.2900  -16.3250  -22.0780 C.ar      1 LKM1441     0.0000 
      9 C23        -1.2130  -17.7630  -22.5010 C.3       1 LKM1441     0.0000 
     10 O22        -0.8630  -18.5110  -21.3670 O.3       1 LKM1441     0.0000 
     11 C20         0.3100  -19.1810  -21.1530 C.ar      1 LKM1441     0.0000 
     12 C19         1.3150  -19.4640  -22.0710 C.ar      1 LKM1441     0.0000 
     13 C18         2.4470  -20.1690  -21.6450 C.ar      1 LKM1441     0.0000 
     14 C21         0.4300  -19.6100  -19.8720 C.ar      1 LKM1441     0.0000 
     15 C15         1.5190  -20.3020  -19.4600 C.ar      1 LKM1441     0.0000 
     16 C16         2.5460  -20.5900  -20.3250 C.ar      1 LKM1441     0.0000 
     17 C17         3.6260  -21.3030  -19.8340 C.ar      1 LKM1441     0.0000 
     18 C14         1.5310  -20.6730  -18.1430 C.ar      1 LKM1441     0.0000 
     19 C13         2.5950  -21.3770  -17.6690 C.ar      1 LKM1441     0.0000 
     20 C12         3.6390  -21.6820  -18.5060 C.ar      1 LKM1441     0.0000 
     21 S11         4.7910  -22.5280  -17.8700 S.o2      1 LKM1441     0.0000 
     22 O33         5.9870  -22.3960  -18.6830 O.2       1 LKM1441     0.0000 
     23 O32         5.0190  -22.1950  -16.4800 O.2       1 LKM1441     0.0000 
     24 N           4.2670  -23.9470  -17.8430 N.pl3     1 LKM1441     0.0000 
     25 CA          4.0370  -24.7010  -19.0730 C.3       1 LKM1441     0.0000 
     26 C           5.2890  -25.3680  -19.5690 C.2       1 LKM1441     0.0000 
     27 O           6.0630  -25.8580  -18.7480 O.co2     1 LKM1441     0.0000 
     28 OXT         5.4820  -25.4020  -20.7900 O.co2     1 LKM1441     0.0000 
     29 CB          2.9370  -25.7340  -18.7930 C.3       1 LKM1441     0.0000 
     30 CG          2.5170  -26.4180  -20.0780 C.3       1 LKM1441     0.0000 
     31 CD          1.3070  -27.3160  -19.9840 C.2       1 LKM1441     0.0000 
     32 OE1         0.5260  -27.2330  -19.0360 O.co2     1 LKM1441     0.0000 
     33 OE2         1.1580  -28.1280  -20.9020 O.co2     1 LKM1441     0.0000 
     34 F2         -1.6170  -15.8710  -24.3240 F         1 LKM1441     0.0000 
     35 H          -1.1147  -14.2418  -19.4828 H         1 LKM1441     0.0000 
     36 H          -0.9977  -16.5966  -20.0170 H         1 LKM1441     0.0000 
     37 H          -1.7114  -13.3840  -23.5331 H         1 LKM1441     0.0000 
     38 H          -0.4699  -17.8460  -23.2966 H         1 LKM1441     0.0000 
     39 H          -2.1853  -18.0534  -22.9039 H         1 LKM1441     0.0000 
     40 H           1.2329  -19.1640  -23.0428 H         1 LKM1441     0.0000 
     41 H           3.2009  -20.3723  -22.3116 H         1 LKM1441     0.0000 
     42 H          -0.3367  -19.4012  -19.1869 H         1 LKM1441     0.0000 
     43 H           4.4085  -21.5469  -20.4516 H         1 LKM1441     0.0000 
     44 H           0.7477  -20.4225  -17.5245 H         1 LKM1441     0.0000 
     45 H           2.6216  -21.6838  -16.6809 H         1 LKM1441     0.0000 
     46 H           4.0788  -24.3628  -16.9440 H         1 LKM1441     0.0000 
     47 H           3.6587  -24.0336  -19.8445 H         1 LKM1441     0.0000 
     48 H           2.0823  -25.2282  -18.3501 H         1 LKM1441     0.0000 
     49 H           3.3169  -26.4727  -18.0912 H         1 LKM1441     0.0000 
     50 H           3.3777  -27.0121  -20.4636 H         1 LKM1441     0.0000 
     51 H           2.3280  -25.6383  -20.8518 H         1 LKM1441     0.0000 
@<TRIPOS>BOND
     1    2    1 3    
     2    3    2 1    
     3    4    3 ar   
     4    6    3 ar   
     5    5    4 ar   
     6   35    4 1    
     7    8    5 ar   
     8   36    5 1    
     9    7    6 ar   
    10   37    6 1    
    11    8    7 ar   
    12   34    7 1    
    13    9    8 1    
    14   10    9 1    
    15   38    9 1    
    16   39    9 1    
    17   11   10 1    
    18   12   11 ar   
    19   14   11 ar   
    20   13   12 ar   
    21   40   12 1    
    22   16   13 ar   
    23   41   13 1    
    24   15   14 ar   
    25   42   14 1    
    26   16   15 ar   
    27   18   15 ar   
    28   17   16 ar   
    29   20   17 ar   
    30   43   17 1    
    31   19   18 ar   
    32   44   18 1    
    33   20   19 ar   
    34   45   19 1    
    35   21   20 1    
    36   22   21 2    
    37   23   21 2    
    38   24   21 1    
    39   25   24 1    
    40   46   24 1    
    41   26   25 1    
    42   29   25 1    
    43   47   25 1    
    44   27   26 ar   
    45   28   26 ar   
    46   30   29 1    
    47   48   29 1    
    48   49   29 1    
    49   31   30 1    
    50   50   30 1    
    51   51   30 1    
    52   32   31 ar   
    53   33   31 ar   
@<TRIPOS>SUBSTRUCTURE
     1 LKM1441     1 GROUP   
@<TRIPOS>SET

