#    Name: 2wba_FAD_3_INTS_M
#    Modification time : Tue Mar 25 03:55:35 2014

@<TRIPOS>MOLECULE
2wba_FAD_3_INTS_M
  130     0     9     0     0
SMALL
NO_CHARGES


@<TRIPOS>ATOM
      1 N           7.1305   26.4260   16.8830 N.am      2 SEC2        0.0000 
      2 N           7.5860   27.1220   18.3300 N.am      8 SEL2        0.0000 
      3 N           6.6750   25.7300   15.4360 N.am      5 SEP2        0.0000 
      4 N           8.4010   26.9835   17.3910 N.am      2 SEC2        0.0000 
      5 N           9.2160   26.8450   16.4520 N.am      5 SEP2        0.0000 
      6 N           8.7880   26.9825   18.8880 N.am      2 SEC2        0.0000 
      7 N           9.9900   26.8430   19.4460 N.am      5 SEP2        0.0000 
      8 N           4.1415   25.0735   18.6615 N.am      2 SEC2        0.0000 
      9 N           5.6760   25.5060   18.3570 N.am      8 SEL2        0.0000 
     10 N           2.6070   24.6410   18.9660 N.am      5 SEP2        0.0000 
     11 N           6.1755   25.6180   16.8965 N.am      2 SEC2        0.0000 
     12 CA          7.0395   29.3275   20.0265 C.3       3 GLC5        0.0000 
     13 CA          5.5880   29.3970   18.5850 C.3       9 GLL5        0.0000 
     14 CA          8.4910   29.2580   21.4680 C.3       6 GLP5        0.0000 
     15 CA          3.4885   31.2605   18.3515 C.3       3 GLC5        0.0000 
     16 CA          4.9150   30.2470   17.5130 C.3       9 GLL5        0.0000 
     17 CA          2.0620   32.2740   19.1900 C.3       6 GLP5        0.0000 
     18 CA          5.0020   28.2185   15.6935 C.3       3 GLC5        0.0000 
     19 CA          5.6830   30.2370   16.1950 C.3       9 GLL5        0.0000 
     20 CA          4.3210   26.2000   15.1920 C.3       6 GLP5        0.0000 
     21 O           4.0555   31.1195   14.4645 O.2       1 ALC1        0.0000 
     22 O           4.8140   29.7370   15.2030 O.2       7 ALL1        0.0000 
     23 O           3.2970   32.5020   13.7260 O.2       4 ALP1        0.0000 
     24 O           3.5940   30.4825   15.2300 O.2       1 ALC1        0.0000 
     25 O           2.3740   31.2280   15.2570 O.2       4 ALP1        0.0000 
     26 O           4.5785   32.2910   14.1560 O.2       1 ALC1        0.0000 
     27 O           5.8600   32.0800   14.5860 O.2       7 ALL1        0.0000 
     28 CA          3.5585   32.3565   18.0040 C.3       3 GLC5        0.0000 
     29 CA          5.0550   32.4390   16.8180 C.3       9 GLL5        0.0000 
     30 CA          3.6745   36.9305   19.5175 C.3       3 GLC5        0.0000 
     31 CA          5.0680   37.1480   18.0940 C.3       9 GLL5        0.0000 
     32 CA          2.2810   36.7130   20.9410 C.3       6 GLP5        0.0000 
     33 CA          4.2200   38.7820   16.9040 C.3       3 GLC5        0.0000 
     34 CA          3.3720   40.4160   15.7140 C.3       6 GLP5        0.0000 
     35 O           4.7975   39.0740   19.6280 O.2       1 ALC1        0.0000 
     36 O           5.6860   37.9890   18.9180 O.2       7 ALL1        0.0000 
     37 O           3.9090   40.1590   20.3380 O.2       4 ALP1        0.0000 
     38 N           3.1090   38.6625   17.8205 N.am      2 SEC2        0.0000 
     39 N           3.7570   37.3990   17.7410 N.am      8 SEL2        0.0000 
     40 N           2.4610   39.9260   17.9000 N.am      5 SEP2        0.0000 
     41 CA          2.6265   36.5560   19.0730 C.3       3 GLC5        0.0000 
     42 CA          2.9720   36.3990   17.2050 C.3       9 GLL5        0.0000 
     43 CA          1.1270   37.0740   16.9440 C.3       3 GLC5        0.0000 
     44 CA         -0.7180   37.7490   16.6830 C.3       6 GLP5        0.0000 
     45 CA          1.9945   35.3560   15.9070 C.3       3 GLC5        0.0000 
     46 CA          1.0170   34.3130   14.6090 C.3       6 GLP5        0.0000 
     47 CA          3.9775   36.6030   15.5875 C.3       3 GLC5        0.0000 
     48 CA          4.9830   36.8070   13.9700 C.3       6 GLP5        0.0000 
     49 CA          3.1720   38.4075   16.4595 C.3       3 GLC5        0.0000 
     50 CA          2.3925   38.2975   18.1910 C.3       3 GLC5        0.0000 
     51 CA          1.8130   40.1960   19.1770 C.3       6 GLP5        0.0000 
     52 CA          3.4220   33.5745   18.2855 C.3       3 GLC5        0.0000 
     53 CA          4.7820   34.8750   17.3810 C.3       9 GLL5        0.0000 
     54 N           8.1785   17.9560   21.2615 N.am      2 SEC2        0.0000 
     55 N           8.9080   16.7240   20.6850 N.am      8 SEL2        0.0000 
     56 N           7.4490   19.1880   21.8380 N.am      5 SEP2        0.0000 
     57 O           9.4865   14.7975   18.6295 O.2       1 ALC1        0.0000 
     58 O          10.1600   16.0470   18.9450 O.2       7 ALL1        0.0000 
     59 O           8.8130   13.5480   18.3140 O.2       4 ALP1        0.0000 
     60 N          12.4955   15.6080   16.1580 N.am      2 SEC2        0.0000 
     61 N          11.4310   15.4630   17.1750 N.am      8 SEL2        0.0000 
     62 N          13.5600   15.7530   15.1410 N.am      5 SEP2        0.0000 
     63 N          12.9305   16.8935   15.9365 N.am      2 SEC2        0.0000 
     64 N          12.3010   18.0340   16.7320 N.am      8 SEL2        0.0000 
     65 CA         11.1555   18.4645   15.4155 C.3       3 GLC5        0.0000 
     66 CA         12.6930   19.3490   16.5480 C.3       9 GLL5        0.0000 
     67 CA          9.6180   17.5800   14.2830 C.3       6 GLP5        0.0000 
     68 CA         15.6680   20.0625   16.1800 C.3       3 GLC5        0.0000 
     69 CA         13.5750   19.6780   15.5160 C.3       9 GLL5        0.0000 
     70 CA         17.7610   20.4470   16.8440 C.3       6 GLP5        0.0000 
     71 CA         16.2475   22.5715   13.2830 C.3       3 GLC5        0.0000 
     72 CA         14.9220   21.3420   14.2040 C.3       9 GLL5        0.0000 
     73 CA         17.5730   23.8010   12.3620 C.3       6 GLP5        0.0000 
     74 CA         14.4520   21.8570   12.1585 C.3       3 GLC5        0.0000 
     75 CA         13.9820   22.3720   10.1130 C.3       6 GLP5        0.0000 
     76 CA         16.2475   20.7005   12.5765 C.3       3 GLC5        0.0000 
     77 CA         17.5730   20.0590   10.9490 C.3       6 GLP5        0.0000 
     78 CA         14.7610   24.1855   17.4585 C.3       3 GLC5        0.0000 
     79 CA         13.9070   23.4210   15.9920 C.3       9 GLL5        0.0000 
     80 CA         15.6150   24.9500   18.9250 C.3       6 GLP5        0.0000 
     81 CA         10.2520   19.4250   17.0225 C.3       3 GLC5        0.0000 
     82 CA         12.2080   20.3380   17.4010 C.3       9 GLL5        0.0000 
     83 CA          8.2960   18.5120   16.6440 C.3       6 GLP5        0.0000 
     84 CA          8.0375   21.1860   17.6970 C.3       3 GLC5        0.0000 
     85 CA          9.5670   21.4770   19.2310 C.3       9 GLL5        0.0000 
     86 CA          6.5080   20.8950   16.1630 C.3       6 GLP5        0.0000 
     87 CA          8.9315   19.9945   17.9375 C.3       3 GLC5        0.0000 
     88 CA          7.7110   20.2835   19.5750 C.3       3 GLC5        0.0000 
     89 CA          5.8550   19.0900   19.9190 C.3       6 GLP5        0.0000 
     90 O           9.6520   23.1825   22.4305 O.2       1 ALC1        0.0000 
     91 O           9.4510   22.1340   21.5180 O.2       7 ALL1        0.0000 
     92 O           9.8530   24.2310   23.3430 O.2       4 ALP1        0.0000 
     93 O          10.2010   23.6135   21.5920 O.2       1 ALC1        0.0000 
     94 O          10.9510   25.0930   21.6660 O.2       4 ALP1        0.0000 
     95 CA          5.5910   22.7980   20.0670 C.3       3 GLC5        0.0000 
     96 CA          7.7490   23.0110   20.1040 C.3       9 GLL5        0.0000 
     97 CA          3.4330   22.5850   20.0300 C.3       6 GLP5        0.0000 
     98 CA          6.9170   21.2540   20.7540 C.3       3 GLC5        0.0000 
     99 CA          6.0850   19.4970   21.4040 C.3       6 GLP5        0.0000 
    100 CA          8.9025   25.4120   22.1775 C.3       3 GLC5        0.0000 
    101 CA          7.5380   24.2160   21.0070 C.3       9 GLL5        0.0000 
    102 CA         10.2670   26.6080   23.3480 C.3       6 GLP5        0.0000 
    103 CA          6.1140   23.5235   22.5485 C.3       3 GLC5        0.0000 
    104 CA          4.6900   22.8310   24.0900 C.3       6 GLP5        0.0000 
    105 N           3.0455   25.2645   21.7215 N.am      2 SEC2        0.0000 
    106 N           4.2090   26.0010   21.6530 N.am      8 SEL2        0.0000 
    107 N           1.8820   24.5280   21.7900 N.am      5 SEP2        0.0000 
    108 N           7.3975   26.2940   23.8425 N.am      2 SEC2        0.0000 
    109 N           6.4130   26.3380   22.8050 N.am      8 SEL2        0.0000 
    110 N           8.3820   26.2500   24.8800 N.am      5 SEP2        0.0000 
    111 CA          3.7742   28.2825   17.9375 C.3       3 GLC5        0.0000 
    112 CA          2.2970   26.7430   17.8260 C.3       6 GLP5        0.0000 
    113 CA          5.6757   31.0260   19.6505 C.3       3 GLC5        0.0000 
    114 CA          6.1000   32.2300   21.2520 C.3       6 GLP5        0.0000 
    115 CA          6.8907   30.0562   14.7220 C.3       3 GLC5        0.0000 
    116 CA          7.9210   29.1460   13.3810 C.3       6 GLP5        0.0000 
    117 CA          5.0189   36.2496   15.8304 C.3       3 GLC5        0.0000 
    118 CA          5.5870   35.8710   17.9070 C.3       9 GLL5        0.0000 
    119 CA          5.2514   35.1776   19.5149 C.3       3 GLC5        0.0000 
    120 CA          5.4480   34.6630   21.3390 C.3       6 GLP5        0.0000 
    121 CA         12.6250   21.1262   14.0820 C.3       3 GLC5        0.0000 
    122 CA         13.9740   20.9990   15.3220 C.3       9 GLL5        0.0000 
    123 CA         10.8020   21.0820   13.4010 C.3       6 GLP5        0.0000 
    124 CA         15.8870   21.5197   15.9710 C.3       3 GLC5        0.0000 
    125 CA         17.3260   21.8690   17.1790 C.3       6 GLP5        0.0000 
    126 CA         15.5125   22.2875   16.6310 C.3       3 GLC5        0.0000 
    127 CA         13.4910   21.9910   16.1740 C.3       9 GLL5        0.0000 
    128 CA         11.7467   23.4883   16.2590 C.3       3 GLC5        0.0000 
    129 CA         10.3380   24.7940   15.8740 C.3       6 GLP5        0.0000 
    130 CA         11.8316   20.9787   15.0520 C.3       3 GLC5        0.0000 
@<TRIPOS>BOND
@<TRIPOS>SUBSTRUCTURE
     1 ALC1       21 GROUP        1 X    ALC  0     ROOT ALC X 1
     2 SEC2        1 GROUP        1 X    SEC  0     **** SEC X 2
     3 GLC5       12 GROUP        1 X    GLC  0     **** GLC X 6
     4 ALP1       23 GROUP        1 Y    ALP  0     ROOT ALP Y 8
     5 SEP2        3 GROUP        1 Y    SEP  0     **** SEP Y 9
     6 GLP5       14 GROUP        1 Y    GLP  0     **** GLP Y 13
     7 ALL1       22 GROUP        1 Z    ALL  0     ROOT ALL Z 15
     8 SEL2        2 GROUP        1 Z    SEL  0     **** SEL Z 16
     9 GLL5       13 GROUP        1 Z    GLL  0     **** GLL Z 20
@<TRIPOS>SET

