#    Name: 2wba_FAD_3_ligand
#    Modification time : Tue Mar 25 03:55:36 2014

@<TRIPOS>MOLECULE
2wba_FAD_3_ligand
   84    89     1     0     0
SMALL
NO_CHARGES


@<TRIPOS>ATOM
      1 PA          6.1920   26.8460   18.8180 P.3       1 FAD1491     0.0000 
      2 O1A         7.5860   27.1220   18.3300 O.co2     1 FAD1491     0.0000 
      3 O2A         5.6760   25.5060   18.3570 O.co2     1 FAD1491     0.0000 
      4 O5B         5.2190   28.0500   18.3840 O.3       1 FAD1491     0.0000 
      5 C5B         5.5880   29.3970   18.5850 C.3       1 FAD1491     0.0000 
      6 C4B         4.9150   30.2470   17.5130 C.3       1 FAD1491     0.0000 
      7 O4B         4.8330   31.5970   17.9230 O.3       1 FAD1491     0.0000 
      8 C3B         5.6830   30.2370   16.1950 C.3       1 FAD1491     0.0000 
      9 O3B         4.8140   29.7370   15.2030 O.3       1 FAD1491     0.0000 
     10 C2B         6.0380   31.6960   15.9310 C.3       1 FAD1491     0.0000 
     11 O2B         5.8600   32.0800   14.5860 O.3       1 FAD1491     0.0000 
     12 C1B         5.0550   32.4390   16.8180 C.3       1 FAD1491     0.0000 
     13 N9A         5.5460   33.7370   17.3080 N.pl3     1 FAD1491     0.0000 
     14 C8A         6.7920   34.0290   17.7950 C.2       1 FAD1491     0.0000 
     15 N7A         6.8010   35.3290   18.1540 N.2       1 FAD1491     0.0000 
     16 C5A         5.5870   35.8710   17.9070 C.ar      1 FAD1491     0.0000 
     17 C6A         5.0680   37.1480   18.0940 C.ar      1 FAD1491     0.0000 
     18 N6A         5.6860   37.9890   18.9180 N.pl3     1 FAD1491     0.0000 
     19 N1A         3.7570   37.3990   17.7410 N.ar      1 FAD1491     0.0000 
     20 C2A         2.9720   36.3990   17.2050 C.ar      1 FAD1491     0.0000 
     21 N3A         3.4960   35.1340   17.0330 N.ar      1 FAD1491     0.0000 
     22 C4A         4.7820   34.8750   17.3810 C.ar      1 FAD1491     0.0000 
     23 N1         10.0810   18.3380   19.6220 N.2       1 FAD1491     0.0000 
     24 C2          9.6870   17.0280   19.7880 C.2       1 FAD1491     0.0000 
     25 O2          8.9080   16.7240   20.6850 O.2       1 FAD1491     0.0000 
     26 N3         10.1600   16.0470   18.9450 N.am      1 FAD1491     0.0000 
     27 C4         11.0310   16.3610   17.9210 C.2       1 FAD1491     0.0000 
     28 O4         11.4310   15.4630   17.1750 O.2       1 FAD1491     0.0000 
     29 C4X        11.4320   17.6850   17.7460 C.2       1 FAD1491     0.0000 
     30 N5         12.3010   18.0340   16.7320 N.2       1 FAD1491     0.0000 
     31 C5X        12.6930   19.3490   16.5480 C.ar      1 FAD1491     0.0000 
     32 C6         13.5750   19.6780   15.5160 C.ar      1 FAD1491     0.0000 
     33 C7         13.9740   20.9990   15.3220 C.ar      1 FAD1491     0.0000 
     34 C7M        14.9220   21.3420   14.2040 C.3       1 FAD1491     0.0000 
     35 C8         13.4910   21.9910   16.1740 C.ar      1 FAD1491     0.0000 
     36 C8M        13.9070   23.4210   15.9920 C.3       1 FAD1491     0.0000 
     37 C9         12.6120   21.6590   17.2050 C.ar      1 FAD1491     0.0000 
     38 C9A        12.2080   20.3380   17.4010 C.ar      1 FAD1491     0.0000 
     39 N10        11.3460   19.9890   18.4300 N.pl3     1 FAD1491     0.0000 
     40 C10        10.9500   18.6720   18.6000 C.2       1 FAD1491     0.0000 
     41 C1'        10.9830   20.9760   19.4990 C.3       1 FAD1491     0.0000 
     42 C2'         9.5670   21.4770   19.2310 C.3       1 FAD1491     0.0000 
     43 O2'         9.4650   21.9460   17.9050 O.3       1 FAD1491     0.0000 
     44 C3'         9.2120   22.5900   20.2040 C.3       1 FAD1491     0.0000 
     45 O3'         9.4510   22.1340   21.5180 O.3       1 FAD1491     0.0000 
     46 C4'         7.7490   23.0110   20.1040 C.3       1 FAD1491     0.0000 
     47 O4'         7.3870   23.3510   18.7800 O.3       1 FAD1491     0.0000 
     48 C5'         7.5380   24.2160   21.0070 C.3       1 FAD1491     0.0000 
     49 O5'         6.1670   24.5210   21.0290 O.3       1 FAD1491     0.0000 
     50 P           5.7160   25.9760   21.5190 P.3       1 FAD1491     0.0000 
     51 O1P         4.2090   26.0010   21.6530 O.co2     1 FAD1491     0.0000 
     52 O2P         6.4130   26.3380   22.8050 O.co2     1 FAD1491     0.0000 
     53 O3P         6.2480   27.0070   20.4150 O.3       1 FAD1491     0.0000 
     54 H           6.6675   29.5484   18.4996 H         1 FAD1491     0.0000 
     55 H           5.2653   29.7745   19.5591 H         1 FAD1491     0.0000 
     56 H           3.9272   29.8450   17.3200 H         1 FAD1491     0.0000 
     57 H           6.5615   29.6782   16.3234 H         1 FAD1491     0.0000 
     58 H           7.0145   31.8750   16.3138 H         1 FAD1491     0.0000 
     59 H           4.1375   32.5704   16.2624 H         1 FAD1491     0.0000 
     60 H           7.5207   33.4104   17.8636 H         1 FAD1491     0.0000 
     61 H           5.1096   38.6781   19.3572 H         1 FAD1491     0.0000 
     62 H           6.6715   37.8565   19.0242 H         1 FAD1491     0.0000 
     63 H           1.9976   36.5959   16.9339 H         1 FAD1491     0.0000 
     64 H           9.8604   15.0642   19.0793 H         1 FAD1491     0.0000 
     65 H          13.9321   18.9380   14.8949 H         1 FAD1491     0.0000 
     66 H          12.2562   22.3992   17.8303 H         1 FAD1491     0.0000 
     67 H          11.6652   21.8156   19.4783 H         1 FAD1491     0.0000 
     68 H          11.0122   20.5007   20.4706 H         1 FAD1491     0.0000 
     69 H           8.8860   20.6499   19.4099 H         1 FAD1491     0.0000 
     70 H           9.8272   23.4509   19.9791 H         1 FAD1491     0.0000 
     71 H           7.1424   22.2038   20.4934 H         1 FAD1491     0.0000 
     72 H           8.1416   25.0385   20.6101 H         1 FAD1491     0.0000 
     73 H           7.9238   23.9597   21.9989 H         1 FAD1491     0.0000 
     74 H          15.7959   20.8652   14.2986 H         1 FAD1491     0.0000 
     75 H          14.5479   21.0937   13.3105 H         1 FAD1491     0.0000 
     76 H          15.1239   22.3210   14.1754 H         1 FAD1491     0.0000 
     77 H          14.8966   23.5341   16.0811 H         1 FAD1491     0.0000 
     78 H          13.6521   23.7700   15.0902 H         1 FAD1491     0.0000 
     79 H          13.4813   24.0207   16.6695 H         1 FAD1491     0.0000 
     80 H           3.9825   30.2861   15.2869 H         1 FAD1491     0.0000 
     81 H           4.8728   32.1984   14.4793 H         1 FAD1491     0.0000 
     82 H           8.7018   22.5920   17.9171 H         1 FAD1491     0.0000 
     83 H           9.5344   22.9644   22.0688 H         1 FAD1491     0.0000 
     84 H           6.8066   24.1603   18.8702 H         1 FAD1491     0.0000 
@<TRIPOS>BOND
     1    2    1 ar   
     2    3    1 ar   
     3    4    1 1    
     4   53    1 1    
     5    5    4 1    
     6    6    5 1    
     7   54    5 1    
     8   55    5 1    
     9    7    6 1    
    10    8    6 1    
    11   56    6 1    
    12   12    7 1    
    13    9    8 1    
    14   10    8 1    
    15   57    8 1    
    16   80    9 1    
    17   11   10 1    
    18   12   10 1    
    19   58   10 1    
    20   81   11 1    
    21   13   12 1    
    22   59   12 1    
    23   14   13 1    
    24   22   13 1    
    25   15   14 2    
    26   60   14 1    
    27   16   15 1    
    28   17   16 ar   
    29   22   16 ar   
    30   18   17 1    
    31   19   17 ar   
    32   61   18 1    
    33   62   18 1    
    34   20   19 ar   
    35   21   20 ar   
    36   63   20 1    
    37   22   21 ar   
    38   24   23 1    
    39   40   23 2    
    40   25   24 2    
    41   26   24 am   
    42   27   26 am   
    43   64   26 1    
    44   28   27 2    
    45   29   27 1    
    46   30   29 2    
    47   40   29 1    
    48   31   30 1    
    49   32   31 ar   
    50   38   31 ar   
    51   33   32 ar   
    52   65   32 1    
    53   34   33 1    
    54   35   33 ar   
    55   74   34 1    
    56   75   34 1    
    57   76   34 1    
    58   36   35 1    
    59   37   35 ar   
    60   77   36 1    
    61   78   36 1    
    62   79   36 1    
    63   38   37 ar   
    64   66   37 1    
    65   39   38 1    
    66   40   39 1    
    67   41   39 1    
    68   42   41 1    
    69   67   41 1    
    70   68   41 1    
    71   43   42 1    
    72   44   42 1    
    73   69   42 1    
    74   82   43 1    
    75   45   44 1    
    76   46   44 1    
    77   70   44 1    
    78   83   45 1    
    79   47   46 1    
    80   48   46 1    
    81   71   46 1    
    82   84   47 1    
    83   49   48 1    
    84   72   48 1    
    85   73   48 1    
    86   50   49 1    
    87   51   50 ar   
    88   52   50 ar   
    89   53   50 1    
@<TRIPOS>SUBSTRUCTURE
     1 FAD1491     1 GROUP   
@<TRIPOS>SET

