#    Name: 3nyx_TZ1_1_INTS_M
#    Modification time : Tue Mar 25 02:59:50 2014

@<TRIPOS>MOLECULE
3nyx_TZ1_1_INTS_M
   82     0     9     0     0
SMALL
NO_CHARGES


@<TRIPOS>ATOM
      1 CA          7.9830   16.2435   20.6080 C.3       3 GLC5        0.0000 
      2 CA          6.7130   15.5810   22.2950 C.3       9 GLL5        0.0000 
      3 CA          9.2530   16.9060   18.9210 C.3       6 GLP5        0.0000 
      4 N           9.2115   15.2190   20.7175 N.am      2 SEC2        0.0000 
      5 N           8.4000   14.1770   21.4400 N.am      8 SEL2        0.0000 
      6 N          10.0230   16.2610   19.9950 N.am      5 SEP2        0.0000 
      7 N           6.3615    4.6835   23.4890 N.am      2 SEC2        0.0000 
      8 N           7.2520    4.8380   22.4700 N.am      8 SEL2        0.0000 
      9 N           5.4710    4.5290   24.5080 N.am      5 SEP2        0.0000 
     10 CA          4.2700    9.8535   22.3635 C.3       3 GLC5        0.0000 
     11 CA          5.8220   10.5790   21.9590 C.3       9 GLL5        0.0000 
     12 CA          2.7180    9.1280   22.7680 C.3       6 GLP5        0.0000 
     13 CA          6.7760   10.5975   23.9645 C.3       3 GLC5        0.0000 
     14 CA          7.7300   10.6160   25.9700 C.3       6 GLP5        0.0000 
     15 CA          5.7345   17.0480   25.0130 C.3       3 GLC5        0.0000 
     16 CA          4.8480   17.3300   23.2130 C.3       9 GLL5        0.0000 
     17 CA          6.6210   16.7660   26.8130 C.3       6 GLP5        0.0000 
     18 CA          6.9870   17.6855   23.5765 C.3       3 GLC5        0.0000 
     19 CA          9.1260   18.0410   23.9400 C.3       6 GLP5        0.0000 
     20 CA          4.1480   17.2280   21.4140 C.3       3 GLC5        0.0000 
     21 CA          3.4480   17.1260   19.6150 C.3       6 GLP5        0.0000 
     22 N           6.6655    7.2705   18.5140 N.am      2 SEC2        0.0000 
     23 N           7.4660    7.8470   19.5990 N.am      8 SEL2        0.0000 
     24 N           5.8650    6.6940   17.4290 N.am      5 SEP2        0.0000 
     25 CA          4.9240    8.0155   23.0445 C.3       3 GLC5        0.0000 
     26 CA          6.7320    7.6540   22.0800 C.3       9 GLL5        0.0000 
     27 CA          3.1160    8.3770   24.0090 C.3       6 GLP5        0.0000 
     28 CA          6.4510    8.1525   24.0300 C.3       3 GLC5        0.0000 
     29 CA          6.1700    8.6510   25.9800 C.3       6 GLP5        0.0000 
     30 CA          7.3475    6.5595   23.9325 C.3       3 GLC5        0.0000 
     31 CA          7.9630    5.4650   25.7850 C.3       6 GLP5        0.0000 
     32 CA          8.6360    8.1780   22.0445 C.3       3 GLC5        0.0000 
     33 CA         10.5400    8.7020   22.0090 C.3       6 GLP5        0.0000 
     34 CA          7.8450    3.0930   23.9805 C.3       3 GLC5        0.0000 
     35 CA          8.1610    2.1420   21.9830 C.3       9 GLL5        0.0000 
     36 CA          7.5290    4.0440   25.9780 C.3       6 GLP5        0.0000 
     37 CA          8.1625    1.1155   23.8780 C.3       3 GLC5        0.0000 
     38 CA          8.1640    0.0890   25.7730 C.3       6 GLP5        0.0000 
     39 O           8.5145    5.6695   19.2570 O.2       1 ALC1        0.0000 
     40 O           7.8840    5.7220   20.5000 O.2       7 ALL1        0.0000 
     41 O           9.1450    5.6170   18.0140 O.2       4 ALP1        0.0000 
     42 CA         10.3765   11.4435   21.4095 C.3       3 GLC5        0.0000 
     43 CA          8.8840   12.9750   21.0920 C.3       9 GLL5        0.0000 
     44 CA         11.8690    9.9120   21.7270 C.3       6 GLP5        0.0000 
     45 CA         10.4245   14.3990   21.2340 C.3       3 GLC5        0.0000 
     46 CA         11.9650   15.8230   21.3760 C.3       6 GLP5        0.0000 
     47 CA          9.3175   13.9345   19.2830 C.3       3 GLC5        0.0000 
     48 CA          9.7510   14.8940   17.4740 C.3       6 GLP5        0.0000 
     49 CA          9.3185   10.2675   21.6235 C.3       3 GLC5        0.0000 
     50 CA          8.0970   11.8330   21.2380 C.3       9 GLL5        0.0000 
     51 CA         10.8405    1.5385   18.3720 C.3       3 GLC5        0.0000 
     52 CA          9.4230    2.0040   19.9040 C.3       9 GLL5        0.0000 
     53 CA         12.2580    1.0730   16.8400 C.3       6 GLP5        0.0000 
     54 CA          7.6178   15.0042   24.0495 C.3       3 GLC5        0.0000 
     55 CA          7.1620   14.3140   21.9550 C.3       9 GLL5        0.0000 
     56 CA          8.2980   15.0610   25.9740 C.3       6 GLP5        0.0000 
     57 CA          6.3253   11.7055   19.8813 C.3       3 GLC5        0.0000 
     58 CA          6.8070   11.9430   21.7620 C.3       9 GLL5        0.0000 
     59 CA          6.3360   12.1500   17.9020 C.3       6 GLP5        0.0000 
     60 CA          4.9443   13.2603   20.5050 C.3       3 GLC5        0.0000 
     61 CA          6.3300   13.2010   22.1230 C.3       9 GLL5        0.0000 
     62 CA          4.2030   13.2520   18.6280 C.3       6 GLP5        0.0000 
     63 CA          3.3232   13.7235   24.2240 C.3       3 GLC5        0.0000 
     64 CA          4.5820   14.6020   22.9850 C.3       9 GLL5        0.0000 
     65 CA          1.8350   13.4780   25.6350 C.3       6 GLP5        0.0000 
     66 CA          4.3865   16.1244   21.1897 C.3       3 GLC5        0.0000 
     67 CA          5.5856   14.5762   24.7970 C.3       3 GLC5        0.0000 
     68 CA          5.4230   15.7060   22.7930 C.3       9 GLL5        0.0000 
     69 CA          6.0540   14.3150   26.7910 C.3       6 GLP5        0.0000 
     70 CA          9.7142   12.4165   22.7200 C.3       3 GLC5        0.0000 
     71 CA         10.9380   12.4290   24.2750 C.3       6 GLP5        0.0000 
     72 CA          9.1152   11.5555   19.6730 C.3       3 GLC5        0.0000 
     73 CA          9.7400   10.7070   18.1810 C.3       6 GLP5        0.0000 
     74 CA          7.4132   12.2770   19.5335 C.3       3 GLC5        0.0000 
     75 CA          8.2595    2.5767   18.1365 C.3       3 GLC5        0.0000 
     76 CA          9.0990    3.2510   19.9720 C.3       9 GLL5        0.0000 
     77 CA          7.2580    2.5260   16.3350 C.3       6 GLP5        0.0000 
     78 CA         10.2434    2.8768   21.6039 C.3       3 GLC5        0.0000 
     79 CA          9.0810    1.2200   20.9480 C.3       9 GLL5        0.0000 
     80 CA         11.5170    3.4340   22.6270 C.3       6 GLP5        0.0000 
     81 CA          7.5984    1.2568   19.9024 C.3       3 GLC5        0.0000 
     82 CA          6.2270    0.1940   19.2240 C.3       6 GLP5        0.0000 
@<TRIPOS>BOND
@<TRIPOS>SUBSTRUCTURE
     1 ALC1       39 GROUP        1 X    ALC  0     ROOT ALC X 1
     2 SEC2        4 GROUP        1 X    SEC  0     **** SEC X 2
     3 GLC5        1 GROUP        1 X    GLC  0     **** GLC X 6
     4 ALP1       41 GROUP        1 Y    ALP  0     ROOT ALP Y 8
     5 SEP2        6 GROUP        1 Y    SEP  0     **** SEP Y 9
     6 GLP5        3 GROUP        1 Y    GLP  0     **** GLP Y 13
     7 ALL1       40 GROUP        1 Z    ALL  0     ROOT ALL Z 15
     8 SEL2        5 GROUP        1 Z    SEL  0     **** SEL Z 16
     9 GLL5        2 GROUP        1 Z    GLL  0     **** GLL Z 20
@<TRIPOS>SET

