#    Name: 3nyx_TZ1_1_ligand
#    Modification time : Tue Mar 25 02:59:50 2014

@<TRIPOS>MOLECULE
3nyx_TZ1_1_ligand
   34    37     1     0     0
SMALL
NO_CHARGES


@<TRIPOS>ATOM
      1 C1          6.7130   15.5810   22.2950 C.ar      1 TZ11        0.0000 
      2 N1          8.4000   14.1770   21.4400 N.ar      1 TZ11        0.0000 
      3 O1          7.2520    4.8380   22.4700 O.2       1 TZ11        0.0000 
      4 S1          5.8220   10.5790   21.9590 S.3       1 TZ11        0.0000 
      5 CL1         4.8480   17.3300   23.2130 Cl        1 TZ11        0.0000 
      6 C2          7.1620   14.3140   21.9550 C.ar      1 TZ11        0.0000 
      7 N2          7.4660    7.8470   19.5990 N.2       1 TZ11        0.0000 
      8 S2          6.7320    7.6540   22.0800 S.3       1 TZ11        0.0000 
      9 C3          6.3300   13.2010   22.1230 C.ar      1 TZ11        0.0000 
     10 N3          6.9340    9.1140   19.9450 N.2       1 TZ11        0.0000 
     11 S3          8.1610    2.1420   21.9830 S.3       1 TZ11        0.0000 
     12 C4          5.0410   13.3360   22.6410 C.ar      1 TZ11        0.0000 
     13 N4          7.8840    5.7220   20.5000 N.am      1 TZ11        0.0000 
     14 C5          4.5820   14.6020   22.9850 C.ar      1 TZ11        0.0000 
     15 C6          5.4230   15.7060   22.7930 C.ar      1 TZ11        0.0000 
     16 C7          8.8840   12.9750   21.0920 C.ar      1 TZ11        0.0000 
     17 C8          8.0970   11.8330   21.2380 C.ar      1 TZ11        0.0000 
     18 C9          6.8070   11.9430   21.7620 C.ar      1 TZ11        0.0000 
     19 C10         6.5210    9.1490   21.2410 C.2       1 TZ11        0.0000 
     20 C11         7.4070    6.9840   20.6430 C.2       1 TZ11        0.0000 
     21 C12         7.7950    4.7380   21.3870 C.2       1 TZ11        0.0000 
     22 C13         8.3910    3.4650   21.0150 C.2       1 TZ11        0.0000 
     23 C14         9.0990    3.2510   19.9720 C.2       1 TZ11        0.0000 
     24 C15         9.4230    2.0040   19.9040 C.2       1 TZ11        0.0000 
     25 C16         9.0810    1.2200   20.9480 C.2       1 TZ11        0.0000 
     26 H           7.3103   16.3954   22.1832 H         1 TZ11        0.0000 
     27 H           4.4464   12.5157   22.7643 H         1 TZ11        0.0000 
     28 H           8.3888    5.5053   19.5593 H         1 TZ11        0.0000 
     29 H           3.6471   14.7309   23.3720 H         1 TZ11        0.0000 
     30 H           9.8432   12.8700   20.7111 H         1 TZ11        0.0000 
     31 H           8.4628   10.9164   20.9622 H         1 TZ11        0.0000 
     32 H           9.3665    3.9452   19.3018 H         1 TZ11        0.0000 
     33 H           9.9232    1.5949   19.0972 H         1 TZ11        0.0000 
     34 H           9.2286    0.3586   21.1994 H         1 TZ11        0.0000 
@<TRIPOS>BOND
     1    6    1 ar   
     2   15    1 ar   
     3   26    1 1    
     4    6    2 ar   
     5   16    2 ar   
     6   21    3 2    
     7   18    4 1    
     8   19    4 1    
     9   15    5 1    
    10    9    6 ar   
    11   10    7 1    
    12   20    7 2    
    13   19    8 1    
    14   20    8 1    
    15   12    9 ar   
    16   18    9 ar   
    17   19   10 2    
    18   22   11 1    
    19   25   11 1    
    20   14   12 ar   
    21   27   12 1    
    22   20   13 1    
    23   21   13 am   
    24   28   13 1    
    25   15   14 ar   
    26   29   14 1    
    27   17   16 ar   
    28   30   16 1    
    29   18   17 ar   
    30   31   17 1    
    31   22   21 1    
    32   23   22 2    
    33   24   23 1    
    34   32   23 1    
    35   25   24 2    
    36   33   24 1    
    37   34   25 1    
@<TRIPOS>SUBSTRUCTURE
     1 TZ11        1 GROUP   
@<TRIPOS>SET

