#    Name: 3afr_ICJ_1_INTS_M
#    Modification time : Tue Mar 25 11:51:54 2014

@<TRIPOS>MOLECULE
3afr_ICJ_1_INTS_M
  132     0     9     0     0
SMALL
NO_CHARGES


@<TRIPOS>ATOM
      1 N          58.2780    3.0415   25.0490 N.am      2 SEC2        0.0000 
      2 N          58.5110    3.3540   23.7420 N.am      8 SEL2        0.0000 
      3 N          58.0450    2.7290   26.3560 N.am      5 SEP2        0.0000 
      4 O          59.7300    2.8590   23.7530 O.2       1 ALC1        0.0000 
      5 O          58.5110    3.3540   23.7420 O.2       7 ALL1        0.0000 
      6 O          60.9490    2.3640   23.7640 O.2       4 ALP1        0.0000 
      7 N          55.6155    7.2790   23.4940 N.am      2 SEC2        0.0000 
      8 N          56.0260    6.6710   22.3990 N.am      8 SEL2        0.0000 
      9 N          55.2050    7.8870   24.5890 N.am      5 SEP2        0.0000 
     10 O          55.6780    7.7340   21.4020 O.2       1 ALC1        0.0000 
     11 O          56.0260    6.6710   22.3990 O.2       7 ALL1        0.0000 
     12 O          55.3300    8.7970   20.4050 O.2       4 ALP1        0.0000 
     13 N          61.3250   -4.6605   14.2785 N.am      2 SEC2        0.0000 
     14 N          62.2390   -3.8810   14.0310 N.am      8 SEL2        0.0000 
     15 N          60.4110   -5.4400   14.5260 N.am      5 SEP2        0.0000 
     16 CA         56.5860    3.0870   23.5840 C.3       3 GLC5        0.0000 
     17 CA         57.9100    4.3040   22.8560 C.3       9 GLL5        0.0000 
     18 CA         55.2620    1.8700   24.3120 C.3       6 GLP5        0.0000 
     19 CA         55.9475    4.3790   21.9805 C.3       3 GLC5        0.0000 
     20 CA         53.9850    4.4540   21.1050 C.3       6 GLP5        0.0000 
     21 CA         56.3420    7.0805   24.1740 C.3       3 GLC5        0.0000 
     22 CA         57.4300    6.8320   22.4900 C.3       9 GLL5        0.0000 
     23 CA         55.2540    7.3290   25.8580 C.3       6 GLP5        0.0000 
     24 CA         55.7075    5.6430   21.7975 C.3       3 GLC5        0.0000 
     25 CA         56.3530    4.8420   16.3100 C.3       3 GLC5        0.0000 
     26 CA         58.1200    3.9390   17.0130 C.3       9 GLL5        0.0000 
     27 CA         54.5860    5.7450   15.6070 C.3       6 GLP5        0.0000 
     28 CA         56.8395    6.0350   15.7465 C.3       3 GLC5        0.0000 
     29 CA         58.2540    5.2060   16.1020 C.3       9 GLL5        0.0000 
     30 CA         55.4250    6.8640   15.3910 C.3       6 GLP5        0.0000 
     31 CA         59.3855    7.1200   16.4260 C.3       3 GLC5        0.0000 
     32 CA         60.5170    9.0340   16.7500 C.3       6 GLP5        0.0000 
     33 CA         60.6345    4.7790   21.6200 C.3       3 GLC5        0.0000 
     34 CA         58.5820    4.2530   21.4610 C.3       9 GLL5        0.0000 
     35 CA         62.6870    5.3050   21.7790 C.3       6 GLP5        0.0000 
     36 CA         61.6710    5.4435   15.4495 C.3       3 GLC5        0.0000 
     37 CA         59.5750    5.2000   15.3030 C.3       9 GLL5        0.0000 
     38 CA         63.7670    5.6870   15.5960 C.3       6 GLP5        0.0000 
     39 CA         57.7930    6.1190   14.7150 C.3       3 GLC5        0.0000 
     40 CA         56.0110    7.0380   14.1270 C.3       6 GLP5        0.0000 
     41 CA         59.8275    7.0860   14.7825 C.3       3 GLC5        0.0000 
     42 CA         60.0800    8.9720   14.2620 C.3       6 GLP5        0.0000 
     43 CA         61.8815    4.2760   14.0015 C.3       3 GLC5        0.0000 
     44 CA         59.9180    3.7820   14.7260 C.3       9 GLL5        0.0000 
     45 CA         63.8450    4.7700   13.2770 C.3       6 GLP5        0.0000 
     46 CA         60.9415    0.0930   17.2870 C.3       3 GLC5        0.0000 
     47 CA         59.0760    0.3490   16.2510 C.3       9 GLL5        0.0000 
     48 CA         62.8070   -0.1630   18.3230 C.3       6 GLP5        0.0000 
     49 CA         58.8010   -1.7255   16.7985 C.3       3 GLC5        0.0000 
     50 CA         58.5260   -3.8000   17.3460 C.3       6 GLP5        0.0000 
     51 CA         62.3335    4.2260   16.2580 C.3       3 GLC5        0.0000 
     52 CA         60.9000    2.7650   16.9200 C.3       9 GLL5        0.0000 
     53 CA         61.5720    4.2350   18.1425 C.3       3 GLC5        0.0000 
     54 CA         62.2440    5.7050   19.3650 C.3       6 GLP5        0.0000 
     55 CA         61.8535    1.3010   17.6215 C.3       3 GLC5        0.0000 
     56 CA         61.1865    3.9965   20.8075 C.3       3 GLC5        0.0000 
     57 CA         59.5590    3.2560   21.2300 C.3       9 GLL5        0.0000 
     58 CA         62.8140    4.7370   20.3850 C.3       6 GLP5        0.0000 
     59 CA         60.2190    2.1050   22.5935 C.3       3 GLC5        0.0000 
     60 CA         60.8790    0.9540   23.9570 C.3       6 GLP5        0.0000 
     61 CA         58.7525    1.5555   20.8590 C.3       3 GLC5        0.0000 
     62 CA         57.9460   -0.1450   20.4880 C.3       6 GLP5        0.0000 
     63 CA         62.9430    3.0700   13.5120 C.3       3 GLC5        0.0000 
     64 CA         62.0410    1.3700   13.7470 C.3       9 GLL5        0.0000 
     65 CA         60.8110    1.9975   12.0445 C.3       3 GLC5        0.0000 
     66 CA         59.5810    2.6250   10.3420 C.3       6 GLP5        0.0000 
     67 CA         63.3415    1.6865   12.3430 C.3       3 GLC5        0.0000 
     68 CA         64.6420    2.0030   10.9390 C.3       6 GLP5        0.0000 
     69 CA         61.0615   -4.0880   14.2890 C.3       3 GLC5        0.0000 
     70 CA         62.8450   -2.8650   14.8120 C.3       9 GLL5        0.0000 
     71 CA         59.2780   -5.3110   13.7660 C.3       6 GLP5        0.0000 
     72 CA         66.5790   -1.7585   13.1295 C.3       3 GLC5        0.0000 
     73 CA         65.1440   -3.0250   13.6530 C.3       9 GLL5        0.0000 
     74 CA         68.0140   -0.4920   12.6060 C.3       6 GLP5        0.0000 
     75 CA         65.5930   -3.3075   11.8335 C.3       3 GLC5        0.0000 
     76 CA         66.0420   -3.5900   10.0140 C.3       6 GLP5        0.0000 
     77 CA         67.1095   -3.3070   14.2420 C.3       3 GLC5        0.0000 
     78 CA         69.0750   -3.5890   14.8310 C.3       6 GLP5        0.0000 
     79 CA         66.2145   -0.8735   16.7175 C.3       3 GLC5        0.0000 
     80 CA         65.0020   -2.1680   15.9830 C.3       9 GLL5        0.0000 
     81 CA         67.4270    0.4210   17.4520 C.3       6 GLP5        0.0000 
     82 CA         63.9045   -1.1655   17.1530 C.3       3 GLC5        0.0000 
     83 CA         67.0385   -2.8785   15.4070 C.3       3 GLC5        0.0000 
     84 CA         65.9445   -3.8140   17.1880 C.3       3 GLC5        0.0000 
     85 CA         66.8870   -5.4600   18.3930 C.3       6 GLP5        0.0000 
     86 CA         57.6380   -3.2145   10.8830 C.3       3 GLC5        0.0000 
     87 CA         58.2780   -1.8390   11.7530 C.3       9 GLL5        0.0000 
     88 CA         56.9980   -4.5900   10.0130 C.3       6 GLP5        0.0000 
     89 CA         58.8335    1.0290   10.6200 C.3       3 GLC5        0.0000 
     90 CA         58.0860   -0.5670   10.8980 C.3       9 GLL5        0.0000 
     91 CA         56.9805   -2.1405   10.1955 C.3       3 GLC5        0.0000 
     92 CA         55.8750   -3.7140    9.4930 C.3       6 GLP5        0.0000 
     93 CA         57.7670    0.3985    9.2445 C.3       3 GLC5        0.0000 
     94 CA         57.4480    1.3640    7.5910 C.3       6 GLP5        0.0000 
     95 CA         56.5695    0.2795   11.8980 C.3       3 GLC5        0.0000 
     96 CA         55.0530    1.1260   12.8980 C.3       6 GLP5        0.0000 
     97 CA         56.6425    5.4838   24.5853 C.3       3 GLC5        0.0000 
     98 CA         55.3160    5.9470   26.0120 C.3       6 GLP5        0.0000 
     99 CA         57.7750    8.0787   23.9012 C.3       3 GLC5        0.0000 
    100 CA         58.0280    5.7370   23.4610 C.3       9 GLL5        0.0000 
    101 CA         57.8210    9.8730   24.8270 C.3       6 GLP5        0.0000 
    102 CA         56.3355    8.2975   21.5405 C.3       3 GLC5        0.0000 
    103 CA         54.9470    9.8230   21.3050 C.3       6 GLP5        0.0000 
    104 CA         58.3205    8.4240   21.3295 C.3       3 GLC5        0.0000 
    105 CA         58.9170   10.0760   20.8830 C.3       6 GLP5        0.0000 
    106 CA         60.1343    5.4520   19.6100 C.3       3 GLC5        0.0000 
    107 CA         58.1720    5.2600   20.5410 C.3       9 GLL5        0.0000 
    108 CA         56.2987    5.7410   18.1403 C.3       3 GLC5        0.0000 
    109 CA         57.8770    5.1380   19.1690 C.3       9 GLL5        0.0000 
    110 CA         54.6860    6.9200   17.5010 C.3       6 GLP5        0.0000 
    111 CA         56.3435    3.9488   18.7643 C.3       3 GLC5        0.0000 
    112 CA         57.9460    3.9860   18.3900 C.3       9 GLL5        0.0000 
    113 CA         54.6540    3.9350   19.8270 C.3       6 GLP5        0.0000 
    114 CA         56.4786    4.3305   20.2425 C.3       3 GLC5        0.0000 
    115 CA         59.4708    4.6945   13.1768 C.3       3 GLC5        0.0000 
    116 CA         59.1950    4.8980   11.3390 C.3       6 GLP5        0.0000 
    117 CA         58.2597    0.3332   18.5460 C.3       3 GLC5        0.0000 
    118 CA         58.0710    1.2740   16.9570 C.3       9 GLL5        0.0000 
    119 CA         62.0027   -0.1912   16.4450 C.3       3 GLC5        0.0000 
    120 CA         61.2690    0.5260   14.8110 C.3       9 GLL5        0.0000 
    121 CA         61.9728   -1.6387   12.2510 C.3       3 GLC5        0.0000 
    122 CA         61.1280   -0.9650   14.3230 C.3       9 GLL5        0.0000 
    123 CA         62.1070   -2.0280   10.2980 C.3       6 GLP5        0.0000 
    124 CA         62.7520   -1.1812   16.3858 C.3       3 GLC5        0.0000 
    125 CA         62.5490   -1.5340   14.0850 C.3       9 GLL5        0.0000 
    126 CA         63.0468   -4.2577   16.4850 C.3       3 GLC5        0.0000 
    127 CA         62.4850   -5.5040   18.0690 C.3       6 GLP5        0.0000 
    128 CA         60.8535   -1.6673   11.6813 C.3       3 GLC5        0.0000 
    129 CA         60.3300   -1.0870   12.9990 C.3       9 GLL5        0.0000 
    130 CA         59.7415   -1.7070   10.2752 C.3       3 GLC5        0.0000 
    131 CA         61.3010   -2.2110    9.2250 C.3       6 GLP5        0.0000 
    132 CA         59.1085   -3.4419   13.0874 C.3       3 GLC5        0.0000 
@<TRIPOS>BOND
@<TRIPOS>SUBSTRUCTURE
     1 ALC1        4 GROUP        1 X    ALC  0     ROOT ALC X 1
     2 SEC2        1 GROUP        1 X    SEC  0     **** SEC X 2
     3 GLC5       16 GROUP        1 X    GLC  0     **** GLC X 6
     4 ALP1        6 GROUP        1 Y    ALP  0     ROOT ALP Y 8
     5 SEP2        3 GROUP        1 Y    SEP  0     **** SEP Y 9
     6 GLP5       18 GROUP        1 Y    GLP  0     **** GLP Y 13
     7 ALL1        5 GROUP        1 Z    ALL  0     ROOT ALL Z 15
     8 SEL2        2 GROUP        1 Z    SEL  0     **** SEL Z 16
     9 GLL5       17 GROUP        1 Z    GLL  0     **** GLL Z 20
@<TRIPOS>SET

