#    Name: 3afr_ICJ_1_ligand
#    Modification time : Tue Mar 25 11:51:54 2014

@<TRIPOS>MOLECULE
3afr_ICJ_1_ligand
   84    86     1     0     0
SMALL
NO_CHARGES


@<TRIPOS>ATOM
      1 O1         58.5110    3.3540   23.7420 O.3       1 ICJ1        0.0000 
      2 O2         56.0260    6.6710   22.3990 O.3       1 ICJ1        0.0000 
      3 O3         62.2390   -3.8810   14.0310 O.3       1 ICJ1        0.0000 
      4 C01        57.9100    4.3040   22.8560 C.3       1 ICJ1        0.0000 
      5 C02        58.0280    5.7370   23.4610 C.3       1 ICJ1        0.0000 
      6 C03        57.4300    6.8320   22.4900 C.3       1 ICJ1        0.0000 
      7 C04        58.0180    6.7120   21.0620 C.3       1 ICJ1        0.0000 
      8 C05        58.1720    5.2600   20.5410 C.2       1 ICJ1        0.0000 
      9 C06        57.8770    5.1380   19.1690 C.2       1 ICJ1        0.0000 
     10 C07        57.9460    3.9860   18.3900 C.2       1 ICJ1        0.0000 
     11 C08        58.1200    3.9390   17.0130 C.2       1 ICJ1        0.0000 
     12 C09        58.2540    5.2060   16.1020 C.3       1 ICJ1        0.0000 
     13 C10        58.5820    4.2530   21.4610 C.2       1 ICJ1        0.0000 
     14 C11        59.5750    5.2000   15.3030 C.3       1 ICJ1        0.0000 
     15 C12        59.9180    3.7820   14.7260 C.3       1 ICJ1        0.0000 
     16 C13        59.8000    2.6070   15.7780 C.3       1 ICJ1        0.0000 
     17 C14        58.2930    2.6110   16.2050 C.3       1 ICJ1        0.0000 
     18 C15        58.0710    1.2740   16.9570 C.3       1 ICJ1        0.0000 
     19 C16        59.0760    0.3490   16.2510 C.3       1 ICJ1        0.0000 
     20 C17        59.8690    1.1750   15.1720 C.3       1 ICJ1        0.0000 
     21 C18        60.9000    2.7650   16.9200 C.3       1 ICJ1        0.0000 
     22 C19        59.5590    3.2560   21.2300 C.2       1 ICJ1        0.0000 
     23 C20        61.2690    0.5260   14.8110 C.3       1 ICJ1        0.0000 
     24 C21        62.0410    1.3700   13.7470 C.3       1 ICJ1        0.0000 
     25 C22        61.1280   -0.9650   14.3230 C.3       1 ICJ1        0.0000 
     26 C23        62.5490   -1.5340   14.0850 C.3       1 ICJ1        0.0000 
     27 C24        62.8450   -2.8650   14.8120 C.3       1 ICJ1        0.0000 
     28 C25        64.3720   -3.1580   14.9900 C.3       1 ICJ1        0.0000 
     29 C26        65.1440   -3.0250   13.6530 C.3       1 ICJ1        0.0000 
     30 C27        65.0020   -2.1680   15.9830 C.3       1 ICJ1        0.0000 
     31 C28        60.3300   -1.0870   12.9990 C.3       1 ICJ1        0.0000 
     32 C29        58.8700   -1.5260   13.1300 C.3       1 ICJ1        0.0000 
     33 C30        58.2780   -1.8390   11.7530 C.3       1 ICJ1        0.0000 
     34 C31        58.0860   -0.5670   10.8980 C.3       1 ICJ1        0.0000 
     35 H          56.8542    4.1015   22.7201 H         1 ICJ1        0.0000 
     36 H          59.0722    5.9668   23.6344 H         1 ICJ1        0.0000 
     37 H          57.4841    5.7756   24.3969 H         1 ICJ1        0.0000 
     38 H          57.6974    7.7950   22.8824 H         1 ICJ1        0.0000 
     39 H          59.0061    7.1987   21.0451 H         1 ICJ1        0.0000 
     40 H          57.3709    7.2690   20.3659 H         1 ICJ1        0.0000 
     41 H          57.5632    6.0411   18.6719 H         1 ICJ1        0.0000 
     42 H          57.8563    3.0490   18.9020 H         1 ICJ1        0.0000 
     43 H          58.2178    6.0902   16.7331 H         1 ICJ1        0.0000 
     44 H          57.4146    5.2250   15.4117 H         1 ICJ1        0.0000 
     45 H          60.3916    5.5135   15.9523 H         1 ICJ1        0.0000 
     46 H          59.4978    5.8998   14.4717 H         1 ICJ1        0.0000 
     47 H          60.9412    3.7964   14.3407 H         1 ICJ1        0.0000 
     48 H          59.2418    3.5671   13.8939 H         1 ICJ1        0.0000 
     49 H          57.7248    2.6465   15.3159 H         1 ICJ1        0.0000 
     50 H          57.0927    0.9359   16.7883 H         1 ICJ1        0.0000 
     51 H          58.3376    1.3908   17.9645 H         1 ICJ1        0.0000 
     52 H          58.5527   -0.4482   15.7530 H         1 ICJ1        0.0000 
     53 H          59.7790   -0.0414   16.9657 H         1 ICJ1        0.0000 
     54 H          59.2206    1.1685   14.2868 H         1 ICJ1        0.0000 
     55 H          61.8705    0.5147   15.7224 H         1 ICJ1        0.0000 
     56 H          60.6564   -1.5365   15.0830 H         1 ICJ1        0.0000 
     57 H          63.2874   -0.7822   14.4076 H         1 ICJ1        0.0000 
     58 H          62.6916   -1.6823   13.0023 H         1 ICJ1        0.0000 
     59 H          62.3938   -2.8134   15.7913 H         1 ICJ1        0.0000 
     60 H          64.4995   -4.1502   15.3640 H         1 ICJ1        0.0000 
     61 H          60.8633   -1.8012   12.3383 H         1 ICJ1        0.0000 
     62 H          60.3665   -0.1063   12.4816 H         1 ICJ1        0.0000 
     63 H          58.2956   -0.7286   13.5941 H         1 ICJ1        0.0000 
     64 H          58.8169   -2.4147   13.7533 H         1 ICJ1        0.0000 
     65 H          57.3092   -2.3276   11.8789 H         1 ICJ1        0.0000 
     66 H          58.9428   -2.5232   11.2210 H         1 ICJ1        0.0000 
     67 H          61.8276    2.7501   16.5468 H         1 ICJ1        0.0000 
     68 H          60.7980    3.6266   17.4173 H         1 ICJ1        0.0000 
     69 H          60.8436    2.0288   17.5944 H         1 ICJ1        0.0000 
     70 H          62.9253    0.9621   13.5198 H         1 ICJ1        0.0000 
     71 H          61.5273    1.4505   12.8928 H         1 ICJ1        0.0000 
     72 H          62.2210    2.2993   14.0695 H         1 ICJ1        0.0000 
     73 H          66.1197   -3.2119   13.7674 H         1 ICJ1        0.0000 
     74 H          64.8026   -3.6622   12.9620 H         1 ICJ1        0.0000 
     75 H          65.0648   -2.1054   13.2683 H         1 ICJ1        0.0000 
     76 H          65.9787   -2.3408   16.1105 H         1 ICJ1        0.0000 
     77 H          64.9098   -1.2217   15.6730 H         1 ICJ1        0.0000 
     78 H          64.5742   -2.2240   16.8851 H         1 ICJ1        0.0000 
     79 H          58.9520   -0.0936   10.7368 H         1 ICJ1        0.0000 
     80 H          57.6957   -0.7774   10.0017 H         1 ICJ1        0.0000 
     81 H          57.4718    0.0876   11.3388 H         1 ICJ1        0.0000 
     82 H          59.4367    3.2200   23.3883 H         1 ICJ1        0.0000 
     83 H          55.7343    7.3309   21.7066 H         1 ICJ1        0.0000 
     84 H          62.5676   -3.0363   14.4537 H         1 ICJ1        0.0000 
@<TRIPOS>BOND
     1    4    1 1    
     2   82    1 1    
     3    6    2 1    
     4   83    2 1    
     5   27    3 1    
     6   84    3 1    
     7    5    4 1    
     8   13    4 1    
     9   35    4 1    
    10    6    5 1    
    11   36    5 1    
    12   37    5 1    
    13    7    6 1    
    14   38    6 1    
    15    8    7 1    
    16   39    7 1    
    17   40    7 1    
    18    9    8 2    
    19   13    8 1    
    20   10    9 1    
    21   41    9 1    
    22   11   10 2    
    23   42   10 1    
    24   12   11 1    
    25   17   11 1    
    26   14   12 1    
    27   43   12 1    
    28   44   12 1    
    29   22   13 2    
    30   15   14 1    
    31   45   14 1    
    32   46   14 1    
    33   16   15 1    
    34   47   15 1    
    35   48   15 1    
    36   17   16 1    
    37   20   16 1    
    38   21   16 1    
    39   18   17 1    
    40   49   17 1    
    41   19   18 1    
    42   50   18 1    
    43   51   18 1    
    44   20   19 1    
    45   52   19 1    
    46   53   19 1    
    47   23   20 1    
    48   54   20 1    
    49   67   21 1    
    50   68   21 1    
    51   69   21 1    
    52   24   23 1    
    53   25   23 1    
    54   55   23 1    
    55   70   24 1    
    56   71   24 1    
    57   72   24 1    
    58   26   25 1    
    59   31   25 1    
    60   56   25 1    
    61   27   26 1    
    62   57   26 1    
    63   58   26 1    
    64   28   27 1    
    65   59   27 1    
    66   29   28 1    
    67   30   28 1    
    68   60   28 1    
    69   73   29 1    
    70   74   29 1    
    71   75   29 1    
    72   76   30 1    
    73   77   30 1    
    74   78   30 1    
    75   32   31 1    
    76   61   31 1    
    77   62   31 1    
    78   33   32 1    
    79   63   32 1    
    80   64   32 1    
    81   34   33 1    
    82   65   33 1    
    83   66   33 1    
    84   79   34 1    
    85   80   34 1    
    86   81   34 1    
@<TRIPOS>SUBSTRUCTURE
     1 ICJ1        1 GROUP   
@<TRIPOS>SET

