#    Name: 3qd4_3Q6_1_INTS_M
#    Modification time : Tue Mar 25 09:40:06 2014

@<TRIPOS>MOLECULE
3qd4_3Q6_1_INTS_M
   89     0     9     0     0
SMALL
NO_CHARGES


@<TRIPOS>ATOM
      1 CA        -40.6655   16.2320   15.0045 C.3       3 GLC5        0.0000 
      2 CA        -41.1240   16.4690   12.9480 C.3       9 GLL5        0.0000 
      3 CA        -40.2070   15.9950   17.0610 C.3       6 GLP5        0.0000 
      4 CA        -43.6850   15.1955   13.8850 C.3       3 GLC5        0.0000 
      5 CA        -43.3400   15.1520   11.8220 C.3       9 GLL5        0.0000 
      6 CA        -44.0300   15.2390   15.9480 C.3       6 GLP5        0.0000 
      7 CA        -45.2120   14.2710   12.0650 C.3       3 GLC5        0.0000 
      8 CA        -47.0840   13.3900   12.3080 C.3       6 GLP5        0.0000 
      9 CA        -45.7930   18.0790   13.3830 C.3       3 GLC5        0.0000 
     10 CA        -46.0200   19.0500   11.4440 C.3       9 GLL5        0.0000 
     11 CA        -45.5660   17.1080   15.3220 C.3       6 GLP5        0.0000 
     12 CA        -47.5385   18.2720   12.3345 C.3       3 GLC5        0.0000 
     13 CA        -49.0570   17.4940   13.2250 C.3       6 GLP5        0.0000 
     14 CA        -46.1775   19.4170    9.4305 C.3       3 GLC5        0.0000 
     15 CA        -46.3350   19.7840    7.4170 C.3       6 GLP5        0.0000 
     16 CA        -40.2095   13.7530   15.0575 C.3       3 GLC5        0.0000 
     17 CA        -40.1420   14.0330   12.9060 C.3       9 GLL5        0.0000 
     18 CA        -40.2770   13.4730   17.2090 C.3       6 GLP5        0.0000 
     19 CA        -39.3550   12.3430   13.9740 C.3       3 GLC5        0.0000 
     20 CA        -38.5680   10.6530   15.0420 C.3       6 GLP5        0.0000 
     21 CA        -39.1195   13.0255   11.3080 C.3       3 GLC5        0.0000 
     22 CA        -38.0970   12.0180    9.7100 C.3       6 GLP5        0.0000 
     23 CA        -47.8535   17.2545   11.9270 C.3       3 GLC5        0.0000 
     24 CA        -46.6500   17.0150   10.6290 C.3       9 GLL5        0.0000 
     25 CA        -46.8670   15.2025   11.4685 C.3       3 GLC5        0.0000 
     26 CA        -45.0340   16.9620    9.3240 C.3       3 GLC5        0.0000 
     27 CA        -43.4180   16.9090    8.0190 C.3       6 GLP5        0.0000 
     28 CA        -46.9790   17.8110    8.9475 C.3       3 GLC5        0.0000 
     29 CA        -47.3080   18.6070    7.2660 C.3       6 GLP5        0.0000 
     30 CA        -46.8985   20.3930    9.2580 C.3       3 GLC5        0.0000 
     31 CA        -47.4620   21.0020   11.0990 C.3       9 GLL5        0.0000 
     32 CA        -43.7425   20.5735   15.3365 C.3       3 GLC5        0.0000 
     33 CA        -45.6720   20.9480   14.3450 C.3       9 GLL5        0.0000 
     34 CA        -41.8130   20.1990   16.3280 C.3       6 GLP5        0.0000 
     35 CA        -44.8755   21.9900   15.8755 C.3       3 GLC5        0.0000 
     36 CA        -44.0790   23.0320   17.4060 C.3       6 GLP5        0.0000 
     37 CA        -45.6190   19.0280   14.8335 C.3       3 GLC5        0.0000 
     38 CA        -53.1105   23.3755   14.9040 C.3       3 GLC5        0.0000 
     39 CA        -53.1510   22.1240   13.4730 C.3       9 GLL5        0.0000 
     40 CA        -53.0700   24.6270   16.3350 C.3       6 GLP5        0.0000 
     41 CA        -51.8445   21.2870   15.0300 C.3       3 GLC5        0.0000 
     42 CA        -50.5380   20.4500   16.5870 C.3       6 GLP5        0.0000 
     43 CA        -53.4245   20.4310   14.5545 C.3       3 GLC5        0.0000 
     44 CA        -53.6980   18.7380   15.6360 C.3       6 GLP5        0.0000 
     45 CA        -54.9575   20.8880   13.4195 C.3       3 GLC5        0.0000 
     46 CA        -56.7640   19.6520   13.3660 C.3       6 GLP5        0.0000 
     47 CA        -54.9915   22.9195   10.2375 C.3       3 GLC5        0.0000 
     48 CA        -53.5610   23.2920   11.3170 C.3       9 GLL5        0.0000 
     49 CA        -56.4220   22.5470    9.1580 C.3       6 GLP5        0.0000 
     50 CA        -54.8070   21.7125   10.2265 C.3       3 GLC5        0.0000 
     51 CA        -53.1920   20.8780   11.2950 C.3       9 GLL5        0.0000 
     52 CA        -54.9780   20.2650   12.3305 C.3       3 GLC5        0.0000 
     53 CA        -53.2085   20.4685    9.1680 C.3       3 GLC5        0.0000 
     54 CA        -53.2250   20.0590    7.0410 C.3       6 GLP5        0.0000 
     55 N         -45.3730   15.8980    9.7355 N.am      2 SEC2        0.0000 
     56 N         -45.4950   16.4440   11.0000 N.am      8 SEL2        0.0000 
     57 N         -45.2510   15.3520    8.4710 N.am      5 SEP2        0.0000 
     58 N         -48.2775   18.2385   11.4245 N.am      2 SEC2        0.0000 
     59 N         -46.9520   18.3010   10.8420 N.am      8 SEL2        0.0000 
     60 N         -49.6030   18.1760   12.0070 N.am      5 SEP2        0.0000 
     61 O         -37.6740   13.3555   12.7050 O.2       1 ALC1        0.0000 
     62 O         -38.8970   14.1940   13.4270 O.2       7 ALL1        0.0000 
     63 O         -36.4510   12.5170   11.9830 O.2       4 ALP1        0.0000 
     64 O         -48.9505   16.7420    9.5145 O.2       1 ALC1        0.0000 
     65 O         -47.6110   16.2260    9.9840 O.2       7 ALL1        0.0000 
     66 O         -50.2900   17.2580    9.0450 O.2       4 ALP1        0.0000 
     67 N         -50.2080   20.7480   14.1955 N.am      2 SEC2        0.0000 
     68 N         -50.6600   20.6440   12.9150 N.am      8 SEL2        0.0000 
     69 N         -49.7560   20.8520   15.4760 N.am      5 SEP2        0.0000 
     70 N         -50.1315   19.4100   12.4610 N.am      2 SEC2        0.0000 
     71 CA        -41.0115   16.0230   11.1545 C.3       3 GLC5        0.0000 
     72 CA        -42.2820   17.1410   12.6000 C.3       9 GLL5        0.0000 
     73 CA        -40.3200   15.2410    9.5350 C.3       6 GLP5        0.0000 
     74 CA        -41.8390   15.5362   10.7320 C.3       3 GLC5        0.0000 
     75 CA        -43.3760   16.5110   12.0360 C.3       9 GLL5        0.0000 
     76 CA        -43.3880   16.3702    9.9740 C.3       3 GLC5        0.0000 
     77 CA        -44.0568   17.3918    9.8845 C.3       3 GLC5        0.0000 
     78 CA        -44.8070   18.5420   11.8730 C.3       9 GLL5        0.0000 
     79 CA        -42.7115   15.5953   14.3485 C.3       3 GLC5        0.0000 
     80 CA        -41.8152   13.1662   13.8575 C.3       3 GLC5        0.0000 
     81 CA        -41.0830   15.0980   12.7240 C.3       9 GLL5        0.0000 
     82 CA        -43.0180   11.7670   14.9000 C.3       6 GLP5        0.0000 
     83 CA        -40.4663   14.9032   11.1750 C.3       3 GLC5        0.0000 
     84 CA        -44.8009   17.1504   13.6075 C.3       3 GLC5        0.0000 
     85 CA        -46.6223   23.6625   14.5258 C.3       3 GLC5        0.0000 
     86 CA        -45.6510   21.9650   13.2290 C.3       9 GLL5        0.0000 
     87 CA        -46.8960   25.0580   15.9170 C.3       6 GLP5        0.0000 
     88 CA        -48.4038   19.4042   12.4765 C.3       3 GLC5        0.0000 
     89 CA        -48.0390   21.6270   12.3570 C.3       9 GLL5        0.0000 
@<TRIPOS>BOND
@<TRIPOS>SUBSTRUCTURE
     1 ALC1       61 GROUP        1 X    ALC  0     ROOT ALC X 1
     2 SEC2       55 GROUP        1 X    SEC  0     **** SEC X 2
     3 GLC5        1 GROUP        1 X    GLC  0     **** GLC X 6
     4 ALP1       63 GROUP        1 Y    ALP  0     ROOT ALP Y 8
     5 SEP2       57 GROUP        1 Y    SEP  0     **** SEP Y 9
     6 GLP5        3 GROUP        1 Y    GLP  0     **** GLP Y 13
     7 ALL1       62 GROUP        1 Z    ALL  0     ROOT ALL Z 15
     8 SEL2       56 GROUP        1 Z    SEL  0     **** SEL Z 16
     9 GLL5        2 GROUP        1 Z    GLL  0     **** GLL Z 20
@<TRIPOS>SET

