#    Name: 3qd4_3Q6_1_ligand
#    Modification time : Tue Mar 25 09:40:06 2014

@<TRIPOS>MOLECULE
3qd4_3Q6_1_ligand
   62    65     1     0     0
SMALL
NO_CHARGES


@<TRIPOS>ATOM
      1 C1        -41.1240   16.4690   12.9480 C.ar      1 3Q6360      0.0000 
      2 C2        -42.2820   17.1410   12.6000 C.ar      1 3Q6360      0.0000 
      3 C3        -43.3400   15.1520   11.8220 C.ar      1 3Q6360      0.0000 
      4 C4        -44.8070   18.5420   11.8730 C.ar      1 3Q6360      0.0000 
      5 C5        -41.0830   15.0980   12.7240 C.ar      1 3Q6360      0.0000 
      6 C6        -43.3760   16.5110   12.0360 C.ar      1 3Q6360      0.0000 
      7 C7        -42.1900   14.4870   12.1790 C.ar      1 3Q6360      0.0000 
      8 C8        -44.5840   17.2070   11.6270 C.ar      1 3Q6360      0.0000 
      9 C9        -46.0200   19.0500   11.4440 C.ar      1 3Q6360      0.0000 
     10 C10       -40.1420   14.0330   12.9060 C.2       1 3Q6360      0.0000 
     11 C11       -46.6500   17.0150   10.6290 C.ar      1 3Q6360      0.0000 
     12 C12       -50.4740   21.7030   12.3330 C.2       1 3Q6360      0.0000 
     13 C13       -47.0460   22.5690   13.0400 C.3       1 3Q6360      0.0000 
     14 C14       -45.1710   21.2820   11.9550 C.3       1 3Q6360      0.0000 
     15 C15       -47.4620   21.0020   11.0990 C.3       1 3Q6360      0.0000 
     16 C16       -45.6510   21.9650   13.2290 C.3       1 3Q6360      0.0000 
     17 C17       -48.0390   21.6270   12.3570 C.3       1 3Q6360      0.0000 
     18 C18       -45.6720   20.9480   14.3450 C.3       1 3Q6360      0.0000 
     19 C19       -53.1510   22.1240   13.4730 C.3       1 3Q6360      0.0000 
     20 C20       -53.5610   23.2920   11.3170 C.3       1 3Q6360      0.0000 
     21 C21       -53.1920   20.8780   11.2950 C.3       1 3Q6360      0.0000 
     22 C22       -52.8070   22.1660   11.9910 C.3       1 3Q6360      0.0000 
     23 N23       -45.4950   16.4440   11.0000 N.ar      1 3Q6360      0.0000 
     24 N24       -46.9520   18.3010   10.8420 N.ar      1 3Q6360      0.0000 
     25 N25       -40.6410   12.8620   12.4980 N.pl3     1 3Q6360      0.0000 
     26 N26       -41.8770   13.1570   12.0670 N.2       1 3Q6360      0.0000 
     27 N27       -46.3020   20.4020   11.7270 N.3       1 3Q6360      0.0000 
     28 N28       -38.8970   14.1940   13.4270 N.pl3     1 3Q6360      0.0000 
     29 N29       -47.6110   16.2260    9.9840 N.pl3     1 3Q6360      0.0000 
     30 N30       -49.2690   22.3130   12.0960 N.am      1 3Q6360      0.0000 
     31 O31       -50.6600   20.6440   12.9150 O.2       1 3Q6360      0.0000 
     32 O32       -51.4270   22.4970   11.7890 O.3       1 3Q6360      0.0000 
     33 H         -40.3328   16.9559   13.3517 H         1 3Q6360      0.0000 
     34 H         -42.3322   18.1769   12.7721 H         1 3Q6360      0.0000 
     35 H         -44.1301   14.6606   11.4172 H         1 3Q6360      0.0000 
     36 H         -44.1276   19.1202   12.3390 H         1 3Q6360      0.0000 
     37 H         -46.9576   23.4897   12.4428 H         1 3Q6360      0.0000 
     38 H         -47.4457   22.8573   14.0245 H         1 3Q6360      0.0000 
     39 H         -44.2902   20.7452   12.1652 H         1 3Q6360      0.0000 
     40 H         -45.0740   22.0039   11.1950 H         1 3Q6360      0.0000 
     41 H         -47.1980   21.7597   10.4296 H         1 3Q6360      0.0000 
     42 H         -48.1280   20.2830   10.7367 H         1 3Q6360      0.0000 
     43 H         -44.9612   22.7502   13.4838 H         1 3Q6360      0.0000 
     44 H         -48.2283   20.8009   13.0738 H         1 3Q6360      0.0000 
     45 H         -40.2209   12.0158   12.5092 H         1 3Q6360      0.0000 
     46 H         -38.8016   14.8999   14.1288 H         1 3Q6360      0.0000 
     47 H         -38.1863   13.5923   13.0624 H         1 3Q6360      0.0000 
     48 H         -47.3517   15.2774    9.8025 H         1 3Q6360      0.0000 
     49 H         -48.4740   16.6789    9.7603 H         1 3Q6360      0.0000 
     50 H         -49.2194   23.2729   11.7270 H         1 3Q6360      0.0000 
     51 H         -44.7713   20.5391   14.4918 H         1 3Q6360      0.0000 
     52 H         -45.9540   21.3555   15.2136 H         1 3Q6360      0.0000 
     53 H         -46.3062   20.1990   14.1530 H         1 3Q6360      0.0000 
     54 H         -52.6662   21.3883   13.9461 H         1 3Q6360      0.0000 
     55 H         -52.9102   22.9779   13.9345 H         1 3Q6360      0.0000 
     56 H         -54.1284   21.9751   13.6233 H         1 3Q6360      0.0000 
     57 H         -53.3321   24.1814   11.7128 H         1 3Q6360      0.0000 
     58 H         -53.3550   23.3443   10.3398 H         1 3Q6360      0.0000 
     59 H         -54.5510   23.1793   11.4022 H         1 3Q6360      0.0000 
     60 H         -52.9701   20.9019   10.3202 H         1 3Q6360      0.0000 
     61 H         -52.7168   20.0890   11.6845 H         1 3Q6360      0.0000 
     62 H         -54.1724   20.6951   11.3680 H         1 3Q6360      0.0000 
@<TRIPOS>BOND
     1    2    1 ar   
     2    5    1 ar   
     3   33    1 1    
     4    6    2 ar   
     5   34    2 1    
     6    6    3 ar   
     7    7    3 ar   
     8   35    3 1    
     9    8    4 ar   
    10    9    4 ar   
    11   36    4 1    
    12    7    5 ar   
    13   10    5 2    
    14    8    6 1    
    15   26    7 2    
    16   23    8 ar   
    17   24    9 ar   
    18   27    9 1    
    19   25   10 1    
    20   28   10 1    
    21   23   11 ar   
    22   24   11 ar   
    23   29   11 1    
    24   30   12 am   
    25   31   12 2    
    26   32   12 1    
    27   16   13 1    
    28   17   13 1    
    29   37   13 1    
    30   38   13 1    
    31   16   14 1    
    32   27   14 1    
    33   39   14 1    
    34   40   14 1    
    35   17   15 1    
    36   27   15 1    
    37   41   15 1    
    38   42   15 1    
    39   18   16 1    
    40   43   16 1    
    41   30   17 1    
    42   44   17 1    
    43   51   18 1    
    44   52   18 1    
    45   53   18 1    
    46   22   19 1    
    47   54   19 1    
    48   55   19 1    
    49   56   19 1    
    50   22   20 1    
    51   57   20 1    
    52   58   20 1    
    53   59   20 1    
    54   22   21 1    
    55   60   21 1    
    56   61   21 1    
    57   62   21 1    
    58   32   22 1    
    59   26   25 1    
    60   45   25 1    
    61   46   28 1    
    62   47   28 1    
    63   48   29 1    
    64   49   29 1    
    65   50   30 1    
@<TRIPOS>SUBSTRUCTURE
     1 3Q6360      1 GROUP   
@<TRIPOS>SET

