#    Name: 1qp8_NDP_1_INTS_M
#    Modification time : Mon Mar 24 23:46:06 2014

@<TRIPOS>MOLECULE
1qp8_NDP_1_INTS_M
   77     0    12     0     0
SMALL
NO_CHARGES


@<TRIPOS>ATOM
      1 N          32.8795   -3.5355   97.6330 N.am      2 SEC2        0.0000 
      2 N          32.5880   -3.8390   99.1600 N.am     10 SEL2        0.0000 
      3 N          33.1710   -3.2320   96.1060 N.am      6 SEP2        0.0000 
      4 N          32.6305   -5.2635   98.6185 N.am      2 SEC2        0.0000 
      5 N          32.6730   -6.6880   98.0770 N.am      6 SEP2        0.0000 
      6 O          32.3785   -2.8000   98.6885 O.2       1 ALC1        0.0000 
      7 O          32.5880   -3.8390   99.1600 O.2       9 ALL1        0.0000 
      8 O          32.1690   -1.7610   98.2170 O.2       5 ALP1        0.0000 
      9 CA         37.0595   -3.1375   99.6725 C.3       4 GLC5        0.0000 
     10 CA         35.3390   -4.2780  100.0040 C.3      12 GLL5        0.0000 
     11 CA         38.7800   -1.9970   99.3410 C.3       8 GLP5        0.0000 
     12 N          39.9075   -5.2280  102.2640 N.am      2 SEC2        0.0000 
     13 N          38.4700   -5.1590  101.6420 N.am     10 SEL2        0.0000 
     14 N          41.3450   -5.2970  102.8860 N.am      6 SEP2        0.0000 
     15 CA         37.8350   -8.6790  100.7595 C.3       4 GLC5        0.0000 
     16 CA         39.1590   -7.1780  100.2050 C.3      12 GLL5        0.0000 
     17 CA         36.5110  -10.1800  101.3140 C.3       8 GLP5        0.0000 
     18 CA         35.6990   -7.7395   97.4260 C.3       4 GLC5        0.0000 
     19 CA         37.5230   -7.5890   98.5060 C.3      12 GLL5        0.0000 
     20 CA         33.8750   -7.8900   96.3460 C.3       8 GLP5        0.0000 
     21 CA         36.4810   -8.4375   99.6070 C.3       4 GLC5        0.0000 
     22 CA         35.4390   -9.2860  100.7080 C.3       8 GLP5        0.0000 
     23 CA         37.8750   -5.9830   97.1895 C.3       4 GLC5        0.0000 
     24 CA         38.2270   -4.3770   95.8730 C.3       8 GLP5        0.0000 
     25 N          35.5960   -7.7180   98.6635 N.am      2 SEC2        0.0000 
     26 N          36.7090   -6.6010   98.8340 N.am     10 SEL2        0.0000 
     27 N          34.4830   -8.8350   98.4930 N.am      6 SEP2        0.0000 
     28 CA         37.7095   -5.1220   97.8885 C.3       4 GLC5        0.0000 
     29 CA         37.1920   -5.8670   99.9040 C.3      12 GLL5        0.0000 
     30 N          33.1050    3.1915   97.5945 N.am      2 SEC2        0.0000 
     31 N          34.2290    2.6230   98.2250 N.am     10 SEL2        0.0000 
     32 N          31.9810    3.7600   96.9640 N.am      6 SEP2        0.0000 
     33 CA         37.7405    4.9180  101.4000 C.3       4 GLC5        0.0000 
     34 CA         37.4490    3.1080  100.3150 C.3      12 GLL5        0.0000 
     35 CA         38.0320    6.7280  102.4850 C.3       8 GLP5        0.0000 
     36 CA         36.6485    4.3855   98.6725 C.3       4 GLC5        0.0000 
     37 CA         35.8480    5.6630   97.0300 C.3       8 GLP5        0.0000 
     38 CA         37.9575    0.9395  100.4450 C.3       4 GLC5        0.0000 
     39 CA         38.4660   -1.2290  100.5750 C.3       8 GLP5        0.0000 
     40 CA         38.9725    5.0590  101.6375 C.3       4 GLC5        0.0000 
     41 CA         39.9130    3.3900  100.7900 C.3      12 GLL5        0.0000 
     42 CA         41.0330    3.7820   96.8860 C.3       4 GLC5        0.0000 
     43 CA         40.3590    4.2540   98.5480 C.3      12 GLL5        0.0000 
     44 CA         41.7070    3.3100   95.2240 C.3       8 GLP5        0.0000 
     45 CA         41.2720    4.8575   96.2730 C.3       4 GLC5        0.0000 
     46 CA         40.8370    6.4050   97.3220 C.3      12 GLL5        0.0000 
     47 CA         37.6460    6.0950   98.2080 C.3       4 GLC5        0.0000 
     48 CA         39.4440    6.5270   99.3860 C.3      12 GLL5        0.0000 
     49 N          32.9770   -8.6175  101.6785 N.am      2 SEC2        0.0000 
     50 N          33.3420   -7.5520  102.6880 N.am     10 SEL2        0.0000 
     51 N          32.6120   -9.6830  100.6690 N.am      6 SEP2        0.0000 
     52 N          32.0745   -7.7765  102.4395 N.am      2 SEC2        0.0000 
     53 N          30.8070   -8.0010  102.1910 N.am      6 SEP2        0.0000 
     54 NZ         36.1815   -6.3915  103.9700 N.4       3 LYC4        0.0000 
     55 NZ         34.7170   -5.6180  103.5990 N.4      11 LYL4        0.0000 
     56 NZ         37.6480   -8.3260  103.6960 N.4       7 LYP4        0.0000 
     57 N          36.1815   -6.3915  103.9700 N.am      2 SEC2        0.0000 
     58 N          34.7170   -5.6180  103.5990 N.am     10 SEL2        0.0000 
     59 N          37.6460   -7.1650  104.3410 N.am      6 SEP2        0.0000 
     60 N          31.5615   -6.6345  102.6335 N.am      2 SEC2        0.0000 
     61 N          32.3160   -5.2680  103.0760 N.am     10 SEL2        0.0000 
     62 CA         36.4202   -1.5400  100.6735 C.3       4 GLC5        0.0000 
     63 CA         34.1940   -2.2510  100.1200 C.3      12 GLL5        0.0000 
     64 CA         36.6003   -7.6280  100.4868 C.3       4 GLC5        0.0000 
     65 CA         38.2708   -3.9835   99.8032 C.3       4 GLC5        0.0000 
     66 CA         40.3640   -6.1947   99.6490 C.3       4 GLC5        0.0000 
     67 CA         38.3310   -6.0730  100.6270 C.3      12 GLL5        0.0000 
     68 CA         41.9830   -5.7640   98.8820 C.3       8 GLP5        0.0000 
     69 CA         40.0605    1.1980  100.1495 C.3       4 GLC5        0.0000 
     70 CA         38.8770    2.8600   99.8000 C.3      12 GLL5        0.0000 
     71 CA         40.7260   -0.7290  100.0040 C.3       8 GLP5        0.0000 
     72 CA         41.0282    3.9373  102.1578 C.3       4 GLC5        0.0000 
     73 CA         41.5640    4.2770  103.9980 C.3       8 GLP5        0.0000 
     74 CA         38.1732    9.0203   97.4603 C.3       4 GLC5        0.0000 
     75 CA         39.3530    7.8740   99.2070 C.3      12 GLL5        0.0000 
     76 CA         36.6980    9.7840   96.2480 C.3       8 GLP5        0.0000 
     77 CA         38.7152    6.9642  100.8907 C.3       4 GLC5        0.0000 
@<TRIPOS>BOND
@<TRIPOS>SUBSTRUCTURE
     1 ALC1        6 GROUP        1 X    ALC  0     ROOT ALC X 1
     2 SEC2        1 GROUP        1 X    SEC  0     **** SEC X 2
     3 LYC4       54 GROUP        1 X    LYC  0     **** LYC X 4
     4 GLC5        9 GROUP        1 X    GLC  0     **** GLC X 6
     5 ALP1        8 GROUP        1 Y    ALP  0     ROOT ALP Y 8
     6 SEP2        3 GROUP        1 Y    SEP  0     **** SEP Y 9
     7 LYP4       56 GROUP        1 Y    LYP  0     **** LYP Y 11
     8 GLP5       11 GROUP        1 Y    GLP  0     **** GLP Y 13
     9 ALL1        7 GROUP        1 Z    ALL  0     ROOT ALL Z 15
    10 SEL2        2 GROUP        1 Z    SEL  0     **** SEL Z 16
    11 LYL4       55 GROUP        1 Z    LYL  0     **** LYL Z 18
    12 GLL5       10 GROUP        1 Z    GLL  0     **** GLL Z 20
@<TRIPOS>SET

