#    Name: 1qp8_NDP_1_ligand
#    Modification time : Mon Mar 24 23:46:06 2014

@<TRIPOS>MOLECULE
1qp8_NDP_1_ligand
   74    78     1     0     0
SMALL
NO_CHARGES


@<TRIPOS>ATOM
      1 PA         34.6380    1.0580  102.0400 P.3       1 NDP310      0.0000 
      2 O1A        35.8600    0.7890  102.8600 O.co2     1 NDP310      0.0000 
      3 O2A        34.9580    2.4980  102.1480 O.co2     1 NDP310      0.0000 
      4 O5B        35.1890   -0.1560  101.0680 O.3       1 NDP310      0.0000 
      5 C5B        34.5550   -1.4510  101.4240 C.3       1 NDP310      0.0000 
      6 C4B        34.1940   -2.2510  100.1200 C.3       1 NDP310      0.0000 
      7 O4B        35.3430   -2.9270   99.4760 O.3       1 NDP310      0.0000 
      8 C3B        33.2100   -3.4600  100.3750 C.3       1 NDP310      0.0000 
      9 O3B        32.5880   -3.8390   99.1600 O.3       1 NDP310      0.0000 
     10 C2B        34.2270   -4.4440  100.9540 C.3       1 NDP310      0.0000 
     11 O2B        33.9400   -5.7660  101.2300 O.3       1 NDP310      0.0000 
     12 C1B        35.3390   -4.2780  100.0040 C.3       1 NDP310      0.0000 
     13 N9A        36.5720   -4.7970  100.4990 N.pl3     1 NDP310      0.0000 
     14 C8A        37.3790   -4.4000  101.5320 C.2       1 NDP310      0.0000 
     15 N7A        38.4700   -5.1590  101.6420 N.2       1 NDP310      0.0000 
     16 C5A        38.3310   -6.0730  100.6270 C.ar      1 NDP310      0.0000 
     17 C6A        39.1590   -7.1780  100.2050 C.ar      1 NDP310      0.0000 
     18 N6A        40.3010   -7.4510  100.8650 N.pl3     1 NDP310      0.0000 
     19 N1A        38.7200   -7.9310   99.1220 N.ar      1 NDP310      0.0000 
     20 C2A        37.5230   -7.5890   98.5060 C.ar      1 NDP310      0.0000 
     21 N3A        36.7090   -6.6010   98.8340 N.ar      1 NDP310      0.0000 
     22 C4A        37.1920   -5.8670   99.9040 C.ar      1 NDP310      0.0000 
     23 O3         34.4570    1.6080  100.5820 O.3       1 NDP310      0.0000 
     24 PN         34.9220    2.7750   99.5250 P.3       1 NDP310      0.0000 
     25 O1N        34.2290    2.6230   98.2250 O.co2     1 NDP310      0.0000 
     26 O2N        34.7280    4.1510  100.0860 O.co2     1 NDP310      0.0000 
     27 O5D        36.5570    2.5570   99.3170 O.3       1 NDP310      0.0000 
     28 C5D        37.4490    3.1080  100.3150 C.3       1 NDP310      0.0000 
     29 C4D        38.8770    2.8600   99.8000 C.3       1 NDP310      0.0000 
     30 O4D        39.0690    3.5950   98.5670 O.3       1 NDP310      0.0000 
     31 C3D        39.9130    3.3900  100.7900 C.3       1 NDP310      0.0000 
     32 O3D        40.2150    2.3670  101.7250 O.3       1 NDP310      0.0000 
     33 C2D        41.0720    3.8050   99.8450 C.3       1 NDP310      0.0000 
     34 O2D        42.0160    2.7380   99.6630 O.3       1 NDP310      0.0000 
     35 C1D        40.3590    4.2540   98.5480 C.3       1 NDP310      0.0000 
     36 N1N        40.1910    5.7810   98.4440 N.pl3     1 NDP310      0.0000 
     37 C2N        40.8370    6.4050   97.3220 C.2       1 NDP310      0.0000 
     38 C3N        40.6890    7.8100   97.2140 C.2       1 NDP310      0.0000 
     39 C7N        41.3860    8.5260   95.9920 C.2       1 NDP310      0.0000 
     40 O7N        41.1100    9.6940   95.7910 O.2       1 NDP310      0.0000 
     41 N7N        42.2490    7.7890   95.2410 N.am      1 NDP310      0.0000 
     42 C4N        39.9440    8.6390   98.1380 C.3       1 NDP310      0.0000 
     43 C5N        39.3530    7.8740   99.2070 C.2       1 NDP310      0.0000 
     44 C6N        39.4440    6.5270   99.3860 C.2       1 NDP310      0.0000 
     45 P2B        33.5120   -6.0610  102.8480 P.3       1 NDP310      0.0000 
     46 O1X        33.3420   -7.5520  102.6880 O.co2     1 NDP310      0.0000 
     47 O2X        34.7170   -5.6180  103.5990 O.co2     1 NDP310      0.0000 
     48 O3X        32.3160   -5.2680  103.0760 O.co2     1 NDP310      0.0000 
     49 H          33.6346   -1.2955  101.9790 H         1 NDP310      0.0000 
     50 H          35.2293   -2.0674  102.0110 H         1 NDP310      0.0000 
     51 H          33.7092   -1.6084   99.4122 H         1 NDP310      0.0000 
     52 H          32.5708   -3.1425  101.1508 H         1 NDP310      0.0000 
     53 H          34.6149   -3.9030  101.8901 H         1 NDP310      0.0000 
     54 H          35.0329   -4.9536   99.1067 H         1 NDP310      0.0000 
     55 H          37.1601   -3.6338  102.1194 H         1 NDP310      0.0000 
     56 H          40.5070   -6.8652  101.6488 H         1 NDP310      0.0000 
     57 H          40.8411   -8.2152  100.5124 H         1 NDP310      0.0000 
     58 H          37.2466   -8.2208   97.6611 H         1 NDP310      0.0000 
     59 H          37.3439    2.6095  101.2656 H         1 NDP310      0.0000 
     60 H          37.3138    4.1718  100.4299 H         1 NDP310      0.0000 
     61 H          39.0283    1.8214   99.6579 H         1 NDP310      0.0000 
     62 H          39.5064    4.2760  101.2176 H         1 NDP310      0.0000 
     63 H          41.5172    4.6894  100.2840 H         1 NDP310      0.0000 
     64 H          40.9420    3.9014   97.7147 H         1 NDP310      0.0000 
     65 H          41.3545    5.8740   96.6663 H         1 NDP310      0.0000 
     66 H          42.6998    8.2704   94.4893 H         1 NDP310      0.0000 
     67 H          42.3563    6.8310   95.5070 H         1 NDP310      0.0000 
     68 H          39.1508    9.1930   97.5863 H         1 NDP310      0.0000 
     69 H          40.6136    9.4229   98.5595 H         1 NDP310      0.0000 
     70 H          38.7921    8.4499   99.9161 H         1 NDP310      0.0000 
     71 H          38.9986    6.0495  100.1634 H         1 NDP310      0.0000 
     72 H          32.8444   -3.1279   98.5053 H         1 NDP310      0.0000 
     73 H          39.9390    2.7375  102.6119 H         1 NDP310      0.0000 
     74 H          41.7824    2.0637  100.3635 H         1 NDP310      0.0000 
@<TRIPOS>BOND
     1    2    1 ar   
     2    3    1 ar   
     3    4    1 1    
     4   23    1 1    
     5    5    4 1    
     6    6    5 1    
     7   49    5 1    
     8   50    5 1    
     9    7    6 1    
    10    8    6 1    
    11   51    6 1    
    12   12    7 1    
    13    9    8 1    
    14   10    8 1    
    15   52    8 1    
    16   72    9 1    
    17   11   10 1    
    18   12   10 1    
    19   53   10 1    
    20   45   11 1    
    21   13   12 1    
    22   54   12 1    
    23   14   13 1    
    24   22   13 1    
    25   15   14 2    
    26   55   14 1    
    27   16   15 1    
    28   17   16 ar   
    29   22   16 ar   
    30   18   17 1    
    31   19   17 ar   
    32   56   18 1    
    33   57   18 1    
    34   20   19 ar   
    35   21   20 ar   
    36   58   20 1    
    37   22   21 ar   
    38   24   23 1    
    39   25   24 ar   
    40   26   24 ar   
    41   27   24 1    
    42   28   27 1    
    43   29   28 1    
    44   59   28 1    
    45   60   28 1    
    46   30   29 1    
    47   31   29 1    
    48   61   29 1    
    49   35   30 1    
    50   32   31 1    
    51   33   31 1    
    52   62   31 1    
    53   73   32 1    
    54   34   33 1    
    55   35   33 1    
    56   63   33 1    
    57   74   34 1    
    58   36   35 1    
    59   64   35 1    
    60   37   36 1    
    61   44   36 1    
    62   38   37 2    
    63   65   37 1    
    64   39   38 1    
    65   42   38 1    
    66   40   39 2    
    67   41   39 am   
    68   66   41 1    
    69   67   41 1    
    70   43   42 1    
    71   68   42 1    
    72   69   42 1    
    73   44   43 2    
    74   70   43 1    
    75   71   44 1    
    76   46   45 ar   
    77   47   45 ar   
    78   48   45 ar   
@<TRIPOS>SUBSTRUCTURE
     1 NDP310      1 GROUP   
@<TRIPOS>SET

