#    Name: 3tfq_07M_3_INTS_M
#    Modification time : Mon Mar 24 20:01:58 2014

@<TRIPOS>MOLECULE
3tfq_07M_3_INTS_M
   60     0     6     0     0
SMALL
NO_CHARGES


@<TRIPOS>ATOM
      1 CA         32.5670   53.4115  132.6555 C.3       2 GLC5        0.0000 
      2 CA         32.2150   51.6080  133.2540 C.3       6 GLL5        0.0000 
      3 CA         32.9190   55.2150  132.0570 C.3       4 GLP5        0.0000 
      4 CA         34.1100   46.3470  129.7665 C.3       2 GLC5        0.0000 
      5 CA         32.1800   46.4640  128.6830 C.3       6 GLL5        0.0000 
      6 CA         36.0400   46.2300  130.8500 C.3       4 GLP5        0.0000 
      7 CA         32.2565   44.3760  129.0140 C.3       2 GLC5        0.0000 
      8 CA         32.3330   42.2880  129.3450 C.3       4 GLP5        0.0000 
      9 CA         30.1580   46.6050  131.6545 C.3       2 GLC5        0.0000 
     10 CA         31.5670   47.6680  130.6200 C.3       6 GLL5        0.0000 
     11 CA         28.7490   45.5420  132.6890 C.3       4 GLP5        0.0000 
     12 CA         32.2060   46.3010  131.8940 C.3       2 GLC5        0.0000 
     13 CA         32.8450   44.9340  133.1680 C.3       4 GLP5        0.0000 
     14 CA         34.7705   50.5560  125.1065 C.3       2 GLC5        0.0000 
     15 CA         34.5420   49.9820  127.2510 C.3       6 GLL5        0.0000 
     16 CA         34.9990   51.1300  122.9620 C.3       4 GLP5        0.0000 
     17 CA         36.4695   49.6640  126.3295 C.3       2 GLC5        0.0000 
     18 CA         38.3970   49.3460  125.4080 C.3       4 GLP5        0.0000 
     19 CA         36.1280   50.6620  128.5315 C.3       2 GLC5        0.0000 
     20 CA         37.7140   51.3420  129.8120 C.3       4 GLP5        0.0000 
     21 N          34.7935   51.6080  126.5755 N.am      1 SEC2        0.0000 
     22 N          35.0870   49.9820  126.2210 N.am      5 SEL2        0.0000 
     23 N          34.5000   53.2340  126.9300 N.am      3 SEP2        0.0000 
     24 N          34.6440   53.1510  129.9515 N.am      1 SEC2        0.0000 
     25 N          34.7210   52.1030  129.2280 N.am      5 SEL2        0.0000 
     26 N          34.5670   54.1990  130.6750 N.am      3 SEP2        0.0000 
     27 CA         30.7820   48.6065  133.4265 C.3       2 GLC5        0.0000 
     28 CA         31.9010   49.9330  132.6170 C.3       6 GLL5        0.0000 
     29 CA         29.6630   47.2800  134.2360 C.3       4 GLP5        0.0000 
     30 CA         35.7355   51.1710  137.6340 C.3       2 GLC5        0.0000 
     31 CA         35.6790   51.5640  135.7880 C.3       6 GLL5        0.0000 
     32 CA         35.7920   50.7780  139.4800 C.3       4 GLP5        0.0000 
     33 CA         36.6360   53.8430  133.4055 C.3       2 GLC5        0.0000 
     34 CA         35.8060   52.0880  134.4770 C.3       6 GLL5        0.0000 
     35 CA         37.4660   55.5980  132.3340 C.3       4 GLP5        0.0000 
     36 CA         30.1750   50.2225  136.8325 C.3       2 GLC5        0.0000 
     37 CA         32.1620   50.4760  135.9140 C.3       6 GLL5        0.0000 
     38 CA         28.1880   49.9690  137.7510 C.3       4 GLP5        0.0000 
     39 CA         30.9125   48.8780  135.0750 C.3       2 GLC5        0.0000 
     40 CA         32.1840   48.7945  136.6490 C.3       2 GLC5        0.0000 
     41 CA         32.2060   47.1130  137.3840 C.3       4 GLP5        0.0000 
     42 CA         34.4962   53.6837  134.6343 C.3       2 GLC5        0.0000 
     43 CA         33.4600   51.5640  134.1120 C.3       6 GLL5        0.0000 
     44 CA         34.9250   55.5360  135.3940 C.3       4 GLP5        0.0000 
     45 CA         31.7007   52.6085  134.8885 C.3       2 GLC5        0.0000 
     46 CA         30.5640   53.6310  136.0940 C.3       4 GLP5        0.0000 
     47 CA         30.2320   50.5927  132.0648 C.3       2 GLC5        0.0000 
     48 CA         28.4060   50.4150  131.1940 C.3       4 GLP5        0.0000 
     49 CA         31.8773   47.3807  126.4057 C.3       2 GLC5        0.0000 
     50 CA         32.8450   47.6570  127.9720 C.3       6 GLL5        0.0000 
     51 CA         31.2420   47.7010  124.4840 C.3       4 GLP5        0.0000 
     52 CA         33.0853   45.3678  127.2812 C.3       2 GLC5        0.0000 
     53 CA         33.6580   43.6750  126.2350 C.3       4 GLP5        0.0000 
     54 CA         34.3982   47.5295  130.1960 C.3       2 GLC5        0.0000 
     55 CA         32.4530   48.8190  130.1770 C.3       6 GLL5        0.0000 
     56 CA         30.3720   49.7431  130.9551 C.3       2 GLC5        0.0000 
     57 CA         31.6700   52.2048  135.8852 C.3       2 GLC5        0.0000 
     58 CA         35.3337   53.6810  135.2632 C.3       2 GLC5        0.0000 
     59 CA         36.3948   49.8560  134.9652 C.3       2 GLC5        0.0000 
     60 CA         37.0470   47.8860  134.7980 C.3       4 GLP5        0.0000 
@<TRIPOS>BOND
@<TRIPOS>SUBSTRUCTURE
     1 SEC2       21 GROUP        1 X    SEC  0     ROOT SEC X 2
     2 GLC5        1 GROUP        1 X    GLC  0     **** GLC X 6
     3 SEP2       23 GROUP        1 Y    SEP  0     ROOT SEP Y 9
     4 GLP5        3 GROUP        1 Y    GLP  0     **** GLP Y 13
     5 SEL2       22 GROUP        1 Z    SEL  0     ROOT SEL Z 16
     6 GLL5        2 GROUP        1 Z    GLL  0     **** GLL Z 20
@<TRIPOS>SET

