#    Name: 3tfq_07M_3_ligand
#    Modification time : Mon Mar 24 20:01:58 2014

@<TRIPOS>MOLECULE
3tfq_07M_3_ligand
   34    36     1     0     0
SMALL
NO_CHARGES


@<TRIPOS>ATOM
      1 C1         33.4600   51.5640  134.1120 C.ar      1 07M302      0.0000 
      2 C2         32.2150   51.6080  133.2540 C.3       1 07M302      0.0000 
      3 C3         32.1800   46.4640  128.6830 C.3       1 07M302      0.0000 
      4 O4         31.0790   46.8840  129.5100 O.3       1 07M302      0.0000 
      5 C5         31.5670   47.6680  130.6200 C.3       1 07M302      0.0000 
      6 C6         32.8450   47.6570  127.9720 C.3       1 07M302      0.0000 
      7 C7         33.0600   48.8390  128.9070 C.ar      1 07M302      0.0000 
      8 C8         32.4530   48.8190  130.1770 C.ar      1 07M302      0.0000 
      9 C9         32.6660   49.8990  131.0340 C.ar      1 07M302      0.0000 
     10 N10        33.4180   50.9470  130.6580 N.ar      1 07M302      0.0000 
     11 C11        34.0090   50.9950  129.4720 C.ar      1 07M302      0.0000 
     12 C12        33.8950   49.9280  128.5490 C.ar      1 07M302      0.0000 
     13 C13        34.5420   49.9820  127.2510 C.1       1 07M302      0.0000 
     14 N14        35.0870   49.9820  126.2210 N.1       1 07M302      0.0000 
     15 O15        34.7210   52.1030  129.2280 O.co2     1 07M302      0.0000 
     16 S16        31.9010   49.9330  132.6170 S.3       1 07M302      0.0000 
     17 C17        33.3900   51.0810  135.4390 C.ar      1 07M302      0.0000 
     18 N18        34.4920   51.0690  136.2220 N.ar      1 07M302      0.0000 
     19 C19        35.6790   51.5640  135.7880 C.ar      1 07M302      0.0000 
     20 C20        35.8060   52.0880  134.4770 C.ar      1 07M302      0.0000 
     21 C21        34.6750   52.0990  133.6370 C.ar      1 07M302      0.0000 
     22 C22        32.1620   50.4760  135.9140 C.1       1 07M302      0.0000 
     23 N23        31.1710   49.9510  136.2400 N.1       1 07M302      0.0000 
     24 H          32.3207   52.1670  132.3644 H         1 07M302      0.0000 
     25 H          31.3271   51.8119  133.7880 H         1 07M302      0.0000 
     26 H          31.8525   45.7563  127.9049 H         1 07M302      0.0000 
     27 H          32.9582   45.9566  129.2751 H         1 07M302      0.0000 
     28 H          32.1496   47.0399  131.3212 H         1 07M302      0.0000 
     29 H          30.7271   48.0901  131.2049 H         1 07M302      0.0000 
     30 H          32.2110   47.9654  127.1351 H         1 07M302      0.0000 
     31 H          33.8087   47.3326  127.5677 H         1 07M302      0.0000 
     32 H          36.5132   51.5709  136.3985 H         1 07M302      0.0000 
     33 H          36.6957   52.4472  134.1536 H         1 07M302      0.0000 
     34 H          34.7337   52.4878  132.6998 H         1 07M302      0.0000 
@<TRIPOS>BOND
     1    2    1 1    
     2   17    1 ar   
     3   21    1 ar   
     4   16    2 1    
     5   24    2 1    
     6   25    2 1    
     7    4    3 1    
     8    6    3 1    
     9   26    3 1    
    10   27    3 1    
    11    5    4 1    
    12    8    5 1    
    13   28    5 1    
    14   29    5 1    
    15    7    6 1    
    16   30    6 1    
    17   31    6 1    
    18    8    7 ar   
    19   12    7 ar   
    20    9    8 ar   
    21   10    9 ar   
    22   16    9 1    
    23   11   10 ar   
    24   12   11 ar   
    25   15   11 ar   
    26   13   12 1    
    27   14   13 3    
    28   18   17 ar   
    29   22   17 1    
    30   19   18 ar   
    31   20   19 ar   
    32   32   19 1    
    33   21   20 ar   
    34   33   20 1    
    35   34   21 1    
    36   23   22 3    
@<TRIPOS>SUBSTRUCTURE
     1 07M302      1 GROUP   
@<TRIPOS>SET

