#    Name: 3LM8_2_CAVITY_N1_6.mol2
#    Modification time : Tue Mar 11 11:43:30 2014

@<TRIPOS>MOLECULE
3LM8_2_CAVITY_N1_6.mol2
   72     0     7     0     0
SMALL
NO_CHARGES


@<TRIPOS>ATOM
      1 OD1        11.5620   19.7227  -51.2652 O.3       3 ASP3        0.0000 
      2 OG          9.9636   21.4204  -49.3776 O.2       1 SER1        0.0000 
      3 CA          9.9073   19.3875  -49.9809 C.3       6 GLY6        0.0000 
      4 CZ          9.1081   20.2363  -49.0371 C.ar      5 PHE5        0.0000 
      5 N           9.0517   18.2034  -49.6403 N.2       2 ALA2        0.0000 
      6 DU          8.2525   19.0522  -48.6965 H         7 CUB7        0.0000 
      7 N           8.1962   17.0193  -49.2998 N.2       2 ALA2        0.0000 
      8 O          17.1884   17.5816  -44.5749 O.2       2 ALA2        0.0000 
      9 O          16.3328   16.3975  -44.2344 O.2       2 ALA2        0.0000 
     10 O          15.5336   17.2463  -43.2906 O.2       2 ALA2        0.0000 
     11 CA         14.6781   16.0622  -42.9501 C.3       6 GLY6        0.0000 
     12 O          12.4997   19.3659  -50.1501 O.2       2 ALA2        0.0000 
     13 DU         11.7005   20.2147  -49.2063 H         7 CUB7        0.0000 
     14 DU         10.9013   21.0636  -48.2626 H         7 CUB7        0.0000 
     15 N          11.6442   18.1817  -49.8096 N.2       2 ALA2        0.0000 
     16 N          10.8450   19.0306  -48.8658 N.2       2 ALA2        0.0000 
     17 DU         10.0458   19.8795  -47.9220 H         7 CUB7        0.0000 
     18 N           9.9895   17.8465  -48.5253 N.2       2 ALA2        0.0000 
     19 N           9.1903   18.6954  -47.5815 N.2       2 ALA2        0.0000 
     20 N           9.1339   16.6624  -48.1847 N.2       2 ALA2        0.0000 
     21 N           8.3347   17.5113  -47.2410 N.2       2 ALA2        0.0000 
     22 N           9.0776   14.6294  -48.7880 N.2       2 ALA2        0.0000 
     23 CA          8.2784   15.4783  -47.8442 C.3       6 GLY6        0.0000 
     24 CA          7.4229   14.2942  -47.5037 C.3       6 GLY6        0.0000 
     25 CA         14.4574   17.1112  -46.4645 C.3       6 GLY6        0.0000 
     26 CA         13.6582   17.9600  -45.5207 C.3       6 GLY6        0.0000 
     27 OG         12.8590   18.8089  -44.5769 O.2       1 SER1        0.0000 
     28 NZ         13.6018   15.9271  -46.1239 N.2       4 LYS4        0.0000 
     29 N          12.8026   16.7759  -45.1801 N.2       2 ALA2        0.0000 
     30 CA         12.0034   17.6248  -44.2364 C.3       6 GLY6        0.0000 
     31 OG         12.7463   14.7430  -45.7834 O.2       1 SER1        0.0000 
     32 CA         18.7609   19.4578  -47.3148 C.3       6 GLY6        0.0000 
     33 CA         17.9054   18.2737  -46.9742 C.3       6 GLY6        0.0000 
     34 CA         17.1062   19.1225  -46.0305 C.3       6 GLY6        0.0000 
     35 CA         16.2506   17.9384  -45.6899 C.3       6 GLY6        0.0000 
     36 O          15.4514   18.7873  -44.7462 O.2       2 ALA2        0.0000 
     37 OG         16.1943   15.9055  -46.2932 O.2       1 SER1        0.0000 
     38 CA         15.3951   16.7543  -45.3494 C.3       6 GLY6        0.0000 
     39 CA         14.5959   17.6032  -44.4056 C.3       6 GLY6        0.0000 
     40 NZ         14.5396   15.5702  -45.0089 N.2       4 LYS4        0.0000 
     41 CA         13.7404   16.4191  -44.0651 C.3       6 GLY6        0.0000 
     42 OG         13.6840   14.3861  -44.6683 O.2       1 SER1        0.0000 
     43 CA         12.8848   15.2350  -43.7246 C.3       6 GLY6        0.0000 
     44 OG         13.6323   21.5340  -46.3730 O.2       1 SER1        0.0000 
     45 CA         13.5760   19.5010  -46.9763 C.3       6 GLY6        0.0000 
     46 CA         12.7768   20.3499  -46.0325 C.3       6 GLY6        0.0000 
     47 CA         13.5197   17.4680  -47.5795 C.3       6 GLY6        0.0000 
     48 CA         12.7205   18.3169  -46.6357 C.3       6 GLY6        0.0000 
     49 N          11.9212   19.1658  -45.6919 N.2       2 ALA2        0.0000 
     50 NZ         12.6641   16.2839  -47.2390 N.2       4 LYS4        0.0000 
     51 N          11.8649   17.1328  -46.2952 N.2       2 ALA2        0.0000 
     52 N          11.0657   17.9817  -45.3514 N.2       2 ALA2        0.0000 
     53 NZ         11.8086   15.0998  -46.8984 N.2       4 LYS4        0.0000 
     54 N          11.0094   15.9487  -45.9547 N.2       2 ALA2        0.0000 
     55 OG         10.9530   13.9157  -46.5579 O.2       1 SER1        0.0000 
     56 CA         18.6224   18.9658  -49.3736 C.3       6 GLY6        0.0000 
     57 OG         15.3693   20.3282  -46.2017 O.2       1 SER1        0.0000 
     58 CA         14.5137   19.1441  -45.8612 C.3       6 GLY6        0.0000 
     59 CA         14.2930   20.1931  -49.3756 C.3       6 GLY6        0.0000 
     60 CA         13.4375   19.0090  -49.0351 C.3       6 GLY6        0.0000 
     61 CA         12.6383   19.8579  -48.0913 C.3       6 GLY6        0.0000 
     62 CA         11.8391   20.7067  -47.1475 C.3       6 GLY6        0.0000 
     63 DU         11.7827   18.6738  -47.7508 H         7 CUB7        0.0000 
     64 N          10.9835   19.5226  -46.8070 N.2       2 ALA2        0.0000 
     65 N          11.7264   16.6408  -48.3540 N.2       2 ALA2        0.0000 
     66 N          10.9272   17.4897  -47.4102 N.2       2 ALA2        0.0000 
     67 N          10.1280   18.3385  -46.4665 N.2       2 ALA2        0.0000 
     68 N          10.8709   15.4567  -48.0135 N.2       2 ALA2        0.0000 
     69 N          10.0717   16.3056  -47.0697 N.2       2 ALA2        0.0000 
     70 N          10.0153   14.2726  -47.6729 N.2       2 ALA2        0.0000 
     71 CA          9.2161   15.1215  -46.7292 C.3       6 GLY6        0.0000 
     72 CA          9.1598   13.0885  -47.3324 C.3       6 GLY6        0.0000 
@<TRIPOS>BOND
@<TRIPOS>SUBSTRUCTURE
     1 SER1        2 GROUP   
     2 ALA2        5 GROUP   
     3 ASP3        1 GROUP   
     4 LYS4       28 GROUP   
     5 PHE5        4 GROUP   
     6 GLY6        3 GROUP   
     7 CUB7        6 GROUP   
@<TRIPOS>SET

