#    Name: 3lm8_VIB_2_INTS_M
#    Modification time : Mon Mar 24 21:49:29 2014

@<TRIPOS>MOLECULE
3lm8_VIB_2_INTS_M
   39     0     3     0     0
SMALL
NO_CHARGES


@<TRIPOS>ATOM
      1 CA          2.6355   19.6360  -42.1010 C.3       1 GLC5        0.0000 
      2 CA          3.6160   18.4850  -43.7320 C.3       3 GLL5        0.0000 
      3 CA          1.6550   20.7870  -40.4700 C.3       2 GLP5        0.0000 
      4 CA          2.1420   17.8935  -42.8375 C.3       1 GLC5        0.0000 
      5 CA          0.6680   17.3020  -41.9430 C.3       2 GLP5        0.0000 
      6 CA          4.3160   16.6295  -44.2035 C.3       1 GLC5        0.0000 
      7 CA          5.0160   14.7740  -44.6750 C.3       2 GLP5        0.0000 
      8 CA          4.0155   17.2735  -42.3695 C.3       1 GLC5        0.0000 
      9 CA          4.4150   16.0620  -41.0070 C.3       2 GLP5        0.0000 
     10 CA          8.6985   22.8245  -47.4765 C.3       1 GLC5        0.0000 
     11 CA         10.4870   21.8730  -47.5720 C.3       3 GLL5        0.0000 
     12 CA          6.9100   23.7760  -47.3810 C.3       2 GLP5        0.0000 
     13 CA         12.8120   17.4110  -50.4845 C.3       1 GLC5        0.0000 
     14 CA         12.9610   19.0950  -49.1090 C.3       3 GLL5        0.0000 
     15 CA         12.6630   15.7270  -51.8600 C.3       2 GLP5        0.0000 
     16 CA          7.4130   22.2280  -47.1390 C.3       1 GLC5        0.0000 
     17 CA          7.9160   20.6800  -46.8970 C.3       3 GLL5        0.0000 
     18 CA          5.5190   17.2540  -46.3755 C.3       1 GLC5        0.0000 
     19 CA          5.8030   19.2390  -46.6530 C.3       3 GLL5        0.0000 
     20 CA          5.2350   15.2690  -46.0980 C.3       2 GLP5        0.0000 
     21 CA          5.0070   17.1395  -45.3365 C.3       1 GLC5        0.0000 
     22 CA          4.7790   19.0100  -44.5750 C.3       3 GLL5        0.0000 
     23 CA          5.7455   18.2155  -43.1740 C.3       1 GLC5        0.0000 
     24 CA          6.7120   17.4210  -41.7730 C.3       2 GLP5        0.0000 
     25 CA          6.7275   18.8285  -43.2430 C.3       1 GLC5        0.0000 
     26 CA          6.7430   20.2360  -44.7130 C.3       3 GLL5        0.0000 
     27 CA          6.6110   21.6700  -43.3540 C.3       1 GLC5        0.0000 
     28 CA          6.4790   23.1040  -41.9950 C.3       2 GLP5        0.0000 
     29 CA          3.9197   20.4733  -45.1707 C.3       1 GLC5        0.0000 
     30 CA          3.6420   22.1990  -46.1880 C.3       2 GLP5        0.0000 
     31 CA         11.2415   21.5248  -45.6928 C.3       1 GLC5        0.0000 
     32 CA         10.3170   20.3920  -47.2290 C.3       3 GLL5        0.0000 
     33 CA         12.0810   21.9170  -43.9850 C.3       2 GLP5        0.0000 
     34 CA         14.3415   18.7078  -48.5988 C.3       1 GLC5        0.0000 
     35 CA         12.8210   19.7060  -47.7140 C.3       3 GLL5        0.0000 
     36 CA         15.7920   18.0150  -48.7860 C.3       2 GLP5        0.0000 
     37 CA         12.0928   20.7615  -45.7267 C.3       1 GLC5        0.0000 
     38 CA          5.0832   21.0644  -45.8643 C.3       1 GLC5        0.0000 
     39 CA          6.8090   20.0080  -46.0830 C.3       3 GLL5        0.0000 
@<TRIPOS>BOND
@<TRIPOS>SUBSTRUCTURE
     1 GLC5        1 GROUP        1 X    GLC  0     ROOT GLC X 6
     2 GLP5        3 GROUP        1 Y    GLP  0     ROOT GLP Y 13
     3 GLL5        2 GROUP        1 Z    GLL  0     ROOT GLL Z 20
@<TRIPOS>SET

