#    Name: 4e5o_UMP_7_INTS_M
#    Modification time : Tue Mar 25 10:40:11 2014

@<TRIPOS>MOLECULE
4e5o_UMP_7_INTS_M
   21     0     3     0     0
SMALL
NO_CHARGES


@<TRIPOS>ATOM
      1 CA         84.0305  -22.6150  -16.6595 C.3       1 GLC5        0.0000 
      2 CA         86.0920  -22.7120  -16.4680 C.3       3 GLL5        0.0000 
      3 CA         81.9690  -22.5180  -16.8510 C.3       2 GLP5        0.0000 
      4 CA         85.3815  -23.4360  -17.7790 C.3       1 GLC5        0.0000 
      5 CA         84.6710  -24.1600  -19.0900 C.3       2 GLP5        0.0000 
      6 CA         85.1395  -20.1610  -17.6975 C.3       1 GLC5        0.0000 
      7 CA         86.5780  -21.5910  -17.1380 C.3       3 GLL5        0.0000 
      8 CA         83.7010  -18.7310  -18.2570 C.3       2 GLP5        0.0000 
      9 CA         86.6050  -22.5175  -18.7650 C.3       1 GLC5        0.0000 
     10 CA         86.6320  -23.4440  -20.3920 C.3       2 GLP5        0.0000 
     11 CA         87.8845  -21.3730  -19.5900 C.3       1 GLC5        0.0000 
     12 CA         88.4610  -20.2140  -17.9620 C.3       3 GLL5        0.0000 
     13 CA         87.3080  -22.5320  -21.2180 C.3       2 GLP5        0.0000 
     14 CA         88.4370  -20.8440  -20.4265 C.3       1 GLC5        0.0000 
     15 CA         89.5660  -19.1560  -19.6350 C.3       3 GLL5        0.0000 
     16 CA         91.8985  -17.7825  -19.9315 C.3       1 GLC5        0.0000 
     17 CA         90.5170  -19.2800  -20.8410 C.3       3 GLL5        0.0000 
     18 CA         93.2800  -16.2850  -19.0220 C.3       2 GLP5        0.0000 
     19 CA         91.7590  -18.6392  -17.4735 C.3       1 GLC5        0.0000 
     20 CA         90.2330  -18.7600  -18.3240 C.3       3 GLL5        0.0000 
     21 CA         93.5300  -18.0190  -17.1360 C.3       2 GLP5        0.0000 
@<TRIPOS>BOND
@<TRIPOS>SUBSTRUCTURE
     1 GLC5        1 GROUP        1 X    GLC  0     ROOT GLC X 6
     2 GLP5        3 GROUP        1 Y    GLP  0     ROOT GLP Y 13
     3 GLL5        2 GROUP        1 Z    GLL  0     ROOT GLL Z 20
@<TRIPOS>SET

