#    Name: 4e5o_UMP_7_ligand
#    Modification time : Tue Mar 25 10:40:11 2014

@<TRIPOS>MOLECULE
4e5o_UMP_7_ligand
   31    32     1     0     0
SMALL
NO_CHARGES


@<TRIPOS>ATOM
      1 N1         87.9290  -21.4110  -17.2770 N.am      1 UMP502      0.0000 
      2 C2         88.8060  -22.3280  -16.7370 C.2       1 UMP502      0.0000 
      3 N3         88.3340  -23.4460  -16.0790 N.am      1 UMP502      0.0000 
      4 C4         86.9780  -23.6480  -15.9390 C.2       1 UMP502      0.0000 
      5 C5         86.0920  -22.7120  -16.4680 C.2       1 UMP502      0.0000 
      6 C6         86.5780  -21.5910  -17.1380 C.2       1 UMP502      0.0000 
      7 O2         90.0140  -22.1460  -16.8570 O.2       1 UMP502      0.0000 
      8 O4         86.5650  -24.6530  -15.3520 O.2       1 UMP502      0.0000 
      9 C1'        88.4610  -20.2140  -17.9620 C.3       1 UMP502      0.0000 
     10 C2'        89.7430  -19.7590  -17.2980 C.3       1 UMP502      0.0000 
     11 C3'        90.2330  -18.7600  -18.3240 C.3       1 UMP502      0.0000 
     12 C4'        89.5660  -19.1560  -19.6350 C.3       1 UMP502      0.0000 
     13 O3'        89.7260  -17.5220  -17.9040 O.3       1 UMP502      0.0000 
     14 O4'        88.8770  -20.3570  -19.3130 O.3       1 UMP502      0.0000 
     15 C5'        90.5170  -19.2800  -20.8410 C.3       1 UMP502      0.0000 
     16 O5'        90.0800  -18.5070  -21.9570 O.3       1 UMP502      0.0000 
     17 P          90.1900  -19.1440  -23.4470 P.3       1 UMP502      0.0000 
     18 OP1        89.8980  -18.1430  -24.5590 O.co2     1 UMP502      0.0000 
     19 OP2        91.5870  -19.6960  -23.6350 O.co2     1 UMP502      0.0000 
     20 OP3        89.3750  -20.3740  -23.5100 O.co2     1 UMP502      0.0000 
     21 H          89.0009  -24.1335  -15.6903 H         1 UMP502      0.0000 
     22 H          85.0785  -22.8484  -16.3640 H         1 UMP502      0.0000 
     23 H          85.9136  -20.9045  -17.5245 H         1 UMP502      0.0000 
     24 H          87.7711  -19.3770  -17.8679 H         1 UMP502      0.0000 
     25 H          90.4161  -20.5610  -17.2241 H         1 UMP502      0.0000 
     26 H          89.5283  -19.2722  -16.3932 H         1 UMP502      0.0000 
     27 H          91.2588  -18.8096  -18.4048 H         1 UMP502      0.0000 
     28 H          88.8269  -18.3676  -19.8551 H         1 UMP502      0.0000 
     29 H          90.5883  -20.3550  -21.0907 H         1 UMP502      0.0000 
     30 H          91.5215  -18.9705  -20.4972 H         1 UMP502      0.0000 
     31 H          90.5003  -17.0579  -17.4737 H         1 UMP502      0.0000 
@<TRIPOS>BOND
     1    2    1 1    
     2    6    1 1    
     3    9    1 1    
     4    3    2 1    
     5    7    2 2    
     6    4    3 1    
     7   21    3 1    
     8    5    4 1    
     9    8    4 2    
    10    6    5 2    
    11   22    5 1    
    12   23    6 1    
    13   10    9 1    
    14   14    9 1    
    15   24    9 1    
    16   11   10 1    
    17   25   10 1    
    18   26   10 1    
    19   12   11 1    
    20   13   11 1    
    21   27   11 1    
    22   14   12 1    
    23   15   12 1    
    24   28   12 1    
    25   31   13 1    
    26   16   15 1    
    27   29   15 1    
    28   30   15 1    
    29   17   16 1    
    30   18   17 ar   
    31   19   17 ar   
    32   20   17 ar   
@<TRIPOS>SUBSTRUCTURE
     1 UMP502      1 GROUP   
@<TRIPOS>SET

