#    Name: 4fsz_HK8_1_INTS_M
#    Modification time : Mon Mar 24 20:42:46 2014

@<TRIPOS>MOLECULE
4fsz_HK8_1_INTS_M
   46     0     9     0     0
SMALL
NO_CHARGES


@<TRIPOS>ATOM
      1 N          16.6650   -0.7195    8.6205 N.am      2 SEC2        0.0000 
      2 N          16.3960   -2.1250    9.2970 N.am      8 SEL2        0.0000 
      3 N          16.9340    0.6860    7.9440 N.am      5 SEP2        0.0000 
      4 CA         14.2135   -4.0215    8.3230 C.3       3 GLC5        0.0000 
      5 CA         15.4960   -4.6500    9.9440 C.3       9 GLL5        0.0000 
      6 CA         12.9310   -3.3930    6.7020 C.3       6 GLP5        0.0000 
      7 CA         14.4270   -7.4825   10.0235 C.3       3 GLC5        0.0000 
      8 CA         15.7810   -6.5520   11.3500 C.3       9 GLL5        0.0000 
      9 CA         13.0730   -8.4130    8.6970 C.3       6 GLP5        0.0000 
     10 CA         13.6615   -8.2100   11.0750 C.3       3 GLC5        0.0000 
     11 CA         15.1040   -7.9120   12.1920 C.3       9 GLL5        0.0000 
     12 CA         12.2190   -8.5080    9.9580 C.3       6 GLP5        0.0000 
     13 O          19.1015   -1.4935    8.8960 O.2       1 ALC1        0.0000 
     14 O          18.5430   -2.7510    9.2050 O.2       7 ALL1        0.0000 
     15 O          19.6600   -0.2360    8.5870 O.2       4 ALP1        0.0000 
     16 N          21.5360   -2.9215    4.6460 N.am      2 SEC2        0.0000 
     17 N          22.1140   -4.0430    5.0130 N.am      8 SEL2        0.0000 
     18 N          20.9580   -1.8000    4.2790 N.am      5 SEP2        0.0000 
     19 CA         16.3380   -4.9175    8.1828 C.3       3 GLC5        0.0000 
     20 CA         16.8400   -4.2980   10.1050 C.3       9 GLL5        0.0000 
     21 CA         16.5080   -5.3610    6.3410 C.3       6 GLP5        0.0000 
     22 CA         16.0660   -3.1715   11.3483 C.3       3 GLC5        0.0000 
     23 CA         15.9640   -1.8690   12.6720 C.3       6 GLP5        0.0000 
     24 CA         14.0295   -6.1385    9.1292 C.3       3 GLC5        0.0000 
     25 CA         12.8280   -7.0760    7.9960 C.3       6 GLP5        0.0000 
     26 CA         16.3798   -6.7495    9.2802 C.3       3 GLC5        0.0000 
     27 CA         14.9660   -5.7520   10.5810 C.3       9 GLL5        0.0000 
     28 CA         17.3860   -7.3470    7.5950 C.3       6 GLP5        0.0000 
     29 CA         17.3910   -6.5255    9.3940 C.3       3 GLC5        0.0000 
     30 CA         17.1280   -6.2720   11.4960 C.3       9 GLL5        0.0000 
     31 CA         16.6281   -8.6760   11.1807 C.3       3 GLC5        0.0000 
     32 CA         16.9710  -10.6000   10.7280 C.3       6 GLP5        0.0000 
     33 CA         17.6895   -4.1665   12.5650 C.3       3 GLC5        0.0000 
     34 CA         17.9830   -2.6290   13.9370 C.3       6 GLP5        0.0000 
     35 CA         21.1255   -2.9205   10.3695 C.3       3 GLC5        0.0000 
     36 CA         19.7100   -3.5490    9.2100 C.3       9 GLL5        0.0000 
     37 CA         22.4370   -1.7720   11.0720 C.3       6 GLP5        0.0000 
     38 CA         20.7460   -4.8645   12.2508 C.3       3 GLC5        0.0000 
     39 CA         19.9180   -4.5890   10.1240 C.3       9 GLL5        0.0000 
     40 CA         20.9830   -4.7690   14.4090 C.3       6 GLP5        0.0000 
     41 CA         22.0105   -3.4730   10.3322 C.3       3 GLC5        0.0000 
     42 CA         21.1000   -5.3310   10.0610 C.3       9 GLL5        0.0000 
     43 CA         19.9552   -4.8840    7.2221 C.3       3 GLC5        0.0000 
     44 CA         21.8860   -3.9780    8.2230 C.3       9 GLL5        0.0000 
     45 CA         18.8660   -6.0770    5.9630 C.3       6 GLP5        0.0000 
     46 CA         22.2788   -2.6984    9.3998 C.3       3 GLC5        0.0000 
@<TRIPOS>BOND
@<TRIPOS>SUBSTRUCTURE
     1 ALC1       13 GROUP        1 X    ALC  0     ROOT ALC X 1
     2 SEC2        1 GROUP        1 X    SEC  0     **** SEC X 2
     3 GLC5        4 GROUP        1 X    GLC  0     **** GLC X 6
     4 ALP1       15 GROUP        1 Y    ALP  0     ROOT ALP Y 8
     5 SEP2        3 GROUP        1 Y    SEP  0     **** SEP Y 9
     6 GLP5        6 GROUP        1 Y    GLP  0     **** GLP Y 13
     7 ALL1       14 GROUP        1 Z    ALL  0     ROOT ALL Z 15
     8 SEL2        2 GROUP        1 Z    SEL  0     **** SEL Z 16
     9 GLL5        5 GROUP        1 Z    GLL  0     **** GLL Z 20
@<TRIPOS>SET

