#    Name: 4fsz_HK8_1_ligand
#    Modification time : Mon Mar 24 20:42:46 2014

@<TRIPOS>MOLECULE
4fsz_HK8_1_ligand
   31    33     1     0     0
SMALL
NO_CHARGES


@<TRIPOS>ATOM
      1 O3         16.3960   -2.1250    9.2970 O.2       1 HK8301      0.0000 
      2 C13        17.2510   -2.9840    9.5180 C.2       1 HK8301      0.0000 
      3 C12        16.8400   -4.2980   10.1050 C.ar      1 HK8301      0.0000 
      4 C11        15.4960   -4.6500    9.9440 C.ar      1 HK8301      0.0000 
      5 C10        14.9660   -5.7520   10.5810 C.ar      1 HK8301      0.0000 
      6 C9         15.7810   -6.5520   11.3500 C.ar      1 HK8301      0.0000 
      7 CL         15.1040   -7.9120   12.1920 Cl        1 HK8301      0.0000 
      8 C8         17.1280   -6.2720   11.4960 C.ar      1 HK8301      0.0000 
      9 C7         17.6640   -5.1360   10.8900 C.ar      1 HK8301      0.0000 
     10 N1         19.0120   -4.8310   11.1760 N.pl3     1 HK8301      0.0000 
     11 N2         18.5430   -2.7510    9.2050 N.am      1 HK8301      0.0000 
     12 C14        19.7100   -3.5490    9.2100 C.ar      1 HK8301      0.0000 
     13 C6         19.9180   -4.5890   10.1240 C.ar      1 HK8301      0.0000 
     14 C5         21.1000   -5.3310   10.0610 C.ar      1 HK8301      0.0000 
     15 C4         22.0680   -5.0170    9.1240 C.ar      1 HK8301      0.0000 
     16 C15        20.6960   -3.2590    8.2690 C.ar      1 HK8301      0.0000 
     17 C3         21.8860   -3.9780    8.2230 C.ar      1 HK8301      0.0000 
     18 C2         22.9500   -3.6310    7.2090 C.3       1 HK8301      0.0000 
     19 C1         22.8060   -4.4160    5.9360 C.2       1 HK8301      0.0000 
     20 O2         22.1140   -4.0430    5.0130 O.co2     1 HK8301      0.0000 
     21 O1         23.4740   -5.5430    5.9370 O.co2     1 HK8301      0.0000 
     22 H          14.8947   -4.0664    9.3330 H         1 HK8301      0.0000 
     23 H          13.9651   -5.9749   10.4815 H         1 HK8301      0.0000 
     24 H          17.7325   -6.8925   12.0451 H         1 HK8301      0.0000 
     25 H          19.3301   -4.7858   12.1458 H         1 HK8301      0.0000 
     26 H          18.7592   -1.6954    8.8626 H         1 HK8301      0.0000 
     27 H          21.2452   -6.1118   10.7158 H         1 HK8301      0.0000 
     28 H          22.9476   -5.5681    9.0931 H         1 HK8301      0.0000 
     29 H          20.5385   -2.4914    7.5896 H         1 HK8301      0.0000 
     30 H          23.9410   -3.8230    7.6468 H         1 HK8301      0.0000 
     31 H          22.8954   -2.5555    6.9835 H         1 HK8301      0.0000 
@<TRIPOS>BOND
     1    2    1 2    
     2    3    2 1    
     3   11    2 am   
     4    4    3 ar   
     5    9    3 ar   
     6    5    4 ar   
     7   22    4 1    
     8    6    5 ar   
     9   23    5 1    
    10    7    6 1    
    11    8    6 ar   
    12    9    8 ar   
    13   24    8 1    
    14   10    9 1    
    15   13   10 1    
    16   25   10 1    
    17   12   11 1    
    18   26   11 1    
    19   13   12 ar   
    20   16   12 ar   
    21   14   13 ar   
    22   15   14 ar   
    23   27   14 1    
    24   17   15 ar   
    25   28   15 1    
    26   17   16 ar   
    27   29   16 1    
    28   18   17 1    
    29   19   18 1    
    30   30   18 1    
    31   31   18 1    
    32   20   19 ar   
    33   21   19 ar   
@<TRIPOS>SUBSTRUCTURE
     1 HK8301      1 GROUP   
@<TRIPOS>SET

