#    Name: 3QMN_14_CAVITY_N1_ALL.mol2
#    Modification time : Mon Mar 10 18:14:06 2014

@<TRIPOS>MOLECULE
3QMN_14_CAVITY_N1_ALL.mol2
   66     0     4     0     0
SMALL
NO_CHARGES


@<TRIPOS>ATOM
      1 N          50.6987  -13.6127   93.4979 N.2       1 ALA2        0.0000 
      2 N          49.9451  -12.3325   93.2902 N.2       1 ALA2        0.0000 
      3 CA         49.5302  -14.3872   92.9643 C.3       3 GLY6        0.0000 
      4 CA         48.7766  -13.1070   92.7566 C.3       3 GLY6        0.0000 
      5 N          48.0229  -11.8268   92.5489 N.2       1 ALA2        0.0000 
      6 CA         47.7990  -15.2680   93.8171 C.3       3 GLY6        0.0000 
      7 CA         47.3842  -17.3226   93.4912 C.3       3 GLY6        0.0000 
      8 CA         46.6305  -16.0424   93.2835 C.3       3 GLY6        0.0000 
      9 N          46.9693  -19.3773   93.1653 N.2       1 ALA2        0.0000 
     10 CA         46.2156  -18.0971   92.9576 C.3       3 GLY6        0.0000 
     11 N          48.4662  -17.6719   87.4120 N.2       1 ALA2        0.0000 
     12 DU         47.7126  -16.3917   87.2043 H         4 CUB7        0.0000 
     13 DU         46.9589  -15.1115   86.9966 H         4 CUB7        0.0000 
     14 CA         46.5440  -17.1662   86.6707 C.3       3 GLY6        0.0000 
     15 N          51.2614  -13.5064   92.1115 N.2       1 ALA2        0.0000 
     16 N          50.5078  -12.2262   91.9038 N.2       1 ALA2        0.0000 
     17 N          50.0929  -14.2809   91.5779 N.2       1 ALA2        0.0000 
     18 DU         49.3392  -13.0007   91.3702 H         4 CUB7        0.0000 
     19 OD1        48.5856  -11.7205   91.1625 O.3       2 ASP3        0.0000 
     20 OD1        47.8319  -10.4403   90.9548 O.3       2 ASP3        0.0000 
     21 N          48.9243  -15.0554   91.0443 N.2       1 ALA2        0.0000 
     22 DU         48.1707  -13.7752   90.8366 H         4 CUB7        0.0000 
     23 DU         47.4171  -12.4950   90.6289 H         4 CUB7        0.0000 
     24 DU         46.6634  -11.2148   90.4212 H         4 CUB7        0.0000 
     25 N          48.5094  -17.1100   90.7184 N.2       1 ALA2        0.0000 
     26 N          49.0721  -17.0037   89.3320 N.2       1 ALA2        0.0000 
     27 N          48.3185  -15.7236   89.1243 N.2       1 ALA2        0.0000 
     28 DU         47.5648  -14.4434   88.9166 H         4 CUB7        0.0000 
     29 DU         46.8112  -13.1632   88.7089 H         4 CUB7        0.0000 
     30 N          48.6572  -19.0584   89.0061 N.2       1 ALA2        0.0000 
     31 N          47.9036  -17.7782   88.7984 N.2       1 ALA2        0.0000 
     32 DU         47.1499  -16.4980   88.5907 H         4 CUB7        0.0000 
     33 DU         46.3963  -15.2178   88.3830 H         4 CUB7        0.0000 
     34 DU         45.6426  -13.9376   88.1753 H         4 CUB7        0.0000 
     35 N          50.6555  -14.1746   90.1915 N.2       1 ALA2        0.0000 
     36 DU         49.9019  -12.8944   89.9838 H         4 CUB7        0.0000 
     37 N          49.4870  -14.9491   89.6579 N.2       1 ALA2        0.0000 
     38 DU         48.7333  -13.6689   89.4502 H         4 CUB7        0.0000 
     39 N          49.6347  -16.8974   87.9456 N.2       1 ALA2        0.0000 
     40 DU         48.8811  -15.6173   87.7379 H         4 CUB7        0.0000 
     41 N          47.7558  -15.8298   90.5107 N.2       1 ALA2        0.0000 
     42 CA         47.0022  -14.5497   90.3030 C.3       3 GLY6        0.0000 
     43 CA         46.2485  -13.2695   90.0953 C.3       3 GLY6        0.0000 
     44 OD1        45.4949  -11.9893   89.8876 O.3       2 ASP3        0.0000 
     45 CA         48.0946  -19.1647   90.3925 C.3       3 GLY6        0.0000 
     46 CA         47.3409  -17.8845   90.1848 C.3       3 GLY6        0.0000 
     47 CA         46.5873  -16.6043   89.9771 C.3       3 GLY6        0.0000 
     48 CA         45.8336  -15.3241   89.7694 C.3       3 GLY6        0.0000 
     49 CA         45.0800  -14.0439   89.5617 C.3       3 GLY6        0.0000 
     50 O          46.9260  -19.9392   89.8589 O.2       1 ALA2        0.0000 
     51 O          46.1724  -18.6590   89.6512 O.2       1 ALA2        0.0000 
     52 CA         45.4188  -17.3788   89.4435 C.3       3 GLY6        0.0000 
     53 CA         44.6651  -16.0986   89.2358 C.3       3 GLY6        0.0000 
     54 CA         48.3617  -15.1617   92.4307 C.3       3 GLY6        0.0000 
     55 N          47.6081  -13.8815   92.2230 N.2       1 ALA2        0.0000 
     56 N          46.8544  -12.6013   92.0153 N.2       1 ALA2        0.0000 
     57 N          46.1008  -11.3211   91.8076 N.2       1 ALA2        0.0000 
     58 CA         47.9468  -17.2163   92.1048 C.3       3 GLY6        0.0000 
     59 CA         47.1932  -15.9361   91.8971 C.3       3 GLY6        0.0000 
     60 CA         46.4395  -14.6559   91.6894 C.3       3 GLY6        0.0000 
     61 OD1        45.6859  -13.3758   91.4817 O.3       2 ASP3        0.0000 
     62 CA         47.5319  -19.2710   91.7789 C.3       3 GLY6        0.0000 
     63 CA         46.7783  -17.9908   91.5712 C.3       3 GLY6        0.0000 
     64 CA         46.7350  -18.5527   88.2648 C.3       3 GLY6        0.0000 
     65 CA         45.9814  -17.2725   88.0571 C.3       3 GLY6        0.0000 
     66 CA         45.2278  -15.9923   87.8494 C.3       3 GLY6        0.0000 
@<TRIPOS>BOND
@<TRIPOS>SUBSTRUCTURE
     1 ALA2        1 GROUP   
     2 ASP3       19 GROUP   
     3 GLY6        3 GROUP   
     4 CUB7       12 GROUP   
@<TRIPOS>SET

