#    Name: 3qmn_COA_14_INTS_M
#    Modification time : Tue Mar 25 09:57:46 2014

@<TRIPOS>MOLECULE
3qmn_COA_14_INTS_M
   84     0    12     0     0
SMALL
NO_CHARGES


@<TRIPOS>ATOM
      1 CA         48.9490  -19.3945   92.1365 C.3       4 GLC5        0.0000 
      2 CA         47.0980  -19.4160   91.8920 C.3      12 GLL5        0.0000 
      3 CA         50.8000  -19.3730   92.3810 C.3       8 GLP5        0.0000 
      4 CA         48.4215  -18.4430   93.1515 C.3       4 GLC5        0.0000 
      5 CA         49.7450  -17.4700   94.4110 C.3       8 GLP5        0.0000 
      6 CA         45.3625  -19.6800   91.7130 C.3       4 GLC5        0.0000 
      7 CA         43.6270  -19.9440   91.5340 C.3       8 GLP5        0.0000 
      8 CA         47.1025  -21.4400   91.4170 C.3       4 GLC5        0.0000 
      9 CA         47.1070  -23.4640   90.9420 C.3       8 GLP5        0.0000 
     10 CA         48.7455  -17.4015   92.7415 C.3       4 GLC5        0.0000 
     11 CA         47.7460  -17.3330   91.0720 C.3      12 GLL5        0.0000 
     12 CA         45.6905  -17.3635   91.2690 C.3       4 GLC5        0.0000 
     13 CA         43.6350  -17.3940   91.4660 C.3       8 GLP5        0.0000 
     14 CA         47.6540  -21.4040   90.3900 C.3       4 GLC5        0.0000 
     15 CA         48.2010  -19.3440   89.8380 C.3      12 GLL5        0.0000 
     16 CA         47.5565  -20.8850   88.5680 C.3       4 GLC5        0.0000 
     17 CA         46.9120  -22.4260   87.2980 C.3       8 GLP5        0.0000 
     18 O          49.8990  -19.6655   87.9950 O.2       1 ALC1        0.0000 
     19 O          48.7250  -19.9910   88.7750 O.2       9 ALL1        0.0000 
     20 O          51.0730  -19.3400   87.2150 O.2       5 ALP1        0.0000 
     21 O          48.7360  -21.4125   89.0585 O.2       1 ALC1        0.0000 
     22 O          48.7470  -22.8340   89.3420 O.2       5 ALP1        0.0000 
     23 CA         45.5365  -15.5735   92.1470 C.3       4 GLC5        0.0000 
     24 CA         47.5930  -15.0060   91.9510 C.3      12 GLL5        0.0000 
     25 CA         43.4800  -16.1410   92.3430 C.3       8 GLP5        0.0000 
     26 NZ         50.6460   -9.2145   92.2615 N.4       3 LYC4        0.0000 
     27 NZ         51.2720  -10.2830   92.7560 N.4      11 LYL4        0.0000 
     28 NZ         50.0200   -8.1460   91.7670 N.4       7 LYP4        0.0000 
     29 N          50.6460   -9.2145   92.2615 N.am      2 SEC2        0.0000 
     30 N          51.2720  -10.2830   92.7560 N.am     10 SEL2        0.0000 
     31 N          50.0200   -8.1460   91.7670 N.am      6 SEP2        0.0000 
     32 N          52.3745  -13.3395   93.6210 N.am      2 SEC2        0.0000 
     33 N          51.2860  -12.6020   93.6980 N.am     10 SEL2        0.0000 
     34 N          53.4630  -14.0770   93.5440 N.am      6 SEP2        0.0000 
     35 CA         45.2910  -13.8225   91.5985 C.3       4 GLC5        0.0000 
     36 CA         47.2510  -12.7530   91.7110 C.3      12 GLL5        0.0000 
     37 CA         43.3310  -14.8920   91.4860 C.3       8 GLP5        0.0000 
     38 N          44.3080   -9.0110   92.1805 N.am      2 SEC2        0.0000 
     39 N          44.7580   -9.5220   90.9600 N.am     10 SEL2        0.0000 
     40 N          43.8580   -8.5000   93.4010 N.am      6 SEP2        0.0000 
     41 NZ         43.0670  -12.4630   91.5000 N.4       3 LYC4        0.0000 
     42 NZ         42.9110  -11.3110   90.7260 N.4      11 LYL4        0.0000 
     43 NZ         43.2230  -13.6150   92.2740 N.4       7 LYP4        0.0000 
     44 N          42.2620  -10.9370   92.0480 N.am      2 SEC2        0.0000 
     45 N          42.9110  -11.3110   90.7260 N.am     10 SEL2        0.0000 
     46 N          41.6130  -10.5630   93.3700 N.am      6 SEP2        0.0000 
     47 N          43.0670  -12.4630   91.5000 N.am      2 SEC2        0.0000 
     48 N          43.2230  -13.6150   92.2740 N.am      6 SEP2        0.0000 
     49 CA         44.1945  -15.0245   89.7360 C.3       4 GLC5        0.0000 
     50 CA         45.0580  -15.1570   87.9860 C.3      12 GLL5        0.0000 
     51 CA         44.8600  -17.2710   87.5035 C.3       4 GLC5        0.0000 
     52 CA         44.6620  -19.3850   87.0210 C.3       8 GLP5        0.0000 
     53 CA         40.8945  -15.2605   87.1390 C.3       4 GLC5        0.0000 
     54 CA         43.0040  -15.8750   86.8080 C.3      12 GLL5        0.0000 
     55 CA         38.7850  -14.6460   87.4700 C.3       8 GLP5        0.0000 
     56 CA         43.8330  -17.6300   86.9145 C.3       4 GLC5        0.0000 
     57 CA         41.8795  -16.8115   85.6240 C.3       4 GLC5        0.0000 
     58 CA         40.7550  -17.7480   84.4400 C.3       8 GLP5        0.0000 
     59 N          44.3230  -17.6145   85.1185 N.am      2 SEC2        0.0000 
     60 N          45.1120  -16.4730   85.2870 N.am     10 SEL2        0.0000 
     61 N          43.5340  -18.7560   84.9500 N.am      6 SEP2        0.0000 
     62 O          44.1320  -16.5375   82.7300 O.2       1 ALC1        0.0000 
     63 O          43.8750  -15.0740   83.3720 O.2       9 ALL1        0.0000 
     64 O          44.3890  -18.0010   82.0880 O.2       5 ALP1        0.0000 
     65 CA         39.8900  -14.8900   82.3665 C.3       4 GLC5        0.0000 
     66 CA         41.8820  -14.0740   82.5580 C.3      12 GLL5        0.0000 
     67 CA         37.8980  -15.7060   82.1750 C.3       8 GLP5        0.0000 
     68 CA         37.4480  -11.6695   82.7375 C.3       4 GLC5        0.0000 
     69 CA         38.4840  -11.3450   81.2150 C.3      12 GLL5        0.0000 
     70 CA         36.4120  -11.9940   84.2600 C.3       8 GLP5        0.0000 
     71 CA         35.7940  -10.8845   80.0705 C.3       4 GLC5        0.0000 
     72 CA         37.5390  -11.9240   79.7800 C.3      12 GLL5        0.0000 
     73 CA         34.0490   -9.8450   80.3610 C.3       8 GLP5        0.0000 
     74 CA         36.1275  -13.0270   80.6225 C.3       4 GLC5        0.0000 
     75 CA         34.7160  -14.1300   81.4650 C.3       8 GLP5        0.0000 
     76 CA         37.7185  -13.8150   80.9775 C.3       4 GLC5        0.0000 
     77 CA         50.2942  -18.2640   89.5485 C.3       4 GLC5        0.0000 
     78 CA         48.2780  -17.9500   89.9460 C.3      12 GLL5        0.0000 
     79 CA         52.3490  -17.8810   89.2050 C.3       8 GLP5        0.0000 
     80 CA         49.4532  -18.9329   91.2772 C.3       4 GLC5        0.0000 
     81 CA         48.9932  -16.0535   93.2682 C.3       4 GLC5        0.0000 
     82 CA         42.2053  -16.0907   82.8483 C.3       4 GLC5        0.0000 
     83 CA         43.2710  -14.5570   82.1450 C.3      12 GLL5        0.0000 
     84 CA         41.8340  -17.8660   83.3450 C.3       8 GLP5        0.0000 
@<TRIPOS>BOND
@<TRIPOS>SUBSTRUCTURE
     1 ALC1       18 GROUP        1 X    ALC  0     ROOT ALC X 1
     2 SEC2       29 GROUP        1 X    SEC  0     **** SEC X 2
     3 LYC4       26 GROUP        1 X    LYC  0     **** LYC X 4
     4 GLC5        1 GROUP        1 X    GLC  0     **** GLC X 6
     5 ALP1       20 GROUP        1 Y    ALP  0     ROOT ALP Y 8
     6 SEP2       31 GROUP        1 Y    SEP  0     **** SEP Y 9
     7 LYP4       28 GROUP        1 Y    LYP  0     **** LYP Y 11
     8 GLP5        3 GROUP        1 Y    GLP  0     **** GLP Y 13
     9 ALL1       19 GROUP        1 Z    ALL  0     ROOT ALL Z 15
    10 SEL2       30 GROUP        1 Z    SEL  0     **** SEL Z 16
    11 LYL4       27 GROUP        1 Z    LYL  0     **** LYL Z 18
    12 GLL5        2 GROUP        1 Z    GLL  0     **** GLL Z 20
@<TRIPOS>SET

