#    Name: 3qmn_COA_14_ligand
#    Modification time : Tue Mar 25 09:57:46 2014

@<TRIPOS>MOLECULE
3qmn_COA_14_ligand
   79    81     1     0     0
SMALL
NO_CHARGES


@<TRIPOS>ATOM
      1 N1A        47.6040  -20.0540   90.8200 N.ar      1 COA1127     0.0000 
      2 C2A        47.0980  -19.4160   91.8920 C.ar      1 COA1127     0.0000 
      3 N3A        47.1670  -18.0800   92.0230 N.ar      1 COA1127     0.0000 
      4 C4A        47.7460  -17.3330   91.0720 C.ar      1 COA1127     0.0000 
      5 C5A        48.2780  -17.9500   89.9460 C.ar      1 COA1127     0.0000 
      6 C6A        48.2010  -19.3440   89.8380 C.ar      1 COA1127     0.0000 
      7 N6A        48.7250  -19.9910   88.7750 N.pl3     1 COA1127     0.0000 
      8 N7A        48.8040  -16.9710   89.1650 N.2       1 COA1127     0.0000 
      9 C8A        48.5850  -15.7920   89.7820 C.2       1 COA1127     0.0000 
     10 N9A        47.9400  -16.0200   90.9460 N.pl3     1 COA1127     0.0000 
     11 C1B        47.5930  -15.0060   91.9510 C.3       1 COA1127     0.0000 
     12 C2B        48.8900  -14.2680   92.3000 C.3       1 COA1127     0.0000 
     13 O2B        49.0630  -14.1240   93.7140 O.3       1 COA1127     0.0000 
     14 C3B        48.7470  -12.9150   91.6310 C.3       1 COA1127     0.0000 
     15 O3B        49.3950  -11.8450   92.3140 O.3       1 COA1127     0.0000 
     16 P3B        50.9910  -11.7420   92.4900 P.3       1 COA1127     0.0000 
     17 O7A        51.4850  -12.2380   91.1410 O.co2     1 COA1127     0.0000 
     18 O8A        51.2720  -10.2830   92.7560 O.co2     1 COA1127     0.0000 
     19 O9A        51.2860  -12.6020   93.6980 O.co2     1 COA1127     0.0000 
     20 C4B        47.2510  -12.7530   91.7110 C.3       1 COA1127     0.0000 
     21 O4B        46.6780  -14.0310   91.4810 O.3       1 COA1127     0.0000 
     22 C5B        46.6690  -11.7860   90.7000 C.3       1 COA1127     0.0000 
     23 O5B        45.2730  -11.9360   90.9290 O.3       1 COA1127     0.0000 
     24 P1A        44.2660  -10.8110   90.4170 P.3       1 COA1127     0.0000 
     25 O1A        44.7580   -9.5220   90.9600 O.co2     1 COA1127     0.0000 
     26 O2A        42.9110  -11.3110   90.7260 O.co2     1 COA1127     0.0000 
     27 O3A        44.8550  -10.8660   88.9310 O.3       1 COA1127     0.0000 
     28 P2A        44.1580  -10.9760   87.5240 P.3       1 COA1127     0.0000 
     29 O4A        42.6730  -10.7890   87.7030 O.co2     1 COA1127     0.0000 
     30 O5A        44.9400  -10.0400   86.6860 O.co2     1 COA1127     0.0000 
     31 O6A        44.5480  -12.4790   87.0550 O.3       1 COA1127     0.0000 
     32 CBP        44.1560  -14.8830   86.7980 C.3       1 COA1127     0.0000 
     33 CCP        43.5480  -13.4810   86.9380 C.3       1 COA1127     0.0000 
     34 CDP        45.0580  -15.1570   87.9860 C.3       1 COA1127     0.0000 
     35 CEP        43.0040  -15.8750   86.8080 C.3       1 COA1127     0.0000 
     36 CAP        45.0050  -15.0640   85.5430 C.3       1 COA1127     0.0000 
     37 OAP        45.1120  -16.4730   85.2870 O.3       1 COA1127     0.0000 
     38 C9P        44.4310  -14.3570   84.3410 C.2       1 COA1127     0.0000 
     39 O9P        44.4910  -13.0360   84.2210 O.2       1 COA1127     0.0000 
     40 N8P        43.8750  -15.0740   83.3720 N.am      1 COA1127     0.0000 
     41 C7P        43.2710  -14.5570   82.1450 C.3       1 COA1127     0.0000 
     42 C6P        41.8820  -14.0740   82.5580 C.3       1 COA1127     0.0000 
     43 C5P        41.2430  -13.3030   81.4300 C.2       1 COA1127     0.0000 
     44 O5P        41.2860  -13.7440   80.2950 O.2       1 COA1127     0.0000 
     45 N4P        40.6500  -12.1550   81.7550 N.am      1 COA1127     0.0000 
     46 C3P        39.9620  -11.2310   80.8660 C.3       1 COA1127     0.0000 
     47 C2P        38.4840  -11.3450   81.2150 C.3       1 COA1127     0.0000 
     48 S1P        37.5390  -11.9240   79.7800 S.3       1 COA1127     0.0000 
     49 H          46.6329  -19.9832   92.6527 H         1 COA1127     0.0000 
     50 H          49.1861  -19.4199   88.0959 H         1 COA1127     0.0000 
     51 H          48.6054  -20.9837   88.7613 H         1 COA1127     0.0000 
     52 H          48.8475  -14.9221   89.4454 H         1 COA1127     0.0000 
     53 H          47.2548  -15.4767   92.8546 H         1 COA1127     0.0000 
     54 H          49.6984  -14.7865   91.8294 H         1 COA1127     0.0000 
     55 H          49.0059  -13.0151   90.6114 H         1 COA1127     0.0000 
     56 H          46.9919  -12.4102   92.7078 H         1 COA1127     0.0000 
     57 H          46.9577  -12.1004   89.7225 H         1 COA1127     0.0000 
     58 H          47.0163  -10.8039   90.9290 H         1 COA1127     0.0000 
     59 H          42.9013  -13.3148   86.0569 H         1 COA1127     0.0000 
     60 H          42.8805  -13.4998   87.8191 H         1 COA1127     0.0000 
     61 H          45.9923  -14.6541   85.7524 H         1 COA1127     0.0000 
     62 H          43.8400  -16.1454   83.4490 H         1 COA1127     0.0000 
     63 H          43.1619  -15.3287   81.4072 H         1 COA1127     0.0000 
     64 H          43.8244  -13.7230   81.7576 H         1 COA1127     0.0000 
     65 H          41.9744  -13.4358   83.4345 H         1 COA1127     0.0000 
     66 H          41.2672  -14.9357   82.8099 H         1 COA1127     0.0000 
     67 H          40.6558  -11.8325   82.7878 H         1 COA1127     0.0000 
     68 H          40.0945  -11.5061   79.8331 H         1 COA1127     0.0000 
     69 H          40.2783  -10.2150   81.0329 H         1 COA1127     0.0000 
     70 H          38.0209  -10.4123   81.4313 H         1 COA1127     0.0000 
     71 H          38.2712  -12.0901   81.9434 H         1 COA1127     0.0000 
     72 H          45.4780  -16.0629   87.9323 H         1 COA1127     0.0000 
     73 H          45.8023  -14.4921   88.0483 H         1 COA1127     0.0000 
     74 H          44.5564  -15.1172   88.8502 H         1 COA1127     0.0000 
     75 H          43.3254  -16.8182   86.7241 H         1 COA1127     0.0000 
     76 H          42.4740  -15.8201   87.6542 H         1 COA1127     0.0000 
     77 H          42.3684  -15.7136   86.0530 H         1 COA1127     0.0000 
     78 H          49.8695  -13.5420   93.8180 H         1 COA1127     0.0000 
     79 H          45.8965  -16.7754   85.8284 H         1 COA1127     0.0000 
@<TRIPOS>BOND
     1    2    1 ar   
     2    6    1 ar   
     3    3    2 ar   
     4   49    2 1    
     5    4    3 ar   
     6    5    4 ar   
     7   10    4 1    
     8    6    5 ar   
     9    8    5 1    
    10    7    6 1    
    11   50    7 1    
    12   51    7 1    
    13    9    8 2    
    14   10    9 1    
    15   52    9 1    
    16   11   10 1    
    17   12   11 1    
    18   21   11 1    
    19   53   11 1    
    20   13   12 1    
    21   14   12 1    
    22   54   12 1    
    23   78   13 1    
    24   15   14 1    
    25   20   14 1    
    26   55   14 1    
    27   16   15 1    
    28   17   16 ar   
    29   18   16 ar   
    30   19   16 ar   
    31   21   20 1    
    32   22   20 1    
    33   56   20 1    
    34   23   22 1    
    35   57   22 1    
    36   58   22 1    
    37   24   23 1    
    38   25   24 ar   
    39   26   24 ar   
    40   27   24 1    
    41   28   27 1    
    42   29   28 ar   
    43   30   28 ar   
    44   31   28 1    
    45   33   31 1    
    46   33   32 1    
    47   34   32 1    
    48   35   32 1    
    49   36   32 1    
    50   59   33 1    
    51   60   33 1    
    52   72   34 1    
    53   73   34 1    
    54   74   34 1    
    55   75   35 1    
    56   76   35 1    
    57   77   35 1    
    58   37   36 1    
    59   38   36 1    
    60   61   36 1    
    61   79   37 1    
    62   39   38 2    
    63   40   38 am   
    64   41   40 1    
    65   62   40 1    
    66   42   41 1    
    67   63   41 1    
    68   64   41 1    
    69   43   42 1    
    70   65   42 1    
    71   66   42 1    
    72   44   43 2    
    73   45   43 am   
    74   46   45 1    
    75   67   45 1    
    76   47   46 1    
    77   68   46 1    
    78   69   46 1    
    79   48   47 1    
    80   70   47 1    
    81   71   47 1    
@<TRIPOS>SUBSTRUCTURE
     1 COA1127     1 GROUP   
@<TRIPOS>SET

