#    Name: 5ldh_LNC_1_INTS_M
#    Modification time : Tue Mar 25 13:46:01 2014

@<TRIPOS>MOLECULE
5ldh_LNC_1_INTS_M
   73     0     9     0     0
SMALL
NO_CHARGES


@<TRIPOS>ATOM
      1 NZ         16.6650   20.8580    1.2740 N.4       2 LYC4        0.0000 
      2 NZ         17.2790   21.4820    2.2210 N.4       8 LYL4        0.0000 
      3 NZ         17.1270   19.6130   -0.1200 N.4       5 LYP4        0.0000 
      4 N          17.8025   20.6720    1.3240 N.am      1 SEC2        0.0000 
      5 N          17.2790   21.4820    2.2210 N.am      7 SEL2        0.0000 
      6 N          18.3260   19.8620    0.4270 N.am      4 SEP2        0.0000 
      7 N          16.6650   20.8580    1.2740 N.am      1 SEC2        0.0000 
      8 N          16.0510   20.2340    0.3270 N.am      4 SEP2        0.0000 
      9 NZ         15.5840   20.8910    1.0315 N.4       2 LYC4        0.0000 
     10 NZ         15.1170   21.5480    1.7360 N.4       8 LYL4        0.0000 
     11 N          15.5840   20.8910    1.0315 N.am      1 SEC2        0.0000 
     12 N          15.1170   21.5480    1.7360 N.am      7 SEL2        0.0000 
     13 N          14.1455   22.7550    1.1335 N.am      1 SEC2        0.0000 
     14 N          13.1740   23.9620    0.5310 N.am      4 SEP2        0.0000 
     15 CA         12.8830   21.0615    8.8315 C.3       3 GLC5        0.0000 
     16 CA         13.0330   22.3570    7.2680 C.3       9 GLL5        0.0000 
     17 CA         12.7330   19.7660   10.3950 C.3       6 GLP5        0.0000 
     18 NZ          7.3360   28.7145    6.4130 N.4       2 LYC4        0.0000 
     19 NZ          6.8700   27.4880    6.0630 N.4       8 LYL4        0.0000 
     20 NZ          8.8880   29.3230    6.3340 N.4       5 LYP4        0.0000 
     21 N           7.8300   27.8115    5.8920 N.am      1 SEC2        0.0000 
     22 N           6.8700   27.4880    6.0630 N.am      7 SEL2        0.0000 
     23 N           8.7900   28.1350    5.7210 N.am      4 SEP2        0.0000 
     24 N           7.3360   28.7145    6.4130 N.am      1 SEC2        0.0000 
     25 N           7.8020   29.9410    6.7630 N.am      4 SEP2        0.0000 
     26 N           5.4185   23.8880    5.5565 N.am      1 SEC2        0.0000 
     27 N           6.3350   25.1590    5.2950 N.am      7 SEL2        0.0000 
     28 N           4.5020   22.6170    5.8180 N.am      4 SEP2        0.0000 
     29 NZ          7.6800   28.7395    7.3785 N.4       2 LYC4        0.0000 
     30 NZ          6.4720   28.1560    8.4230 N.4       8 LYL4        0.0000 
     31 CA         -0.2120   26.5135   13.3175 C.3       3 GLC5        0.0000 
     32 CA          0.6610   27.6650   11.7550 C.3       9 GLL5        0.0000 
     33 CA         -1.0850   25.3620   14.8800 C.3       6 GLP5        0.0000 
     34 CA         -0.5585   28.3040   11.7210 C.3       3 GLC5        0.0000 
     35 CA          0.8990   27.8200   10.2540 C.3       9 GLL5        0.0000 
     36 CA         -2.0160   28.7880   13.1880 C.3       6 GLP5        0.0000 
     37 CA          5.0860   29.9795   12.8120 C.3       3 GLC5        0.0000 
     38 CA          3.5580   29.9950   14.3350 C.3       9 GLL5        0.0000 
     39 CA          6.6140   29.9640   11.2890 C.3       6 GLP5        0.0000 
     40 CA          1.9095   30.3785   16.5490 C.3       3 GLC5        0.0000 
     41 CA          3.9100   30.4070   15.6420 C.3       9 GLL5        0.0000 
     42 CA         -0.0910   30.3500   17.4560 C.3       6 GLP5        0.0000 
     43 CA          1.4760   29.3770   16.9200 C.3       3 GLC5        0.0000 
     44 CA          3.0430   28.4040   16.3840 C.3       9 GLL5        0.0000 
     45 CA          0.8775   28.4820   14.2685 C.3       3 GLC5        0.0000 
     46 CA          2.9610   28.7730   14.2240 C.3       9 GLL5        0.0000 
     47 CA         -1.2060   28.1910   14.3130 C.3       6 GLP5        0.0000 
     48 CA          8.7965   25.2415    9.8755 C.3       3 GLC5        0.0000 
     49 CA         10.2280   25.6700    8.9380 C.3       9 GLL5        0.0000 
     50 CA          7.3650   24.8130   10.8130 C.3       6 GLP5        0.0000 
     51 N          13.4235   26.6100    7.9235 N.am      1 SEC2        0.0000 
     52 N          12.6420   26.1690    8.6740 N.am      7 SEL2        0.0000 
     53 N          14.2050   27.0510    7.1730 N.am      4 SEP2        0.0000 
     54 CA         13.5305   23.6915    3.0926 C.3       3 GLC5        0.0000 
     55 CA         13.9500   24.3190    3.8080 C.3       9 GLL5        0.0000 
     56 CA         11.8030   23.9560    2.5100 C.3       6 GLP5        0.0000 
     57 CA         12.5805   23.7471    4.0486 C.3       3 GLC5        0.0000 
     58 CA         14.1790   22.3250    5.2660 C.3       9 GLL5        0.0000 
     59 CA          7.4825   23.8298    8.0180 C.3       3 GLC5        0.0000 
     60 CA          9.4310   24.3850    8.7120 C.3       9 GLL5        0.0000 
     61 CA          6.1970   23.2380    7.6900 C.3       6 GLP5        0.0000 
     62 CA          8.0665   24.6172    9.5795 C.3       3 GLC5        0.0000 
     63 CA          8.1050   24.4580    7.9800 C.3       9 GLL5        0.0000 
     64 CA          0.0800   27.8607   13.1635 C.3       3 GLC5        0.0000 
     65 CA          1.0596   26.0109    8.7417 C.3       3 GLC5        0.0000 
     66 CA          0.4500   24.6390    7.6720 C.3       6 GLP5        0.0000 
     67 CA          4.9912   28.3320   14.1283 C.3       3 GLC5        0.0000 
     68 CA          6.7230   27.2800   13.9770 C.3       6 GLP5        0.0000 
     69 CA         11.0500   27.1232    8.5252 C.3       3 GLC5        0.0000 
     70 CA         11.2270   28.6660    8.5120 C.3       6 GLP5        0.0000 
     71 CA         12.4941   21.4463    5.7982 C.3       3 GLC5        0.0000 
     72 CA         13.6330   23.5700    5.0690 C.3       9 GLL5        0.0000 
     73 CA         11.6120   19.8780    5.5520 C.3       6 GLP5        0.0000 
@<TRIPOS>BOND
@<TRIPOS>SUBSTRUCTURE
     1 SEC2        4 GROUP        1 X    SEC  0     ROOT SEC X 2
     2 LYC4        1 GROUP        1 X    LYC  0     **** LYC X 4
     3 GLC5       15 GROUP        1 X    GLC  0     **** GLC X 6
     4 SEP2        6 GROUP        1 Y    SEP  0     ROOT SEP Y 9
     5 LYP4        3 GROUP        1 Y    LYP  0     **** LYP Y 11
     6 GLP5       17 GROUP        1 Y    GLP  0     **** GLP Y 13
     7 SEL2        5 GROUP        1 Z    SEL  0     ROOT SEL Z 16
     8 LYL4        2 GROUP        1 Z    LYL  0     **** LYL Z 18
     9 GLL5       16 GROUP        1 Z    GLL  0     **** GLL Z 20
@<TRIPOS>SET

