#    Name: 5ldh_LNC_1_ligand
#    Modification time : Tue Mar 25 13:46:01 2014

@<TRIPOS>MOLECULE
5ldh_LNC_1_ligand
   82    86     1     0     0
SMALL
NO_CHARGES


@<TRIPOS>ATOM
      1 N7N        14.3570   19.6940    7.8500 N.am      1 LNC332      0.0000 
      2 C7N        14.4530   20.3160    6.6570 C.2       1 LNC332      0.0000 
      3 O7N        15.0380   19.7220    5.7620 O.2       1 LNC332      0.0000 
      4 C3N        13.8780   21.6790    6.4020 C.ar      1 LNC332      0.0000 
      5 C4N        14.1790   22.3250    5.2660 C.ar      1 LNC332      0.0000 
      6 C5N        13.6330   23.5700    5.0690 C.ar      1 LNC332      0.0000 
      7 CGS        13.9500   24.3190    3.8080 C.3       1 LNC332      0.0000 
      8 CBS        15.4120   24.0730    3.3910 C.3       1 LNC332      0.0000 
      9 CAS        15.8350   22.6580    3.7510 C.3       1 LNC332      0.0000 
     10 OAS        17.0250   22.6890    4.5260 O.3       1 LNC332      0.0000 
     11 CS         16.0900   21.8570    2.5080 C.2       1 LNC332      0.0000 
     12 O1S        17.2790   21.4820    2.2210 O.co2     1 LNC332      0.0000 
     13 O2S        15.1170   21.5480    1.7360 O.co2     1 LNC332      0.0000 
     14 C6N        12.8100   24.1290    6.0070 C.ar      1 LNC332      0.0000 
     15 N1N        12.5390   23.4390    7.1330 N.pl3     1 LNC332      0.0000 
     16 C2N        13.0330   22.3570    7.2680 C.ar      1 LNC332      0.0000 
     17 C1D        11.6660   23.9740    8.1810 C.3       1 LNC332      0.0000 
     18 O4D        10.3370   23.5260    7.9630 O.3       1 LNC332      0.0000 
     19 C4D         9.4310   24.3850    8.7120 C.3       1 LNC332      0.0000 
     20 C5D         8.1050   24.4580    7.9800 C.3       1 LNC332      0.0000 
     21 O5D         8.1320   25.5310    7.0190 O.3       1 LNC332      0.0000 
     22 PN          6.7520   26.0520    6.3990 P.3       1 LNC332      0.0000 
     23 O1N         6.8700   27.4880    6.0630 O.co2     1 LNC332      0.0000 
     24 O2N         6.3350   25.1590    5.2950 O.co2     1 LNC332      0.0000 
     25 O3          5.7590   25.8700    7.6400 O.3       1 LNC332      0.0000 
     26 PA          5.3160   27.3830    7.9140 P.3       1 LNC332      0.0000 
     27 O1A         6.4720   28.1560    8.4230 O.co2     1 LNC332      0.0000 
     28 O2A         4.6460   27.9310    6.7140 O.co2     1 LNC332      0.0000 
     29 O5B         4.2440   27.1880    9.0860 O.3       1 LNC332      0.0000 
     30 C5B         2.8500   27.0680    8.7440 C.3       1 LNC332      0.0000 
     31 C4B         2.0290   26.8230    9.9940 C.3       1 LNC332      0.0000 
     32 O4B         2.8690   26.9860   11.1730 O.3       1 LNC332      0.0000 
     33 C1B         2.0710   27.3960   12.2730 C.3       1 LNC332      0.0000 
     34 C2B         0.6610   27.6650   11.7550 C.3       1 LNC332      0.0000 
     35 O2B        -0.1040   26.5030   12.0220 O.3       1 LNC332      0.0000 
     36 C3B         0.8990   27.8200   10.2540 C.3       1 LNC332      0.0000 
     37 O3B        -0.2470   27.5310    9.4720 O.3       1 LNC332      0.0000 
     38 N9A         2.7140   28.5900   12.8880 N.pl3     1 LNC332      0.0000 
     39 C8A         3.1780   29.7160   12.2720 C.2       1 LNC332      0.0000 
     40 N7A         3.6900   30.5860   13.0860 N.2       1 LNC332      0.0000 
     41 C5A         3.5580   29.9950   14.3350 C.ar      1 LNC332      0.0000 
     42 C6A         3.9100   30.4070   15.6420 C.ar      1 LNC332      0.0000 
     43 N6A         4.5020   31.5800   15.9090 N.pl3     1 LNC332      0.0000 
     44 N1A         3.6310   29.5680   16.6560 N.ar      1 LNC332      0.0000 
     45 C2A         3.0430   28.4040   16.3840 C.ar      1 LNC332      0.0000 
     46 N3A         2.6700   27.9130   15.2220 N.ar      1 LNC332      0.0000 
     47 C4A         2.9610   28.7730   14.2240 C.ar      1 LNC332      0.0000 
     48 C3D        10.2280   25.6700    8.9380 C.3       1 LNC332      0.0000 
     49 O3D        10.5660   25.7640   10.3110 O.3       1 LNC332      0.0000 
     50 C2D        11.5180   25.4910    8.1390 C.3       1 LNC332      0.0000 
     51 O2D        12.6420   26.1690    8.6740 O.3       1 LNC332      0.0000 
     52 H          14.7551   18.7781    7.9020 H         1 LNC332      0.0000 
     53 H          13.8963   20.2040    8.5763 H         1 LNC332      0.0000 
     54 H          14.7962   21.9154    4.5567 H         1 LNC332      0.0000 
     55 H          13.8080   25.3875    3.9606 H         1 LNC332      0.0000 
     56 H          13.2988   23.9876    3.0010 H         1 LNC332      0.0000 
     57 H          16.0492   24.7874    3.9049 H         1 LNC332      0.0000 
     58 H          15.5012   24.2199    2.3182 H         1 LNC332      0.0000 
     59 H          15.0277   22.1931    4.2993 H         1 LNC332      0.0000 
     60 H          12.4067   25.0658    5.8470 H         1 LNC332      0.0000 
     61 H          12.8289   21.7565    8.1920 H         1 LNC332      0.0000 
     62 H          11.9961   23.6992    9.1555 H         1 LNC332      0.0000 
     63 H           9.2770   23.9138    9.6925 H         1 LNC332      0.0000 
     64 H           7.3117   24.6085    8.7219 H         1 LNC332      0.0000 
     65 H           7.9290   23.4917    7.4924 H         1 LNC332      0.0000 
     66 H           2.6805   26.2332    8.0531 H         1 LNC332      0.0000 
     67 H           2.4785   27.9811    8.2630 H         1 LNC332      0.0000 
     68 H           1.6159   25.8357    9.9930 H         1 LNC332      0.0000 
     69 H           2.0144   26.6015   13.0067 H         1 LNC332      0.0000 
     70 H           0.3096   28.5413   12.1556 H         1 LNC332      0.0000 
     71 H           1.3011   28.8007   10.0911 H         1 LNC332      0.0000 
     72 H           3.1122   29.8275   11.2722 H         1 LNC332      0.0000 
     73 H           4.6963   31.7657   16.8722 H         1 LNC332      0.0000 
     74 H           4.6963   32.1643   15.1210 H         1 LNC332      0.0000 
     75 H           2.8413   27.7601   17.2692 H         1 LNC332      0.0000 
     76 H           9.6968   26.4830    8.5657 H         1 LNC332      0.0000 
     77 H          11.2919   25.7492    7.1178 H         1 LNC332      0.0000 
     78 H          17.7499   22.4053    3.8983 H         1 LNC332      0.0000 
     79 H          -0.6462   26.3546   11.1950 H         1 LNC332      0.0000 
     80 H           0.0914   27.4597    8.5337 H         1 LNC332      0.0000 
     81 H          11.5360   26.0070   10.3226 H         1 LNC332      0.0000 
     82 H          12.5621   27.1074    8.3380 H         1 LNC332      0.0000 
@<TRIPOS>BOND
     1    2    1 am   
     2   52    1 1    
     3   53    1 1    
     4    3    2 2    
     5    4    2 1    
     6    5    4 ar   
     7   16    4 ar   
     8    6    5 ar   
     9   54    5 1    
    10    7    6 1    
    11   14    6 ar   
    12    8    7 1    
    13   55    7 1    
    14   56    7 1    
    15    9    8 1    
    16   57    8 1    
    17   58    8 1    
    18   10    9 1    
    19   11    9 1    
    20   59    9 1    
    21   78   10 1    
    22   12   11 ar   
    23   13   11 ar   
    24   15   14 ar   
    25   60   14 1    
    26   16   15 ar   
    27   17   15 1    
    28   61   16 1    
    29   18   17 1    
    30   50   17 1    
    31   62   17 1    
    32   19   18 1    
    33   20   19 1    
    34   48   19 1    
    35   63   19 1    
    36   21   20 1    
    37   64   20 1    
    38   65   20 1    
    39   22   21 1    
    40   23   22 ar   
    41   24   22 ar   
    42   25   22 1    
    43   26   25 1    
    44   27   26 ar   
    45   28   26 ar   
    46   29   26 1    
    47   30   29 1    
    48   31   30 1    
    49   66   30 1    
    50   67   30 1    
    51   32   31 1    
    52   36   31 1    
    53   68   31 1    
    54   33   32 1    
    55   34   33 1    
    56   38   33 1    
    57   69   33 1    
    58   35   34 1    
    59   36   34 1    
    60   70   34 1    
    61   79   35 1    
    62   37   36 1    
    63   71   36 1    
    64   80   37 1    
    65   39   38 1    
    66   47   38 1    
    67   40   39 2    
    68   72   39 1    
    69   41   40 1    
    70   42   41 ar   
    71   47   41 ar   
    72   43   42 1    
    73   44   42 ar   
    74   73   43 1    
    75   74   43 1    
    76   45   44 ar   
    77   46   45 ar   
    78   75   45 1    
    79   47   46 ar   
    80   49   48 1    
    81   50   48 1    
    82   76   48 1    
    83   81   49 1    
    84   51   50 1    
    85   77   50 1    
    86   82   51 1    
@<TRIPOS>SUBSTRUCTURE
     1 LNC332      1 GROUP   
@<TRIPOS>SET

