#    Name: 3cxw_7CP_1_INTS_M
#    Modification time : Mon Mar 24 22:29:48 2014

@<TRIPOS>MOLECULE
3cxw_7CP_1_INTS_M
   66     0     9     0     0
SMALL
NO_CHARGES


@<TRIPOS>ATOM
      1 CA         35.5675   49.4220   13.9780 C.3       3 GLC5        0.0000 
      2 CA         34.0670   49.1240   15.4580 C.3       9 GLL5        0.0000 
      3 CA         37.0680   49.7200   12.4980 C.3       6 GLP5        0.0000 
      4 OD1        36.6650   50.8835   15.3000 O.co2     2 ASC3        0.0000 
      5 OD1        35.9070   50.4560   16.3740 O.co2     8 ASL3        0.0000 
      6 OD1        37.4230   51.3110   14.2260 O.co2     5 ASP3        0.0000 
      7 O          36.6650   50.8835   15.3000 O.2       1 ALC1        0.0000 
      8 O          35.9070   50.4560   16.3740 O.2       7 ALL1        0.0000 
      9 O          37.4230   51.3110   14.2260 O.2       4 ALP1        0.0000 
     10 CA         38.6915   50.1715   17.8915 C.3       3 GLC5        0.0000 
     11 CA         36.8050   50.9640   17.4300 C.3       9 GLL5        0.0000 
     12 CA         40.5780   49.3790   18.3530 C.3       6 GLP5        0.0000 
     13 CA         35.5410   50.6255   13.7220 C.3       3 GLC5        0.0000 
     14 CA         34.0140   51.5310   14.9460 C.3       9 GLL5        0.0000 
     15 CA         32.3130   52.2410   15.5395 C.3       3 GLC5        0.0000 
     16 CA         33.1450   50.3110   15.0900 C.3       9 GLL5        0.0000 
     17 CA         31.4810   54.1710   15.9890 C.3       6 GLP5        0.0000 
     18 CA         27.3695   48.0780   16.7730 C.3       3 GLC5        0.0000 
     19 CA         29.2190   47.2900   16.7740 C.3       9 GLL5        0.0000 
     20 CA         25.5200   48.8660   16.7720 C.3       6 GLP5        0.0000 
     21 CA         29.0480   49.4500   14.6655 C.3       3 GLC5        0.0000 
     22 CA         29.6530   47.3240   14.2920 C.3       9 GLL5        0.0000 
     23 CA         28.4430   51.5760   15.0390 C.3       6 GLP5        0.0000 
     24 CA         27.2885   43.3035   15.1315 C.3       3 GLC5        0.0000 
     25 CA         27.8000   45.3640   14.7610 C.3       9 GLL5        0.0000 
     26 CA         26.7770   41.2430   15.5020 C.3       6 GLP5        0.0000 
     27 CA         27.1360   46.5350   11.1060 C.3       3 GLC5        0.0000 
     28 CA         27.7730   44.8880   11.7690 C.3       9 GLL5        0.0000 
     29 CA         26.4990   48.1820   10.4430 C.3       6 GLP5        0.0000 
     30 CA         26.1340   44.1810   11.5310 C.3       3 GLC5        0.0000 
     31 CA         24.4950   43.4740   11.2930 C.3       6 GLP5        0.0000 
     32 CA         27.8235   43.1060   11.0655 C.3       3 GLC5        0.0000 
     33 CA         27.8740   41.3240   10.3620 C.3       6 GLP5        0.0000 
     34 CA         30.2915   45.6200    9.9850 C.3       3 GLC5        0.0000 
     35 CA         29.6210   46.8250   11.5400 C.3       9 GLL5        0.0000 
     36 CA         30.9620   44.4150    8.4300 C.3       6 GLP5        0.0000 
     37 CA         28.8670   49.4810   13.1680 C.3       3 GLC5        0.0000 
     38 CA         30.4950   48.0310   13.4250 C.3       9 GLL5        0.0000 
     39 CA         27.2390   50.9310   12.9110 C.3       6 GLP5        0.0000 
     40 CA         31.5095   52.9310   13.9925 C.3       3 GLC5        0.0000 
     41 CA         31.6470   51.1790   13.2740 C.3       9 GLL5        0.0000 
     42 CA         31.3720   54.6830   14.7110 C.3       6 GLP5        0.0000 
     43 CA         32.2285   52.5130   12.0595 C.3       3 GLC5        0.0000 
     44 CA         32.8100   53.8470   10.8450 C.3       6 GLP5        0.0000 
     45 CA         33.5770   53.0162   16.1408 C.3       3 GLC5        0.0000 
     46 CA         32.6310   54.4350   16.7450 C.3       6 GLP5        0.0000 
     47 CA         29.7310   50.2080   14.9510 C.3       3 GLC5        0.0000 
     48 CA         31.2270   48.9430   14.1940 C.3       9 GLL5        0.0000 
     49 CA         32.3615   47.5755   14.2605 C.3       3 GLC5        0.0000 
     50 CA         30.8110   48.7370   15.5320 C.3       9 GLL5        0.0000 
     51 CA         33.7040   46.3110   13.6580 C.3       6 GLP5        0.0000 
     52 CA         26.5803   46.6013   14.5352 C.3       3 GLC5        0.0000 
     53 CA         28.8150   46.3430   13.7600 C.3       9 GLL5        0.0000 
     54 CA         24.8530   47.3490   14.8100 C.3       6 GLP5        0.0000 
     55 CA         27.6562   47.2013   11.7620 C.3       3 GLC5        0.0000 
     56 CA         29.5422   44.5192   13.4177 C.3       3 GLC5        0.0000 
     57 CA         30.7770   43.1850   12.5750 C.3       6 GLP5        0.0000 
     58 CA         28.2702   47.7443   11.1217 C.3       3 GLC5        0.0000 
     59 CA         30.2308   48.4162   10.1047 C.3       3 GLC5        0.0000 
     60 CA         30.4200   49.5260    8.4090 C.3       6 GLP5        0.0000 
     61 CA         29.8669   44.6720   12.1939 C.3       3 GLC5        0.0000 
     62 CA         31.9860   47.0219   13.3089 C.3       3 GLC5        0.0000 
     63 CA         30.4620   47.7880   12.0610 C.3       9 GLL5        0.0000 
     64 CA         30.2060   51.0827   14.2967 C.3       3 GLC5        0.0000 
     65 CA         32.2910   50.0000   13.8350 C.3       9 GLL5        0.0000 
     66 CA         33.3263   48.0849   14.1062 C.3       3 GLC5        0.0000 
@<TRIPOS>BOND
@<TRIPOS>SUBSTRUCTURE
     1 ALC1        7 GROUP        1 X    ALC  0     ROOT ALC X 1
     2 ASC3        4 GROUP        1 X    ASC  0     **** ASC X 3
     3 GLC5        1 GROUP        1 X    GLC  0     **** GLC X 6
     4 ALP1        9 GROUP        1 Y    ALP  0     ROOT ALP Y 8
     5 ASP3        6 GROUP        1 Y    ASP  0     **** ASP Y 10
     6 GLP5        3 GROUP        1 Y    GLP  0     **** GLP Y 13
     7 ALL1        8 GROUP        1 Z    ALL  0     ROOT ALL Z 15
     8 ASL3        5 GROUP        1 Z    ASL  0     **** ASL Z 17
     9 GLL5        2 GROUP        1 Z    GLL  0     **** GLL Z 20
@<TRIPOS>SET

