#    Name: 3cxw_7CP_1_ligand
#    Modification time : Mon Mar 24 22:29:48 2014

@<TRIPOS>MOLECULE
3cxw_7CP_1_ligand
   44    47     1     0     0
SMALL
NO_CHARGES


@<TRIPOS>ATOM
      1 C1L        34.0670   49.1240   15.4580 C.3       1 7CP501      0.0000 
      2 C1J        34.9250   49.4460   16.7290 C.3       1 7CP501      0.0000 
      3 N1W        35.9070   50.4560   16.3740 N.4       1 7CP501      0.0000 
      4 C1A        36.8050   50.9640   17.4300 C.3       1 7CP501      0.0000 
      5 C1K        35.0320   51.6640   16.1270 C.3       1 7CP501      0.0000 
      6 C1M        34.0140   51.5310   14.9460 C.3       1 7CP501      0.0000 
      7 C1Y        33.1450   50.3110   15.0900 C.3       1 7CP501      0.0000 
      8 N1N        32.3120   50.4590   16.2990 N.am      1 7CP501      0.0000 
      9 C1O        31.3080   49.5560   16.5490 C.2       1 7CP501      0.0000 
     10 O1D        30.6520   49.7260   17.5660 O.2       1 7CP501      0.0000 
     11 C1R        30.8110   48.7370   15.5320 C.2       1 7CP501      0.0000 
     12 N1X        29.8730   47.7880   15.5400 N.pl3     1 7CP501      0.0000 
     13 C1B        29.2190   47.2900   16.7740 C.3       1 7CP501      0.0000 
     14 C1U        29.6530   47.3240   14.2920 C.ar      1 7CP501      0.0000 
     15 C1Q        28.8150   46.3430   13.7600 C.ar      1 7CP501      0.0000 
     16 CL1F       27.8000   45.3640   14.7610 Cl        1 7CP501      0.0000 
     17 C1P        28.8120   46.0980   12.4020 C.ar      1 7CP501      0.0000 
     18 CL1E       27.7730   44.8880   11.7690 Cl        1 7CP501      0.0000 
     19 C1H        29.6210   46.8250   11.5400 C.ar      1 7CP501      0.0000 
     20 C1I        30.4620   47.7880   12.0610 C.ar      1 7CP501      0.0000 
     21 C1T        30.4950   48.0310   13.4250 C.ar      1 7CP501      0.0000 
     22 C1S        31.2270   48.9430   14.1940 C.2       1 7CP501      0.0000 
     23 C1V        32.2910   50.0000   13.8350 C.3       1 7CP501      0.0000 
     24 C1G        31.6470   51.1790   13.2740 C.1       1 7CP501      0.0000 
     25 N1C        31.0630   52.0560   12.8710 N.1       1 7CP501      0.0000 
     26 H          33.4618   48.2482   15.6621 H         1 7CP501      0.0000 
     27 H          34.7372   48.9193   14.6311 H         1 7CP501      0.0000 
     28 H          35.3919   48.5211   17.0461 H         1 7CP501      0.0000 
     29 H          34.2453   49.7946   17.4974 H         1 7CP501      0.0000 
     30 H          36.4096   50.2566   15.4820 H         1 7CP501      0.0000 
     31 H          35.6664   52.5490   15.9244 H         1 7CP501      0.0000 
     32 H          34.4545   51.8997   17.0422 H         1 7CP501      0.0000 
     33 H          34.5836   51.4826   14.0156 H         1 7CP501      0.0000 
     34 H          33.3998   52.4336   14.9290 H         1 7CP501      0.0000 
     35 H          32.5165   51.2405   16.9153 H         1 7CP501      0.0000 
     36 H          29.5921   46.6471   10.5320 H         1 7CP501      0.0000 
     37 H          31.0735   48.3340   11.4299 H         1 7CP501      0.0000 
     38 H          32.9532   49.5401   13.0971 H         1 7CP501      0.0000 
     39 H          37.3581   50.2334   17.8304 H         1 7CP501      0.0000 
     40 H          37.4392   51.6527   17.0786 H         1 7CP501      0.0000 
     41 H          36.2954   51.3893   18.1780 H         1 7CP501      0.0000 
     42 H          29.8802   46.8927   17.4103 H         1 7CP501      0.0000 
     43 H          28.7439   48.0212   17.2636 H         1 7CP501      0.0000 
     44 H          28.5414   46.5819   16.5754 H         1 7CP501      0.0000 
@<TRIPOS>BOND
     1    2    1 1    
     2    7    1 1    
     3   26    1 1    
     4   27    1 1    
     5    3    2 1    
     6   28    2 1    
     7   29    2 1    
     8    4    3 1    
     9    5    3 1    
    10   30    3 1    
    11   39    4 1    
    12   40    4 1    
    13   41    4 1    
    14    6    5 1    
    15   31    5 1    
    16   32    5 1    
    17    7    6 1    
    18   33    6 1    
    19   34    6 1    
    20    8    7 1    
    21   23    7 1    
    22    9    8 am   
    23   35    8 1    
    24   10    9 2    
    25   11    9 1    
    26   12   11 1    
    27   22   11 2    
    28   13   12 1    
    29   14   12 1    
    30   42   13 1    
    31   43   13 1    
    32   44   13 1    
    33   15   14 ar   
    34   21   14 ar   
    35   16   15 1    
    36   17   15 ar   
    37   18   17 1    
    38   19   17 ar   
    39   20   19 ar   
    40   36   19 1    
    41   21   20 ar   
    42   37   20 1    
    43   22   21 1    
    44   23   22 1    
    45   24   23 1    
    46   38   23 1    
    47   25   24 3    
@<TRIPOS>SUBSTRUCTURE
     1 7CP501      1 GROUP   
@<TRIPOS>SET

