#    Name: 4h76_10B_1_INTS_M
#    Modification time : Tue Mar 25 00:33:39 2014

@<TRIPOS>MOLECULE
4h76_10B_1_INTS_M
   70     0    12     0     0
SMALL
NO_CHARGES


@<TRIPOS>ATOM
      1 N         -10.7720   26.2955   -4.7765 N.am      2 SEC2        0.0000 
      2 N          -9.8230   26.3100   -3.7030 N.am     10 SEL2        0.0000 
      3 N         -11.7210   26.2810   -5.8500 N.am      6 SEP2        0.0000 
      4 N         -10.8775   25.0330   -4.1725 N.am      2 SEC2        0.0000 
      5 N         -11.9320   23.7560   -4.6420 N.am      6 SEP2        0.0000 
      6 Zn         -7.0095   25.6740   -0.9660 Zn        3 ZIC7        0.0000 
      7 Zn         -8.2510   27.3070   -2.0870 Zn       11 ZIL7        0.0000 
      8 Zn         -5.7680   24.0410    0.1550 Zn        7 ZIP7        0.0000 
      9 CA         -9.4620   29.3190   -1.6595 C.3       4 GLC5        0.0000 
     10 CA         -7.3800   29.3030   -1.1640 C.3      12 GLL5        0.0000 
     11 CA        -11.5440   29.3350   -2.1550 C.3       8 GLP5        0.0000 
     12 CA         -4.9850   28.6020   -0.4040 C.3       4 GLC5        0.0000 
     13 CA         -6.9720   29.1920    0.2970 C.3      12 GLL5        0.0000 
     14 CA         -2.9980   28.0120   -1.1050 C.3       8 GLP5        0.0000 
     15 CA         -4.7260   29.1505   -1.4815 C.3       4 GLC5        0.0000 
     16 CA         -6.4540   30.2890   -1.8580 C.3      12 GLL5        0.0000 
     17 CA        -10.2865   28.0260   -1.5785 C.3       4 GLC5        0.0000 
     18 CA         -9.0290   26.7170   -1.0020 C.3      12 GLL5        0.0000 
     19 Zn         -6.4640   24.8535    0.1200 Zn        3 ZIC7        0.0000 
     20 Zn         -7.1600   25.6660    0.0850 Zn       11 ZIL7        0.0000 
     21 O          -9.9065   24.0805   -1.4445 O.2       1 ALC1        0.0000 
     22 O          -8.6770   24.3450   -0.7790 O.2       9 ALL1        0.0000 
     23 O         -11.1360   23.8160   -2.1100 O.2       5 ALP1        0.0000 
     24 Zn         -6.7715   23.6710   -0.2350 Zn        3 ZIC7        0.0000 
     25 Zn         -7.7750   23.3010   -0.6250 Zn       11 ZIL7        0.0000 
     26 O          -8.4285   21.8485   -0.7120 O.2       1 ALC1        0.0000 
     27 O          -7.7750   23.3010   -0.6250 O.2       9 ALL1        0.0000 
     28 O          -9.0820   20.3960   -0.7990 O.2       5 ALP1        0.0000 
     29 O          -8.0510   22.4465   -1.5350 O.2       1 ALC1        0.0000 
     30 O          -8.3270   21.5920   -2.4450 O.2       5 ALP1        0.0000 
     31 CA         -7.8400   25.6910   -6.2785 C.3       4 GLC5        0.0000 
     32 CA         -7.3920   26.0590   -4.1260 C.3      12 GLL5        0.0000 
     33 CA         -8.2880   25.3230   -8.4310 C.3       8 GLP5        0.0000 
     34 CA         -3.5595   27.0835   -5.4495 C.3       4 GLC5        0.0000 
     35 CA         -5.1140   25.8320   -4.9540 C.3      12 GLL5        0.0000 
     36 CA         -2.0050   28.3350   -5.9450 C.3       8 GLP5        0.0000 
     37 CA         -4.1800   25.9410   -6.8210 C.3       4 GLC5        0.0000 
     38 CA         -3.2460   26.0500   -8.6880 C.3       8 GLP5        0.0000 
     39 CA         -4.9995   25.1365   -7.1195 C.3       4 GLC5        0.0000 
     40 CA         -5.2950   24.4570   -5.1220 C.3      12 GLL5        0.0000 
     41 CA         -4.7040   25.8160   -9.1170 C.3       8 GLP5        0.0000 
     42 CA         -7.4100   24.6065   -6.6200 C.3       4 GLC5        0.0000 
     43 CA         -6.5320   23.8900   -4.8090 C.3      12 GLL5        0.0000 
     44 CA         -7.4335   22.2230   -5.8300 C.3       4 GLC5        0.0000 
     45 CA         -8.3350   20.5560   -6.8510 C.3       8 GLP5        0.0000 
     46 CA         -8.9840   24.7130   -5.7615 C.3       4 GLC5        0.0000 
     47 CA         -7.5750   24.6820   -4.3070 C.3      12 GLL5        0.0000 
     48 CA        -10.3930   24.7440   -7.2160 C.3       8 GLP5        0.0000 
     49 CA         -4.6195   24.2475   -7.8905 C.3       4 GLC5        0.0000 
     50 CA         -4.5350   22.6790   -6.6640 C.3      12 GLL5        0.0000 
     51 CA         -3.9692   26.7710   -3.4925 C.3       4 GLC5        0.0000 
     52 CA         -2.3070   27.3170   -2.2830 C.3       8 GLP5        0.0000 
     53 CA         -5.9061   23.2274   -3.3226 C.3       4 GLC5        0.0000 
     54 CA         -5.0680   22.0270   -2.0090 C.3       8 GLP5        0.0000 
     55 CA         -3.7563   22.6328   -4.0922 C.3       4 GLC5        0.0000 
     56 CA         -4.1980   23.6260   -5.6970 C.3      12 GLL5        0.0000 
     57 CA         -3.9800   21.5530   -2.6600 C.3       8 GLP5        0.0000 
     58 CA         -5.1197   20.8203   -7.1650 C.3       4 GLC5        0.0000 
     59 CA         -6.1860   19.3580   -7.3670 C.3       8 GLP5        0.0000 
     60 CA         -3.9398   21.3323   -5.2740 C.3       4 GLC5        0.0000 
     61 CA         -3.5720   21.8860   -7.2620 C.3      12 GLL5        0.0000 
     62 CA         -3.8260   20.3820   -3.5850 C.3       8 GLP5        0.0000 
     63 CA         -2.8130   20.4992   -8.6288 C.3       4 GLC5        0.0000 
     64 CA         -2.7170   19.0270  -10.1800 C.3       8 GLP5        0.0000 
     65 CA         -2.9485   21.4582   -5.0035 C.3       4 GLC5        0.0000 
     66 CA         -2.2460   22.0570   -6.8930 C.3      12 GLL5        0.0000 
     67 CA         -0.8980   20.9047   -5.7950 C.3       4 GLC5        0.0000 
     68 CA         -1.8960   23.0120   -5.9510 C.3      12 GLL5        0.0000 
     69 CA          0.2750   19.2750   -5.1680 C.3       8 GLP5        0.0000 
     70 CA         -3.0288   24.3584   -7.5478 C.3       4 GLC5        0.0000 
@<TRIPOS>BOND
@<TRIPOS>SUBSTRUCTURE
     1 ALC1       21 GROUP        1 X    ALC  0     ROOT ALC X 1
     2 SEC2        1 GROUP        1 X    SEC  0     **** SEC X 2
     3 ZIC7        6 GROUP        1 X    ZIC  0     **** ZIC X 5
     4 GLC5        9 GROUP        1 X    GLC  0     **** GLC X 6
     5 ALP1       23 GROUP        1 Y    ALP  0     ROOT ALP Y 8
     6 SEP2        3 GROUP        1 Y    SEP  0     **** SEP Y 9
     7 ZIP7        8 GROUP        1 Y    ZIP  0     **** ZIP Y 12
     8 GLP5       11 GROUP        1 Y    GLP  0     **** GLP Y 13
     9 ALL1       22 GROUP        1 Z    ALL  0     ROOT ALL Z 15
    10 SEL2        2 GROUP        1 Z    SEL  0     **** SEL Z 16
    11 ZIL7        7 GROUP        1 Z    ZIL  0     **** ZIL Z 19
    12 GLL5       10 GROUP        1 Z    GLL  0     **** GLL Z 20
@<TRIPOS>SET

