#    Name: 4h76_10B_1_ligand
#    Modification time : Tue Mar 25 00:33:39 2014

@<TRIPOS>MOLECULE
4h76_10B_1_ligand
   45    46     1     0     0
SMALL
NO_CHARGES


@<TRIPOS>ATOM
      1 O14        -9.8230   26.3100   -3.7030 O.2       1 10B306      0.0000 
      2 S13        -8.5780   26.9920   -3.5480 S.o2      1 10B306      0.0000 
      3 O13        -8.5750   28.2280   -4.2800 O.2       1 10B306      0.0000 
      4 N12        -8.2510   27.3070   -2.0870 N.pl3     1 10B306      0.0000 
      5 O15        -7.2560   28.0510   -1.8390 O.3       1 10B306      0.0000 
      6 C67        -7.3800   29.3030   -1.1640 C.3       1 10B306      0.0000 
      7 C69        -6.9720   29.1920    0.2970 C.3       1 10B306      0.0000 
      8 C68        -6.4540   30.2890   -1.8580 C.3       1 10B306      0.0000 
      9 C31        -9.0290   26.7170   -1.0020 C.3       1 10B306      0.0000 
     10 C11        -8.2180   25.5400   -0.5040 C.2       1 10B306      0.0000 
     11 O2         -7.1600   25.6660    0.0850 O.2       1 10B306      0.0000 
     12 N2         -8.6770   24.3450   -0.7790 N.am      1 10B306      0.0000 
     13 O7         -7.7750   23.3010   -0.6250 O.3       1 10B306      0.0000 
     14 C28        -7.3920   26.0590   -4.1260 C.ar      1 10B306      0.0000 
     15 C14        -6.1490   26.6180   -4.4500 C.ar      1 10B306      0.0000 
     16 C17        -5.1140   25.8320   -4.9540 C.ar      1 10B306      0.0000 
     17 C16        -5.2950   24.4570   -5.1220 C.ar      1 10B306      0.0000 
     18 C15        -6.5320   23.8900   -4.8090 C.ar      1 10B306      0.0000 
     19 C29        -7.5750   24.6820   -4.3070 C.ar      1 10B306      0.0000 
     20 C21        -4.1980   23.6260   -5.6970 C.ar      1 10B306      0.0000 
     21 C26        -4.5350   22.6790   -6.6640 C.ar      1 10B306      0.0000 
     22 C25        -3.5720   21.8860   -7.2620 C.ar      1 10B306      0.0000 
     23 C24        -2.2460   22.0570   -6.8930 C.ar      1 10B306      0.0000 
     24 C23        -1.8960   23.0120   -5.9510 C.ar      1 10B306      0.0000 
     25 C30        -2.8670   23.7990   -5.3520 C.ar      1 10B306      0.0000 
     26 H          -8.3777   29.6886   -1.2207 H         1 10B306      0.0000 
     27 H          -9.9827   26.3606   -1.3560 H         1 10B306      0.0000 
     28 H          -9.1629   27.4173   -0.1935 H         1 10B306      0.0000 
     29 H          -9.6244   24.1532   -1.0875 H         1 10B306      0.0000 
     30 H          -5.9996   27.6320   -4.3117 H         1 10B306      0.0000 
     31 H          -4.2152   26.2637   -5.2030 H         1 10B306      0.0000 
     32 H          -6.6828   22.8806   -4.9471 H         1 10B306      0.0000 
     33 H          -8.4760   24.2501   -4.0715 H         1 10B306      0.0000 
     34 H          -5.5309   22.5707   -6.9374 H         1 10B306      0.0000 
     35 H          -3.8305   21.1884   -7.9611 H         1 10B306      0.0000 
     36 H          -1.5143   21.4685   -7.3232 H         1 10B306      0.0000 
     37 H          -0.9031   23.1380   -5.6934 H         1 10B306      0.0000 
     38 H          -2.6014   24.5065   -4.6562 H         1 10B306      0.0000 
     39 H          -6.0208   28.8997    0.3958 H         1 10B306      0.0000 
     40 H          -7.0613   30.0658    0.7750 H         1 10B306      0.0000 
     41 H          -7.5351   28.5291    0.7905 H         1 10B306      0.0000 
     42 H          -5.5007   29.9885   -1.8265 H         1 10B306      0.0000 
     43 H          -6.6924   30.4071   -2.8220 H         1 10B306      0.0000 
     44 H          -6.4902   31.1940   -1.4341 H         1 10B306      0.0000 
     45 H          -8.2636   22.4882   -0.9420 H         1 10B306      0.0000 
@<TRIPOS>BOND
     1    2    1 2    
     2    3    2 2    
     3    4    2 1    
     4   14    2 1    
     5    5    4 1    
     6    9    4 1    
     7    6    5 1    
     8    7    6 1    
     9    8    6 1    
    10   26    6 1    
    11   39    7 1    
    12   40    7 1    
    13   41    7 1    
    14   42    8 1    
    15   43    8 1    
    16   44    8 1    
    17   10    9 1    
    18   27    9 1    
    19   28    9 1    
    20   11   10 2    
    21   12   10 am   
    22   13   12 1    
    23   29   12 1    
    24   45   13 1    
    25   15   14 ar   
    26   19   14 ar   
    27   16   15 ar   
    28   30   15 1    
    29   17   16 ar   
    30   31   16 1    
    31   18   17 ar   
    32   20   17 1    
    33   19   18 ar   
    34   32   18 1    
    35   33   19 1    
    36   21   20 ar   
    37   25   20 ar   
    38   22   21 ar   
    39   34   21 1    
    40   23   22 ar   
    41   35   22 1    
    42   24   23 ar   
    43   36   23 1    
    44   25   24 ar   
    45   37   24 1    
    46   38   25 1    
@<TRIPOS>SUBSTRUCTURE
     1 10B306      1 GROUP   
@<TRIPOS>SET

