#    Name: 3u8w_09J_1_INTS_M
#    Modification time : Mon Mar 24 21:55:46 2014

@<TRIPOS>MOLECULE
3u8w_09J_1_INTS_M
   79     0     9     0     0
SMALL
NO_CHARGES


@<TRIPOS>ATOM
      1 CA          9.3365  -24.9305  -24.6830 C.3       3 GLC5        0.0000 
      2 CA          7.7050  -25.2730  -25.8720 C.3       9 GLL5        0.0000 
      3 CA         10.9680  -24.5880  -23.4940 C.3       6 GLP5        0.0000 
      4 CA          8.7910  -26.7575  -26.4245 C.3       3 GLC5        0.0000 
      5 CA          9.8770  -28.2420  -26.9770 C.3       6 GLP5        0.0000 
      6 CA          7.8320  -26.0470  -23.8995 C.3       3 GLC5        0.0000 
      7 CA          7.9590  -26.8210  -21.9270 C.3       6 GLP5        0.0000 
      8 CA          7.7455  -23.1390  -25.9170 C.3       3 GLC5        0.0000 
      9 CA          7.7860  -21.0050  -25.9620 C.3       6 GLP5        0.0000 
     10 CA          5.8715  -27.9800  -25.0710 C.3       3 GLC5        0.0000 
     11 CA          6.5200  -25.8870  -25.1300 C.3       9 GLL5        0.0000 
     12 CA          5.2230  -30.0730  -25.0120 C.3       6 GLP5        0.0000 
     13 CA          6.9130  -26.9355  -23.7200 C.3       3 GLC5        0.0000 
     14 CA          7.3060  -27.9840  -22.3100 C.3       6 GLP5        0.0000 
     15 CA          6.0370  -23.4785  -26.8310 C.3       3 GLC5        0.0000 
     16 CA          6.3280  -25.3300  -26.5450 C.3       9 GLL5        0.0000 
     17 CA          5.7460  -21.6270  -27.1170 C.3       6 GLP5        0.0000 
     18 O           6.8320  -25.7825  -28.7805 O.2       1 ALC1        0.0000 
     19 O           6.1540  -26.3110  -27.6450 O.2       7 ALL1        0.0000 
     20 O           7.5100  -25.2540  -29.9160 O.2       4 ALP1        0.0000 
     21 N           3.6000  -26.6375  -25.8180 N.am      2 SEC2        0.0000 
     22 N           4.2480  -27.2820  -26.8780 N.am      8 SEL2        0.0000 
     23 N           2.9520  -25.9930  -24.7580 N.am      5 SEP2        0.0000 
     24 CA          6.9115  -28.5950  -27.7125 C.3       3 GLC5        0.0000 
     25 CA          5.1110  -28.1080  -28.9590 C.3       9 GLL5        0.0000 
     26 CA          8.7120  -29.0820  -26.4660 C.3       6 GLP5        0.0000 
     27 CA          5.1670  -29.0905  -26.9855 C.3       3 GLC5        0.0000 
     28 CA          2.7365  -29.6765  -27.8655 C.3       3 GLC5        0.0000 
     29 CA          3.9240  -28.7730  -29.2710 C.3       9 GLL5        0.0000 
     30 CA          1.5490  -30.5800  -26.4600 C.3       6 GLP5        0.0000 
     31 CA          8.0430  -28.2275  -29.1365 C.3       3 GLC5        0.0000 
     32 CA          6.2260  -28.2920  -29.7800 C.3       9 GLL5        0.0000 
     33 CA          9.8600  -28.1630  -28.4930 C.3       6 GLP5        0.0000 
     34 CA          3.7480  -30.8290  -34.1670 C.3       3 GLC5        0.0000 
     35 CA          4.9240  -30.7060  -32.4300 C.3       9 GLL5        0.0000 
     36 CA          2.5720  -30.9520  -35.9040 C.3       6 GLP5        0.0000 
     37 CA          4.2015  -32.3005  -32.9515 C.3       3 GLC5        0.0000 
     38 CA          3.4790  -33.8950  -33.4730 C.3       6 GLP5        0.0000 
     39 CA          5.7930  -29.5785  -33.7815 C.3       3 GLC5        0.0000 
     40 CA          6.6620  -28.4510  -35.1330 C.3       6 GLP5        0.0000 
     41 CA          2.8715  -32.6685  -31.7195 C.3       3 GLC5        0.0000 
     42 CA          2.2640  -31.4420  -29.9660 C.3       9 GLL5        0.0000 
     43 CA          3.1330  -32.4600  -28.2420 C.3       3 GLC5        0.0000 
     44 CA          4.0020  -33.4780  -26.5180 C.3       6 GLP5        0.0000 
     45 CA         -0.5020  -31.3265  -35.6005 C.3       3 GLC5        0.0000 
     46 CA         -0.5780  -29.9310  -33.8380 C.3       9 GLL5        0.0000 
     47 CA         -0.4260  -32.7220  -37.3630 C.3       6 GLP5        0.0000 
     48 CA          0.9970  -30.4415  -34.8710 C.3       3 GLC5        0.0000 
     49 CA         -4.8340  -30.3920  -28.5390 C.3       3 GLC5        0.0000 
     50 CA         -3.1410  -30.7060  -29.2930 C.3       9 GLL5        0.0000 
     51 CA         -6.5270  -30.0780  -27.7850 C.3       6 GLP5        0.0000 
     52 CA         -2.3820  -31.8585  -27.7630 C.3       3 GLC5        0.0000 
     53 CA         -1.6230  -33.0110  -26.2330 C.3       6 GLP5        0.0000 
     54 CA         -1.7990  -30.0290  -28.2775 C.3       3 GLC5        0.0000 
     55 CA         -0.4570  -29.3520  -27.2620 C.3       6 GLP5        0.0000 
     56 CA         -5.5730  -30.6830  -29.6225 C.3       3 GLC5        0.0000 
     57 CA         -4.6190  -31.2880  -31.4600 C.3       9 GLL5        0.0000 
     58 CA         -1.0110  -33.0170  -35.3785 C.3       3 GLC5        0.0000 
     59 CA         -1.5960  -33.3120  -33.3940 C.3       9 GLL5        0.0000 
     60 CA          8.2703  -24.8782  -27.5877 C.3       3 GLC5        0.0000 
     61 CA          9.5240  -24.4550  -28.9670 C.3       6 GLP5        0.0000 
     62 CA          7.5680  -27.3453  -26.1517 C.3       3 GLC5        0.0000 
     63 CA          4.6895  -25.0708  -25.3702 C.3       3 GLC5        0.0000 
     64 CA          2.9550  -24.5330  -24.9030 C.3       6 GLP5        0.0000 
     65 CA          6.7675  -30.4710  -29.8745 C.3       3 GLC5        0.0000 
     66 CA          6.1420  -29.1360  -30.8900 C.3       9 GLL5        0.0000 
     67 CA          7.3510  -32.2280  -29.4140 C.3       6 GLP5        0.0000 
     68 CA          5.5110  -27.6660  -31.9753 C.3       3 GLC5        0.0000 
     69 CA          5.4550  -26.0750  -33.1850 C.3       6 GLP5        0.0000 
     70 CA          5.8652  -31.0825  -30.2545 C.3       3 GLC5        0.0000 
     71 CA          4.9500  -29.8000  -31.1960 C.3       9 GLL5        0.0000 
     72 CA          1.9830  -30.7080  -28.3660 C.3       3 GLC5        0.0000 
     73 CA          2.5700  -30.2300  -30.5780 C.3       9 GLL5        0.0000 
     74 CA         -5.3716  -33.0231  -30.8946 C.3       3 GLC5        0.0000 
     75 CA         -3.3680  -31.4210  -30.8510 C.3       9 GLL5        0.0000 
     76 CA         -6.3210  -34.4480  -29.8540 C.3       6 GLP5        0.0000 
     77 CA         -1.0515  -34.3672  -33.2567 C.3       3 GLC5        0.0000 
     78 CA         -2.5760  -32.6570  -32.7550 C.3       9 GLL5        0.0000 
     79 CA         -0.0170  -35.7500  -33.4390 C.3       6 GLP5        0.0000 
@<TRIPOS>BOND
@<TRIPOS>SUBSTRUCTURE
     1 ALC1       18 GROUP        1 X    ALC  0     ROOT ALC X 1
     2 SEC2       21 GROUP        1 X    SEC  0     **** SEC X 2
     3 GLC5        1 GROUP        1 X    GLC  0     **** GLC X 6
     4 ALP1       20 GROUP        1 Y    ALP  0     ROOT ALP Y 8
     5 SEP2       23 GROUP        1 Y    SEP  0     **** SEP Y 9
     6 GLP5        3 GROUP        1 Y    GLP  0     **** GLP Y 13
     7 ALL1       19 GROUP        1 Z    ALL  0     ROOT ALL Z 15
     8 SEL2       22 GROUP        1 Z    SEL  0     **** SEL Z 16
     9 GLL5        2 GROUP        1 Z    GLL  0     **** GLL Z 20
@<TRIPOS>SET

