#    Name: 3u8w_09J_1_ligand
#    Modification time : Mon Mar 24 21:55:47 2014

@<TRIPOS>MOLECULE
3u8w_09J_1_ligand
   54    58     1     0     0
SMALL
NO_CHARGES


@<TRIPOS>ATOM
      1 C23         7.7050  -25.2730  -25.8720 C.3       1 09J500      0.0000 
      2 C24         6.5200  -25.8870  -25.1300 C.3       1 09J500      0.0000 
      3 C22         6.3280  -25.3300  -26.5450 C.3       1 09J500      0.0000 
      4 N5          6.1540  -26.3110  -27.6450 N.am      1 09J500      0.0000 
      5 C21         5.1370  -27.1850  -27.7210 C.2       1 09J500      0.0000 
      6 O2          4.2480  -27.2820  -26.8780 O.2       1 09J500      0.0000 
      7 C11         5.1110  -28.1080  -28.9590 C.ar      1 09J500      0.0000 
      8 C10         3.9240  -28.7730  -29.2710 C.ar      1 09J500      0.0000 
      9 C12         6.2260  -28.2920  -29.7800 C.ar      1 09J500      0.0000 
     10 C13         6.1420  -29.1360  -30.8900 C.ar      1 09J500      0.0000 
     11 C14         4.9500  -29.8000  -31.1960 C.ar      1 09J500      0.0000 
     12 C20         4.9240  -30.7060  -32.4300 C.3       1 09J500      0.0000 
     13 C9          3.8220  -29.6210  -30.3770 C.ar      1 09J500      0.0000 
     14 C4          2.5700  -30.2300  -30.5780 C.2       1 09J500      0.0000 
     15 C5          2.2640  -31.4420  -29.9660 C.2       1 09J500      0.0000 
     16 C3          1.5720  -29.6230  -31.3480 C.2       1 09J500      0.0000 
     17 O1          1.8110  -28.5430  -31.8930 O.2       1 09J500      0.0000 
     18 N4          0.2910  -30.2580  -31.5150 N.am      1 09J500      0.0000 
     19 C7         -0.7270  -29.5650  -32.3570 C.3       1 09J500      0.0000 
     20 C8         -0.5780  -29.9310  -33.8380 C.3       1 09J500      0.0000 
     21 N3          0.0330  -31.3510  -30.9630 N.pl3     1 09J500      0.0000 
     22 C1          0.9990  -32.0000  -30.1670 C.2       1 09J500      0.0000 
     23 N1          0.4540  -33.1340  -29.7200 N.2       1 09J500      0.0000 
     24 N2         -0.7020  -33.2690  -30.1310 N.2       1 09J500      0.0000 
     25 C2         -1.0690  -32.2430  -30.8930 C.2       1 09J500      0.0000 
     26 C6         -2.3270  -32.1000  -31.5010 C.ar      1 09J500      0.0000 
     27 C15        -3.3680  -31.4210  -30.8510 C.ar      1 09J500      0.0000 
     28 CL1        -3.1410  -30.7060  -29.2930 Cl        1 09J500      0.0000 
     29 C16        -4.6190  -31.2880  -31.4600 C.ar      1 09J500      0.0000 
     30 C17        -4.8510  -31.8420  -32.7150 C.ar      1 09J500      0.0000 
     31 C18        -3.8240  -32.5250  -33.3630 C.ar      1 09J500      0.0000 
     32 C19        -2.5760  -32.6570  -32.7550 C.ar      1 09J500      0.0000 
     33 F1         -1.5960  -33.3120  -33.3940 F         1 09J500      0.0000 
     34 H           8.2202  -25.9822  -26.2241 H         1 09J500      0.0000 
     35 H           7.8227  -24.3945  -25.5452 H         1 09J500      0.0000 
     36 H           6.1947  -25.2385  -24.5247 H         1 09J500      0.0000 
     37 H           6.5922  -26.8263  -25.2036 H         1 09J500      0.0000 
     38 H           5.9443  -24.4613  -26.4413 H         1 09J500      0.0000 
     39 H           6.9028  -26.2747  -28.3830 H         1 09J500      0.0000 
     40 H           3.0919  -28.6339  -28.6637 H         1 09J500      0.0000 
     41 H           7.1051  -27.8082  -29.5683 H         1 09J500      0.0000 
     42 H           6.9689  -29.2715  -31.4916 H         1 09J500      0.0000 
     43 H           2.9500  -31.9168  -29.3802 H         1 09J500      0.0000 
     44 H          -0.6239  -28.4790  -32.2555 H         1 09J500      0.0000 
     45 H          -1.7361  -29.8401  -32.0311 H         1 09J500      0.0000 
     46 H          -5.3699  -30.7776  -30.9757 H         1 09J500      0.0000 
     47 H          -5.7687  -31.7490  -33.1595 H         1 09J500      0.0000 
     48 H          -3.9863  -32.9335  -34.2931 H         1 09J500      0.0000 
     49 H           5.1293  -30.1992  -33.2672 H         1 09J500      0.0000 
     50 H           5.5947  -31.4447  -32.3626 H         1 09J500      0.0000 
     51 H           4.0291  -31.1334  -32.5581 H         1 09J500      0.0000 
     52 H           0.3227  -29.6812  -34.1935 H         1 09J500      0.0000 
     53 H          -0.6917  -30.9126  -33.9912 H         1 09J500      0.0000 
     54 H          -1.2567  -29.4652  -34.4058 H         1 09J500      0.0000 
@<TRIPOS>BOND
     1    2    1 1    
     2    3    1 1    
     3   34    1 1    
     4   35    1 1    
     5    3    2 1    
     6   36    2 1    
     7   37    2 1    
     8    4    3 1    
     9   38    3 1    
    10    5    4 am   
    11   39    4 1    
    12    6    5 2    
    13    7    5 1    
    14    8    7 ar   
    15    9    7 ar   
    16   13    8 ar   
    17   40    8 1    
    18   10    9 ar   
    19   41    9 1    
    20   11   10 ar   
    21   42   10 1    
    22   12   11 1    
    23   13   11 ar   
    24   49   12 1    
    25   50   12 1    
    26   51   12 1    
    27   14   13 1    
    28   15   14 2    
    29   16   14 1    
    30   22   15 1    
    31   43   15 1    
    32   17   16 2    
    33   18   16 am   
    34   19   18 1    
    35   21   18 1    
    36   20   19 1    
    37   44   19 1    
    38   45   19 1    
    39   52   20 1    
    40   53   20 1    
    41   54   20 1    
    42   22   21 1    
    43   25   21 1    
    44   23   22 2    
    45   24   23 1    
    46   25   24 2    
    47   26   25 1    
    48   27   26 ar   
    49   32   26 ar   
    50   28   27 1    
    51   29   27 ar   
    52   30   29 ar   
    53   46   29 1    
    54   31   30 ar   
    55   47   30 1    
    56   32   31 ar   
    57   48   31 1    
    58   33   32 1    
@<TRIPOS>SUBSTRUCTURE
     1 09J500      1 GROUP   
@<TRIPOS>SET

