#    Name: 3p74_FMN_1_INTS_M
#    Modification time : Tue Mar 25 06:00:53 2014

@<TRIPOS>MOLECULE
3p74_FMN_1_INTS_M
   87     0    12     0     0
SMALL
NO_CHARGES


@<TRIPOS>ATOM
      1 N          -9.3275   -4.6240   19.6780 N.am      2 SEC2        0.0000 
      2 N          -9.0490   -6.0720   19.8320 N.am     10 SEL2        0.0000 
      3 N          -9.6060   -3.1760   19.5240 N.am      6 SEP2        0.0000 
      4 N          -8.4625   -6.4935   18.5860 N.am      2 SEC2        0.0000 
      5 N          -7.8760   -6.9150   17.3400 N.am      6 SEP2        0.0000 
      6 O          -8.4420   -4.3655   21.6755 O.2       1 ALC1        0.0000 
      7 O          -7.7520   -5.6880   21.6280 O.2       9 ALL1        0.0000 
      8 O          -9.1320   -3.0430   21.7230 O.2       5 ALP1        0.0000 
      9 N          -6.1215   -5.4960   24.6825 N.am      2 SEC2        0.0000 
     10 N          -6.4480   -5.2280   23.4230 N.am     10 SEL2        0.0000 
     11 N          -5.7950   -5.7640   25.9420 N.am      6 SEP2        0.0000 
     12 N          -6.4345   -3.6305   23.8515 N.am      2 SEC2        0.0000 
     13 N          -6.4210   -2.0330   24.2800 N.am      6 SEP2        0.0000 
     14 N          -4.1545   -6.6555   23.6710 N.am      2 SEC2        0.0000 
     15 N          -4.9690   -7.6050   23.0010 N.am     10 SEL2        0.0000 
     16 N          -3.3400   -5.7060   24.3410 N.am      6 SEP2        0.0000 
     17 CA         -4.3750   -7.5355   24.4385 C.3       4 GLC5        0.0000 
     18 CA         -4.1590   -8.6210   22.5770 C.3      12 GLL5        0.0000 
     19 CA         -4.5910   -6.4500   26.3000 C.3       8 GLP5        0.0000 
     20 CA         -3.2125   -7.2860   24.5710 C.3       4 GLC5        0.0000 
     21 CA         -3.0430   -8.9560   23.3460 C.3      12 GLL5        0.0000 
     22 CA         -3.3820   -5.6160   25.7960 C.3       8 GLP5        0.0000 
     23 CA          0.7875   -9.6050   22.8765 C.3       4 GLC5        0.0000 
     24 CA         -0.9460  -10.2380   23.8320 C.3      12 GLL5        0.0000 
     25 CA          2.5210   -8.9720   21.9210 C.3       8 GLP5        0.0000 
     26 CA          0.6500  -10.8300   24.8615 C.3       4 GLC5        0.0000 
     27 CA          2.2460  -11.4220   25.8910 C.3       8 GLP5        0.0000 
     28 CA         -1.7245  -10.8595   25.2690 C.3       4 GLC5        0.0000 
     29 CA         -2.5030  -11.4810   26.7060 C.3       8 GLP5        0.0000 
     30 CA         -2.4580  -13.2960   21.2260 C.3       4 GLC5        0.0000 
     31 CA         -1.3860  -11.6210   21.2160 C.3      12 GLL5        0.0000 
     32 CA         -3.5300  -14.9710   21.2360 C.3       8 GLP5        0.0000 
     33 CA          0.0490  -11.9740   20.1585 C.3       4 GLC5        0.0000 
     34 CA          1.4840  -12.3270   19.1010 C.3       8 GLP5        0.0000 
     35 CA          0.3680  -12.2010   22.4930 C.3       4 GLC5        0.0000 
     36 CA          2.1220  -12.7810   23.7700 C.3       8 GLP5        0.0000 
     37 CA         -2.7965   -8.1035   19.2305 C.3       4 GLC5        0.0000 
     38 CA         -4.6240   -8.5730   18.2710 C.3      12 GLL5        0.0000 
     39 CA         -0.9690   -7.6340   20.1900 C.3       8 GLP5        0.0000 
     40 N          -6.4910   -7.0750   17.7075 N.am      2 SEC2        0.0000 
     41 N          -5.1060   -7.2350   18.0750 N.am     10 SEL2        0.0000 
     42 N          -6.0870   -7.0965   16.6460 N.am      2 SEC2        0.0000 
     43 N          -7.0680   -6.9580   15.2170 N.am      6 SEP2        0.0000 
     44 O          -4.7105   -6.4590   19.0955 O.2       1 ALC1        0.0000 
     45 O          -5.1060   -7.2350   18.0750 O.2       9 ALL1        0.0000 
     46 O          -4.3150   -5.6830   20.1160 O.2       5 ALP1        0.0000 
     47 N          -6.7965   -8.0590   16.7745 N.am      2 SEC2        0.0000 
     48 N          -5.7170   -9.2030   16.2090 N.am     10 SEL2        0.0000 
     49 N          -6.3925   -8.0805   15.7130 N.am      2 SEC2        0.0000 
     50 CA         -3.6595  -12.3895   17.7870 C.3       4 GLC5        0.0000 
     51 CA         -3.7520  -10.4760   16.7620 C.3      12 GLL5        0.0000 
     52 CA         -3.5670  -14.3030   18.8120 C.3       8 GLP5        0.0000 
     53 CA         -4.2840  -11.6245   13.8505 C.3       4 GLC5        0.0000 
     54 CA         -3.3320  -10.6460   15.2940 C.3      12 GLL5        0.0000 
     55 CA         -5.2360  -12.6030   12.4070 C.3       8 GLP5        0.0000 
     56 N          -2.8580  -12.7355   13.7030 N.am      2 SEC2        0.0000 
     57 N          -2.6870  -11.8740   15.0830 N.am     10 SEL2        0.0000 
     58 N          -3.0290  -13.5970   12.3230 N.am      6 SEP2        0.0000 
     59 NZ         -0.1390  -12.8715   17.1380 N.4       3 LYC4        0.0000 
     60 NZ         -0.5840  -11.6910   16.4430 N.4      11 LYL4        0.0000 
     61 NZ         -0.2180  -15.2380   17.5240 N.4       7 LYP4        0.0000 
     62 N           0.4565  -10.8260   16.8410 N.am      2 SEC2        0.0000 
     63 N          -0.5840  -11.6910   16.4430 N.am     10 SEL2        0.0000 
     64 N           1.4970   -9.9610   17.2390 N.am      6 SEP2        0.0000 
     65 N          -0.1390  -12.8715   17.1380 N.am      2 SEC2        0.0000 
     66 N           0.3060  -14.0520   17.8330 N.am      6 SEP2        0.0000 
     67 NZ         -0.8785  -14.3530   15.4630 N.4       3 LYC4        0.0000 
     68 NZ         -0.8760  -13.3240   14.5360 N.4      11 LYL4        0.0000 
     69 N          -1.9525  -13.4605   13.4295 N.am      2 SEC2        0.0000 
     70 N          -0.8760  -13.3240   14.5360 N.am     10 SEL2        0.0000 
     71 N          -0.8785  -14.3530   15.4630 N.am      2 SEC2        0.0000 
     72 N          -0.8810  -15.3820   16.3900 N.am      6 SEP2        0.0000 
     73 N          -0.3530   -9.5000   14.6015 N.am      2 SEC2        0.0000 
     74 N          -0.6420  -10.8120   14.0670 N.am     10 SEL2        0.0000 
     75 N          -0.0640   -8.1880   15.1360 N.am      6 SEP2        0.0000 
     76 CA         -3.0130   -7.0648   22.5498 C.3       4 GLC5        0.0000 
     77 CA         -2.4250   -5.3410   22.1380 C.3       8 GLP5        0.0000 
     78 CA         -1.2565   -8.8605   21.7908 C.3       4 GLC5        0.0000 
     79 CA         -2.1420   -9.9360   22.9510 C.3      12 GLL5        0.0000 
     80 CA         -1.4215   -9.3720   20.8350 C.3       4 GLC5        0.0000 
     81 CA         -2.3620  -10.5990   21.7440 C.3      12 GLL5        0.0000 
     82 CA         -2.4510   -8.6975   20.6750 C.3       4 GLC5        0.0000 
     83 CA         -3.4740  -10.2650   20.9660 C.3      12 GLL5        0.0000 
     84 CA         -3.7102   -7.2838   16.7945 C.3       4 GLC5        0.0000 
     85 CA         -2.8880   -5.7100   16.0230 C.3       8 GLP5        0.0000 
     86 CA         -1.7825   -9.3765   16.3125 C.3       4 GLC5        0.0000 
     87 CA         -0.0230   -8.1920   16.5970 C.3       8 GLP5        0.0000 
@<TRIPOS>BOND
@<TRIPOS>SUBSTRUCTURE
     1 ALC1        6 GROUP        1 X    ALC  0     ROOT ALC X 1
     2 SEC2        1 GROUP        1 X    SEC  0     **** SEC X 2
     3 LYC4       59 GROUP        1 X    LYC  0     **** LYC X 4
     4 GLC5       17 GROUP        1 X    GLC  0     **** GLC X 6
     5 ALP1        8 GROUP        1 Y    ALP  0     ROOT ALP Y 8
     6 SEP2        3 GROUP        1 Y    SEP  0     **** SEP Y 9
     7 LYP4       61 GROUP        1 Y    LYP  0     **** LYP Y 11
     8 GLP5       19 GROUP        1 Y    GLP  0     **** GLP Y 13
     9 ALL1        7 GROUP        1 Z    ALL  0     ROOT ALL Z 15
    10 SEL2        2 GROUP        1 Z    SEL  0     **** SEL Z 16
    11 LYL4       60 GROUP        1 Z    LYL  0     **** LYL Z 18
    12 GLL5       18 GROUP        1 Z    GLL  0     **** GLL Z 20
@<TRIPOS>SET

