#    Name: 3p74_FMN_1_ligand
#    Modification time : Tue Mar 25 06:00:54 2014

@<TRIPOS>MOLECULE
3p74_FMN_1_ligand
   50    52     1     0     0
SMALL
NO_CHARGES


@<TRIPOS>ATOM
      1 N1         -7.3300   -7.5100   20.1990 N.2       1 FMN401      0.0000 
      2 C2         -8.0700   -6.4320   20.5280 C.2       1 FMN401      0.0000 
      3 O2         -9.0490   -6.0720   19.8320 O.2       1 FMN401      0.0000 
      4 N3         -7.7520   -5.6880   21.6280 N.am      1 FMN401      0.0000 
      5 C4         -6.7350   -6.0180   22.4740 C.2       1 FMN401      0.0000 
      6 O4         -6.4480   -5.2280   23.4230 O.2       1 FMN401      0.0000 
      7 C4A        -6.0010   -7.1820   22.1830 C.2       1 FMN401      0.0000 
      8 N5         -4.9690   -7.6050   23.0010 N.2       1 FMN401      0.0000 
      9 C5A        -4.1590   -8.6210   22.5770 C.ar      1 FMN401      0.0000 
     10 C6         -3.0430   -8.9560   23.3460 C.ar      1 FMN401      0.0000 
     11 C7         -2.1420   -9.9360   22.9510 C.ar      1 FMN401      0.0000 
     12 C7M        -0.9460  -10.2380   23.8320 C.3       1 FMN401      0.0000 
     13 C8         -2.3620  -10.5990   21.7440 C.ar      1 FMN401      0.0000 
     14 C8M        -1.3860  -11.6210   21.2160 C.3       1 FMN401      0.0000 
     15 C9         -3.4740  -10.2650   20.9660 C.ar      1 FMN401      0.0000 
     16 C9A        -4.3920   -9.2570   21.3540 C.ar      1 FMN401      0.0000 
     17 N10        -5.4970   -8.9190   20.5980 N.pl3     1 FMN401      0.0000 
     18 C10        -6.2870   -7.8780   20.9960 C.2       1 FMN401      0.0000 
     19 C1'        -5.5920   -9.3640   19.1690 C.3       1 FMN401      0.0000 
     20 C2'        -4.6240   -8.5730   18.2710 C.3       1 FMN401      0.0000 
     21 O2'        -5.1060   -7.2350   18.0750 O.3       1 FMN401      0.0000 
     22 C3'        -4.4410   -9.1420   16.8610 C.3       1 FMN401      0.0000 
     23 O3'        -5.7170   -9.2030   16.2090 O.3       1 FMN401      0.0000 
     24 C4'        -3.7520  -10.4760   16.7620 C.3       1 FMN401      0.0000 
     25 O4'        -2.6190  -10.4380   17.6280 O.3       1 FMN401      0.0000 
     26 C5'        -3.3320  -10.6460   15.2940 C.3       1 FMN401      0.0000 
     27 O5'        -2.6870  -11.8740   15.0830 O.3       1 FMN401      0.0000 
     28 P          -1.0950  -11.9070   15.0300 P.3       1 FMN401      0.0000 
     29 O1P        -0.5840  -11.6910   16.4430 O.co2     1 FMN401      0.0000 
     30 O2P        -0.8760  -13.3240   14.5360 O.co2     1 FMN401      0.0000 
     31 O3P        -0.6420  -10.8120   14.0670 O.co2     1 FMN401      0.0000 
     32 H          -8.3186   -4.8200   21.8314 H         1 FMN401      0.0000 
     33 H          -2.8838   -8.4526   24.2449 H         1 FMN401      0.0000 
     34 H          -3.6406  -10.7671   20.0726 H         1 FMN401      0.0000 
     35 H          -6.6089   -9.2161   18.7971 H         1 FMN401      0.0000 
     36 H          -5.3481  -10.4263   19.0901 H         1 FMN401      0.0000 
     37 H          -3.6497   -8.5412   18.7450 H         1 FMN401      0.0000 
     38 H          -3.8139   -8.4016   16.3022 H         1 FMN401      0.0000 
     39 H          -4.4408  -11.2388   17.0142 H         1 FMN401      0.0000 
     40 H          -2.6867   -9.7843   15.0412 H         1 FMN401      0.0000 
     41 H          -4.2476  -10.5425   14.6825 H         1 FMN401      0.0000 
     42 H          -0.3695  -10.9562   23.4422 H         1 FMN401      0.0000 
     43 H          -0.3660   -9.4334   23.9594 H         1 FMN401      0.0000 
     44 H          -1.2234  -10.5464   24.7419 H         1 FMN401      0.0000 
     45 H          -0.4785  -11.2272   21.0702 H         1 FMN401      0.0000 
     46 H          -1.2744  -12.3887   21.8470 H         1 FMN401      0.0000 
     47 H          -1.6843  -12.0019   20.3408 H         1 FMN401      0.0000 
     48 H          -4.7566   -6.7172   18.8559 H         1 FMN401      0.0000 
     49 H          -5.7994  -10.1470   15.8895 H         1 FMN401      0.0000 
     50 H          -1.8905  -10.8988   17.1212 H         1 FMN401      0.0000 
@<TRIPOS>BOND
     1    2    1 1    
     2   18    1 2    
     3    3    2 2    
     4    4    2 am   
     5    5    4 am   
     6   32    4 1    
     7    6    5 2    
     8    7    5 1    
     9    8    7 2    
    10   18    7 1    
    11    9    8 1    
    12   10    9 ar   
    13   16    9 ar   
    14   11   10 ar   
    15   33   10 1    
    16   12   11 1    
    17   13   11 ar   
    18   42   12 1    
    19   43   12 1    
    20   44   12 1    
    21   14   13 1    
    22   15   13 ar   
    23   45   14 1    
    24   46   14 1    
    25   47   14 1    
    26   16   15 ar   
    27   34   15 1    
    28   17   16 1    
    29   18   17 1    
    30   19   17 1    
    31   20   19 1    
    32   35   19 1    
    33   36   19 1    
    34   21   20 1    
    35   22   20 1    
    36   37   20 1    
    37   48   21 1    
    38   23   22 1    
    39   24   22 1    
    40   38   22 1    
    41   49   23 1    
    42   25   24 1    
    43   26   24 1    
    44   39   24 1    
    45   50   25 1    
    46   27   26 1    
    47   40   26 1    
    48   41   26 1    
    49   28   27 1    
    50   29   28 ar   
    51   30   28 ar   
    52   31   28 ar   
@<TRIPOS>SUBSTRUCTURE
     1 FMN401      1 GROUP   
@<TRIPOS>SET

