#    Name: 2nni_MTK_1_INTS_M
#    Modification time : Tue Mar 25 21:22:55 2014

@<TRIPOS>MOLECULE
2nni_MTK_1_INTS_M
   92     0     9     0     0
SMALL
NO_CHARGES


@<TRIPOS>ATOM
      1 CA         54.2310    8.8950  -27.7420 C.3       3 GLC5        0.0000 
      2 CA         52.8340    8.6830  -29.2800 C.3       9 GLL5        0.0000 
      3 CA         55.6280    9.1070  -26.2040 C.3       6 GLP5        0.0000 
      4 CA         52.9495    5.7420  -30.3535 C.3       3 GLC5        0.0000 
      5 CA         52.8520    7.8490  -30.4320 C.3       9 GLL5        0.0000 
      6 CA         53.0470    3.6350  -30.2750 C.3       6 GLP5        0.0000 
      7 CA         51.8190    6.4560  -34.1710 C.3       3 GLC5        0.0000 
      8 CA         51.6040    6.5890  -32.1750 C.3       9 GLL5        0.0000 
      9 CA         52.0340    6.3230  -36.1670 C.3       6 GLP5        0.0000 
     10 CA         50.8815    5.5775  -34.2985 C.3       3 GLC5        0.0000 
     11 CA         50.3480    6.1830  -32.7310 C.3       9 GLL5        0.0000 
     12 CA         51.4150    4.9720  -35.8660 C.3       6 GLP5        0.0000 
     13 CA         47.1845    5.0850  -34.4260 C.3       3 GLC5        0.0000 
     14 CA         47.6200    6.1200  -32.8120 C.3       9 GLL5        0.0000 
     15 CA         46.7490    4.0500  -36.0400 C.3       6 GLP5        0.0000 
     16 CA         46.4800    7.3420  -33.3140 C.3       3 GLC5        0.0000 
     17 CA         45.3400    8.5640  -33.8160 C.3       6 GLP5        0.0000 
     18 CA         47.2270    4.3600  -32.7040 C.3       3 GLC5        0.0000 
     19 CA         46.8340    2.6000  -32.5960 C.3       6 GLP5        0.0000 
     20 CA         52.9265   13.1380  -26.9085 C.3       3 GLC5        0.0000 
     21 CA         52.4630   11.2490  -25.7820 C.3       9 GLL5        0.0000 
     22 CA         53.3900   15.0270  -28.0350 C.3       6 GLP5        0.0000 
     23 CA         50.5540   12.4100  -27.2435 C.3       3 GLC5        0.0000 
     24 CA         51.2330   11.7350  -25.2730 C.3       9 GLL5        0.0000 
     25 CA         49.8750   13.0850  -29.2140 C.3       6 GLP5        0.0000 
     26 CA         54.3960   13.4440  -25.6905 C.3       3 GLC5        0.0000 
     27 CA         53.6720   11.6370  -25.1530 C.3       9 GLL5        0.0000 
     28 CA         55.1200   15.2510  -26.2280 C.3       6 GLP5        0.0000 
     29 CA         46.2880    9.3135  -22.5960 C.3       3 GLC5        0.0000 
     30 CA         47.4510    9.9730  -20.9600 C.3       9 GLL5        0.0000 
     31 CA         45.1250    8.6540  -24.2320 C.3       6 GLP5        0.0000 
     32 CA         47.0255    9.8090  -18.9445 C.3       3 GLC5        0.0000 
     33 CA         48.6880   11.2680  -19.1150 C.3       9 GLL5        0.0000 
     34 CA         45.3630    8.3500  -18.7740 C.3       6 GLP5        0.0000 
     35 N          51.6135   10.4275  -17.8275 N.am      2 SEC2        0.0000 
     36 N          50.9590   11.3950  -18.3260 N.am      8 SEL2        0.0000 
     37 N          52.2680    9.4600  -17.3290 N.am      5 SEP2        0.0000 
     38 N          51.4160    8.4190  -19.8830 N.am      2 SEC2        0.0000 
     39 N          50.4130    9.6240  -19.4180 N.am      8 SEL2        0.0000 
     40 N          52.4190    7.2140  -20.3480 N.am      5 SEP2        0.0000 
     41 CA         51.1575   17.9865  -28.0880 C.3       3 GLC5        0.0000 
     42 CA         50.6300   18.2800  -25.9900 C.3       9 GLL5        0.0000 
     43 CA         51.6850   17.6930  -30.1860 C.3       6 GLP5        0.0000 
     44 CA         46.2660   17.9670  -27.7975 C.3       3 GLC5        0.0000 
     45 CA         46.8680   16.0680  -27.0020 C.3       9 GLL5        0.0000 
     46 CA         45.6640   19.8660  -28.5930 C.3       6 GLP5        0.0000 
     47 CA         48.4585   13.8245  -28.2555 C.3       3 GLC5        0.0000 
     48 CA         47.0420   14.5640  -27.2970 C.3       9 GLL5        0.0000 
     49 CA         44.4005   16.5860  -25.2260 C.3       3 GLC5        0.0000 
     50 CA         45.8100   16.2490  -25.9120 C.3       9 GLL5        0.0000 
     51 CA         42.9910   16.9230  -24.5400 C.3       6 GLP5        0.0000 
     52 O          47.2405   16.0725  -29.3755 O.2       1 ALC1        0.0000 
     53 O          46.3540   16.6480  -28.2090 O.2       7 ALL1        0.0000 
     54 O          48.1270   15.4970  -30.5420 O.2       4 ALP1        0.0000 
     55 CA         52.6440    7.1400  -28.3175 C.3       3 GLC5        0.0000 
     56 CA         52.4450    6.0140  -26.7790 C.3       6 GLP5        0.0000 
     57 CA         51.2010   10.1608  -30.0478 C.3       3 GLC5        0.0000 
     58 CA         50.1990   11.4390  -31.0880 C.3       6 GLP5        0.0000 
     59 CA         50.8347    5.7870  -30.1672 C.3       3 GLC5        0.0000 
     60 CA         51.6270    7.4220  -31.0230 C.3       9 GLL5        0.0000 
     61 CA         50.6620    3.9370  -29.6100 C.3       6 GLP5        0.0000 
     62 CA         51.0910    4.6775  -32.1435 C.3       3 GLC5        0.0000 
     63 CA         51.2060    2.9690  -31.8340 C.3       6 GLP5        0.0000 
     64 CA         53.3159    8.3171  -32.4686 C.3       3 GLC5        0.0000 
     65 CA         54.7100    9.5220  -33.4860 C.3       6 GLP5        0.0000 
     66 CA         49.8980    5.4787  -30.5875 C.3       3 GLC5        0.0000 
     67 CA         49.1430    7.4370  -30.9900 C.3       9 GLL5        0.0000 
     68 CA         47.2069    6.6963  -30.6615 C.3       3 GLC5        0.0000 
     69 CA         49.1250    6.6040  -32.1400 C.3       9 GLL5        0.0000 
     70 CA         45.6560    6.4930  -29.5900 C.3       6 GLP5        0.0000 
     71 CA         50.1371    9.4880  -30.9726 C.3       3 GLC5        0.0000 
     72 CA         53.8132    9.6292  -26.7278 C.3       3 GLC5        0.0000 
     73 CA         51.4500    9.9040  -27.6120 C.3       9 GLL5        0.0000 
     74 CA         50.9368   11.6182  -28.2327 C.3       3 GLC5        0.0000 
     75 CA         52.5470   10.3990  -26.8910 C.3       9 GLL5        0.0000 
     76 CA         52.2370    7.9800  -27.1556 C.3       3 GLC5        0.0000 
     77 CA         55.4230   11.9258  -24.0347 C.3       3 GLC5        0.0000 
     78 CA         57.1820   11.7870  -23.4800 C.3       6 GLP5        0.0000 
     79 CA         54.4949   10.5373  -25.4754 C.3       3 GLC5        0.0000 
     80 CA         53.6560   12.4920  -24.0260 C.3       9 GLL5        0.0000 
     81 CA         53.1425   14.1625  -24.5489 C.3       3 GLC5        0.0000 
     82 CA         54.1520   15.6530  -25.1370 C.3       6 GLP5        0.0000 
     83 CA         46.4189    9.4839  -19.8040 C.3       3 GLC5        0.0000 
     84 CA         52.2873   16.7095  -25.3505 C.3       3 GLC5        0.0000 
     85 CA         50.2150   17.2520  -25.1380 C.3       9 GLL5        0.0000 
     86 CA         50.1418   18.6060  -23.8200 C.3       3 GLC5        0.0000 
     87 CA         49.8610   19.4460  -22.0760 C.3       6 GLP5        0.0000 
     88 CA         47.0580   18.6023  -27.7907 C.3       3 GLC5        0.0000 
     89 CA         48.6800   17.8670  -27.4090 C.3       9 GLL5        0.0000 
     90 CA         49.5009   17.3880  -28.6830 C.3       3 GLC5        0.0000 
     91 CA         48.2240   16.8100  -26.5680 C.3       9 GLL5        0.0000 
     92 CA         50.2540   17.2560  -30.4480 C.3       6 GLP5        0.0000 
@<TRIPOS>BOND
@<TRIPOS>SUBSTRUCTURE
     1 ALC1       52 GROUP        1 X    ALC  0     ROOT ALC X 1
     2 SEC2       35 GROUP        1 X    SEC  0     **** SEC X 2
     3 GLC5        1 GROUP        1 X    GLC  0     **** GLC X 6
     4 ALP1       54 GROUP        1 Y    ALP  0     ROOT ALP Y 8
     5 SEP2       37 GROUP        1 Y    SEP  0     **** SEP Y 9
     6 GLP5        3 GROUP        1 Y    GLP  0     **** GLP Y 13
     7 ALL1       53 GROUP        1 Z    ALL  0     ROOT ALL Z 15
     8 SEL2       36 GROUP        1 Z    SEL  0     **** SEL Z 16
     9 GLL5        2 GROUP        1 Z    GLL  0     **** GLL Z 20
@<TRIPOS>SET

