#    Name: 2nni_MTK_1_ligand
#    Modification time : Tue Mar 25 21:22:55 2014

@<TRIPOS>MOLECULE
2nni_MTK_1_ligand
   78    82     1     0     0
SMALL
NO_CHARGES


@<TRIPOS>ATOM
      1 CAQ        52.8340    8.6830  -29.2800 C.ar      1 MTK501      0.0000 
      2 CAS        52.8520    7.8490  -30.4320 C.ar      1 MTK501      0.0000 
      3 CBK        51.6270    7.4220  -31.0230 C.ar      1 MTK501      0.0000 
      4 CAR        51.6040    6.5890  -32.1750 C.ar      1 MTK501      0.0000 
      5 CAO        50.3480    6.1830  -32.7310 C.ar      1 MTK501      0.0000 
      6 CBE        49.1250    6.6040  -32.1400 C.ar      1 MTK501      0.0000 
      7 CLAF       47.6200    6.1200  -32.8120 Cl        1 MTK501      0.0000 
      8 CAU        49.1430    7.4370  -30.9900 C.ar      1 MTK501      0.0000 
      9 CBL        50.3880    7.8520  -30.4260 C.ar      1 MTK501      0.0000 
     10 NBB        50.4130    8.6550  -29.3220 N.ar      1 MTK501      0.0000 
     11 CBG        51.5720    9.0820  -28.7350 C.ar      1 MTK501      0.0000 
     12 CAH        51.4500    9.9040  -27.6120 C.3       1 MTK501      0.0000 
     13 CAG        52.5470   10.3990  -26.8910 C.3       1 MTK501      0.0000 
     14 CBF        52.4630   11.2490  -25.7820 C.ar      1 MTK501      0.0000 
     15 CAT        51.2330   11.7350  -25.2730 C.ar      1 MTK501      0.0000 
     16 CAL        53.6720   11.6370  -25.1530 C.ar      1 MTK501      0.0000 
     17 CAK        53.6560   12.4920  -24.0260 C.ar      1 MTK501      0.0000 
     18 CAN        52.4300   12.9800  -23.5190 C.ar      1 MTK501      0.0000 
     19 CBI        51.2230   12.6080  -24.1490 C.ar      1 MTK501      0.0000 
     20 CBM        49.9400   13.2760  -23.6730 C.3       1 MTK501      0.0000 
     21 SBC        48.6890   12.0520  -23.2360 S.3       1 MTK501      0.0000 
     22 CAZ        49.0920   12.0940  -21.4620 C.3       1 MTK501      0.0000 
     23 CBO        48.2540   11.1750  -20.5800 C.3       1 MTK501      0.0000 
     24 CAX        46.7430   11.3500  -20.8360 C.3       1 MTK501      0.0000 
     25 CAY        47.4510    9.9730  -20.9600 C.3       1 MTK501      0.0000 
     26 CBA        48.6880   11.2680  -19.1150 C.3       1 MTK501      0.0000 
     27 CBD        50.1100   10.7250  -18.9380 C.2       1 MTK501      0.0000 
     28 OAC        50.9590   11.3950  -18.3260 O.co2     1 MTK501      0.0000 
     29 OAD        50.4130    9.6240  -19.4180 O.co2     1 MTK501      0.0000 
     30 CAW        49.4540   14.1620  -24.7960 C.3       1 MTK501      0.0000 
     31 CAV        48.7760   15.4280  -24.3210 C.3       1 MTK501      0.0000 
     32 CBH        49.0360   16.5040  -25.3860 C.ar      1 MTK501      0.0000 
     33 CAM        50.2150   17.2520  -25.1380 C.ar      1 MTK501      0.0000 
     34 CAI        50.6300   18.2800  -25.9900 C.ar      1 MTK501      0.0000 
     35 CAJ        49.8630   18.5930  -27.1270 C.ar      1 MTK501      0.0000 
     36 CAP        48.6800   17.8670  -27.4090 C.ar      1 MTK501      0.0000 
     37 CBJ        48.2240   16.8100  -26.5680 C.ar      1 MTK501      0.0000 
     38 CBN        46.8680   16.0680  -27.0020 C.3       1 MTK501      0.0000 
     39 CAA        47.0420   14.5640  -27.2970 C.3       1 MTK501      0.0000 
     40 CAB        45.8100   16.2490  -25.9120 C.3       1 MTK501      0.0000 
     41 OAE        46.3540   16.6480  -28.2090 O.3       1 MTK501      0.0000 
     42 H          53.6933    8.9902  -28.8515 H         1 MTK501      0.0000 
     43 H          53.7389    7.5562  -30.8356 H         1 MTK501      0.0000 
     44 H          52.4694    6.2815  -32.6040 H         1 MTK501      0.0000 
     45 H          50.3354    5.5863  -33.5586 H         1 MTK501      0.0000 
     46 H          48.2699    7.7406  -30.5645 H         1 MTK501      0.0000 
     47 H          50.7242    9.3811  -26.8526 H         1 MTK501      0.0000 
     48 H          50.7640   10.8127  -27.8961 H         1 MTK501      0.0000 
     49 H          53.2935   10.8872  -27.6641 H         1 MTK501      0.0000 
     50 H          53.2231    9.4793  -26.5904 H         1 MTK501      0.0000 
     51 H          50.3546   11.4611  -25.7096 H         1 MTK501      0.0000 
     52 H          54.5656   11.2946  -25.5185 H         1 MTK501      0.0000 
     53 H          54.5351   12.7578  -23.5767 H         1 MTK501      0.0000 
     54 H          52.4188   13.5931  -22.7082 H         1 MTK501      0.0000 
     55 H          50.0897   13.8164  -22.7821 H         1 MTK501      0.0000 
     56 H          48.9694   13.1462  -21.2276 H         1 MTK501      0.0000 
     57 H          50.1478   11.8443  -21.4645 H         1 MTK501      0.0000 
     58 H          46.6513   11.6813  -21.7085 H         1 MTK501      0.0000 
     59 H          46.3240   11.3589  -19.9971 H         1 MTK501      0.0000 
     60 H          47.2372    9.4871  -20.1750 H         1 MTK501      0.0000 
     61 H          47.5645    9.8095  -21.8865 H         1 MTK501      0.0000 
     62 H          48.0043   10.6878  -18.5005 H         1 MTK501      0.0000 
     63 H          48.6597   12.3072  -18.7974 H         1 MTK501      0.0000 
     64 H          48.7498   13.5916  -25.4276 H         1 MTK501      0.0000 
     65 H          50.3100   14.4317  -25.4400 H         1 MTK501      0.0000 
     66 H          49.2008   15.7463  -23.3876 H         1 MTK501      0.0000 
     67 H          47.7178   15.2689  -24.2319 H         1 MTK501      0.0000 
     68 H          50.7789   17.0238  -24.2997 H         1 MTK501      0.0000 
     69 H          51.4848   18.8031  -25.7913 H         1 MTK501      0.0000 
     70 H          50.1566   19.3454  -27.7538 H         1 MTK501      0.0000 
     71 H          48.1285   18.1075  -28.2480 H         1 MTK501      0.0000 
     72 H          47.6922   14.4040  -28.0397 H         1 MTK501      0.0000 
     73 H          47.3804   14.0657  -26.4988 H         1 MTK501      0.0000 
     74 H          46.1791   14.1360  -27.5656 H         1 MTK501      0.0000 
     75 H          46.1101   15.8701  -25.0366 H         1 MTK501      0.0000 
     76 H          45.5982   17.2139  -25.7566 H         1 MTK501      0.0000 
     77 H          44.9512   15.7948  -26.1490 H         1 MTK501      0.0000 
     78 H          46.9338   16.2843  -28.9381 H         1 MTK501      0.0000 
@<TRIPOS>BOND
     1    2    1 ar   
     2   11    1 ar   
     3   42    1 1    
     4    3    2 ar   
     5   43    2 1    
     6    4    3 ar   
     7    9    3 ar   
     8    5    4 ar   
     9   44    4 1    
    10    6    5 ar   
    11   45    5 1    
    12    7    6 1    
    13    8    6 ar   
    14    9    8 ar   
    15   46    8 1    
    16   10    9 ar   
    17   11   10 ar   
    18   12   11 1    
    19   13   12 1    
    20   47   12 1    
    21   48   12 1    
    22   14   13 1    
    23   49   13 1    
    24   50   13 1    
    25   15   14 ar   
    26   16   14 ar   
    27   19   15 ar   
    28   51   15 1    
    29   17   16 ar   
    30   52   16 1    
    31   18   17 ar   
    32   53   17 1    
    33   19   18 ar   
    34   54   18 1    
    35   20   19 1    
    36   21   20 1    
    37   30   20 1    
    38   55   20 1    
    39   22   21 1    
    40   23   22 1    
    41   56   22 1    
    42   57   22 1    
    43   24   23 1    
    44   25   23 1    
    45   26   23 1    
    46   25   24 1    
    47   58   24 1    
    48   59   24 1    
    49   60   25 1    
    50   61   25 1    
    51   27   26 1    
    52   62   26 1    
    53   63   26 1    
    54   28   27 ar   
    55   29   27 ar   
    56   31   30 1    
    57   64   30 1    
    58   65   30 1    
    59   32   31 1    
    60   66   31 1    
    61   67   31 1    
    62   33   32 ar   
    63   37   32 ar   
    64   34   33 ar   
    65   68   33 1    
    66   35   34 ar   
    67   69   34 1    
    68   36   35 ar   
    69   70   35 1    
    70   37   36 ar   
    71   71   36 1    
    72   38   37 1    
    73   39   38 1    
    74   40   38 1    
    75   41   38 1    
    76   72   39 1    
    77   73   39 1    
    78   74   39 1    
    79   75   40 1    
    80   76   40 1    
    81   77   40 1    
    82   78   41 1    
@<TRIPOS>SUBSTRUCTURE
     1 MTK501      1 GROUP   
@<TRIPOS>SET

