#    Name: 3jzd_NAD_3_INTS_M
#    Modification time : Mon Mar 24 17:42:55 2014

@<TRIPOS>MOLECULE
3jzd_NAD_3_INTS_M
   90     0     9     0     0
SMALL
NO_CHARGES


@<TRIPOS>ATOM
      1 N          34.4150  140.6190   20.7015 N.am      2 SEC2        0.0000 
      2 N          34.8400  141.5270   19.6800 N.am      8 SEL2        0.0000 
      3 N          33.9900  139.7110   21.7230 N.am      5 SEP2        0.0000 
      4 N          35.7495  140.5575   20.3175 N.am      2 SEC2        0.0000 
      5 N          36.6590  139.5880   20.9550 N.am      5 SEP2        0.0000 
      6 N          36.8315  140.1885   19.8925 N.am      2 SEC2        0.0000 
      7 N          37.0040  140.7890   18.8300 N.am      8 SEL2        0.0000 
      8 CA         36.2670  147.8305   19.8665 C.3       3 GLC5        0.0000 
      9 CA         36.9410  145.9090   18.9860 C.3       9 GLL5        0.0000 
     10 CA         35.5930  149.7520   20.7470 C.3       6 GLP5        0.0000 
     11 N          37.8480  146.9425   21.1950 N.am      2 SEC2        0.0000 
     12 N          37.2660  146.8070   20.0320 N.am      8 SEL2        0.0000 
     13 N          38.4300  147.0780   22.3580 N.am      5 SEP2        0.0000 
     14 O          35.9440  147.1910   20.4455 O.2       1 ALC1        0.0000 
     15 O          37.2660  146.8070   20.0320 O.2       7 ALL1        0.0000 
     16 O          34.6220  147.5750   20.8590 O.2       4 ALP1        0.0000 
     17 N          32.0540  147.1225   18.3755 N.am      2 SEC2        0.0000 
     18 N          33.0300  147.1000   17.4330 N.am      8 SEL2        0.0000 
     19 N          31.0780  147.1450   19.3180 N.am      5 SEP2        0.0000 
     20 CA         32.6635  146.2615   16.8350 C.3       3 GLC5        0.0000 
     21 CA         33.4540  148.3210   17.0490 C.3       9 GLL5        0.0000 
     22 CA         31.8730  144.2020   16.6210 C.3       6 GLP5        0.0000 
     23 O          30.7315  148.2600   16.5235 O.2       1 ALC1        0.0000 
     24 O          31.4550  149.5460   16.5510 O.2       7 ALL1        0.0000 
     25 O          30.0080  146.9740   16.4960 O.2       4 ALP1        0.0000 
     26 O          30.4235  150.5090   17.0105 O.2       1 ALC1        0.0000 
     27 O          29.3920  151.4720   17.4700 O.2       4 ALP1        0.0000 
     28 CA         35.2450  150.1605   18.5725 C.3       3 GLC5        0.0000 
     29 CA         34.8970  150.5690   16.3980 C.3       9 GLL5        0.0000 
     30 CA         33.8170  150.1775   14.6755 C.3       3 GLC5        0.0000 
     31 CA         32.7370  149.7860   12.9530 C.3       6 GLP5        0.0000 
     32 CA         35.2410  149.7870   14.4550 C.3       3 GLC5        0.0000 
     33 CA         35.5850  149.0050   12.5120 C.3       6 GLP5        0.0000 
     34 CA         35.2190  149.0255   18.9195 C.3       3 GLC5        0.0000 
     35 CA         34.8450  148.2990   17.0920 C.3       9 GLL5        0.0000 
     36 N          32.1475  140.7550   18.6850 N.am      2 SEC2        0.0000 
     37 N          32.5210  140.8880   17.2240 N.am      8 SEL2        0.0000 
     38 N          31.7740  140.6220   20.1460 N.am      5 SEP2        0.0000 
     39 N          31.4890  141.5625   17.0795 N.am      2 SEC2        0.0000 
     40 N          30.4570  142.2370   16.9350 N.am      5 SEP2        0.0000 
     41 CA         34.3845  136.7060   16.5645 C.3       3 GLC5        0.0000 
     42 CA         34.5720  137.8200   18.0810 C.3       9 GLL5        0.0000 
     43 CA         34.1970  135.5920   15.0480 C.3       6 GLP5        0.0000 
     44 CA         34.8135  138.2865   21.0400 C.3       3 GLC5        0.0000 
     45 CA         34.6050  136.9720   19.3330 C.3       9 GLL5        0.0000 
     46 CA         35.0220  139.6010   22.7470 C.3       6 GLP5        0.0000 
     47 CA         35.3265  135.2585   17.0855 C.3       3 GLC5        0.0000 
     48 CA         35.3050  135.6410   19.0470 C.3       9 GLL5        0.0000 
     49 CA         35.3480  134.8760   15.1240 C.3       6 GLP5        0.0000 
     50 N          37.5280  135.6660   21.1100 N.am      2 SEC2        0.0000 
     51 N          36.2120  135.3250   20.0880 N.am      8 SEL2        0.0000 
     52 N          38.8440  136.0070   22.1320 N.am      5 SEP2        0.0000 
     53 O          37.0510  134.2570   20.0880 O.2       1 ALC1        0.0000 
     54 O          36.2120  135.3250   20.0880 O.2       7 ALL1        0.0000 
     55 O          37.8900  133.1890   20.0880 O.2       4 ALP1        0.0000 
     56 CA         34.1600  135.1265   16.9820 C.3       3 GLC5        0.0000 
     57 CA         34.1230  134.6610   18.9160 C.3       9 GLL5        0.0000 
     58 CA         32.4295  137.2800   20.3145 C.3       3 GLC5        0.0000 
     59 CA         33.0680  135.2610   19.8450 C.3       9 GLL5        0.0000 
     60 CA         31.7910  139.2990   20.7840 C.3       6 GLP5        0.0000 
     61 N          26.6185  132.8065   22.0600 N.am      2 SEC2        0.0000 
     62 N          27.4150  132.8860   21.1330 N.am      8 SEL2        0.0000 
     63 N          25.8220  132.7270   22.9870 N.am      5 SEP2        0.0000 
     64 O          28.9445  132.1745   23.6675 O.2       1 ALC1        0.0000 
     65 O          29.4390  132.4930   22.2640 O.2       7 ALL1        0.0000 
     66 O          28.4500  131.8560   25.0710 O.2       4 ALP1        0.0000 
     67 CA         32.6550  135.3630   16.6650 C.3       3 GLC5        0.0000 
     68 CA         31.1130  135.1340   18.2820 C.3       9 GLL5        0.0000 
     69 CA         36.4098  144.2728   15.3987 C.3       3 GLC5        0.0000 
     70 CA         37.1360  143.2790   16.9820 C.3       9 GLL5        0.0000 
     71 CA         35.3300  144.5910   13.7210 C.3       6 GLP5        0.0000 
     72 CA         37.6690  145.1248   20.8537 C.3       3 GLC5        0.0000 
     73 CA         38.0910  144.9660   18.6390 C.3       9 GLL5        0.0000 
     74 CA         37.8220  144.8120   22.8950 C.3       6 GLP5        0.0000 
     75 CA         31.5008  148.4055   18.0033 C.3       3 GLC5        0.0000 
     76 CA         29.8840  147.9040   19.1470 C.3       6 GLP5        0.0000 
     77 CA         33.2801  147.6970   15.5769 C.3       3 GLC5        0.0000 
     78 CA         32.7810  149.4930   16.6700 C.3       9 GLL5        0.0000 
     79 CA         32.5790  146.7910   14.1780 C.3       6 GLP5        0.0000 
     80 CA         33.1898  138.3475   19.7455 C.3       3 GLC5        0.0000 
     81 CA         29.3210  135.3155   21.0347 C.3       3 GLC5        0.0000 
     82 CA         30.9380  134.1380   20.4550 C.3       9 GLL5        0.0000 
     83 CA         28.3660  136.6950   21.7560 C.3       6 GLP5        0.0000 
     84 CA         28.8942  135.5418   20.1090 C.3       3 GLC5        0.0000 
     85 CA         29.0420  134.0400   18.9380 C.3       9 GLL5        0.0000 
     86 CA         30.0570  136.7873   17.7130 C.3       3 GLC5        0.0000 
     87 CA         29.8030  134.7370   17.9860 C.3       9 GLL5        0.0000 
     88 CA         29.6560  138.6390   17.2920 C.3       6 GLP5        0.0000 
     89 CA         27.8682  133.3295   18.2873 C.3       3 GLC5        0.0000 
     90 CA         26.1710  132.3470   17.8040 C.3       6 GLP5        0.0000 
@<TRIPOS>BOND
@<TRIPOS>SUBSTRUCTURE
     1 ALC1       14 GROUP        1 X    ALC  0     ROOT ALC X 1
     2 SEC2        1 GROUP        1 X    SEC  0     **** SEC X 2
     3 GLC5        8 GROUP        1 X    GLC  0     **** GLC X 6
     4 ALP1       16 GROUP        1 Y    ALP  0     ROOT ALP Y 8
     5 SEP2        3 GROUP        1 Y    SEP  0     **** SEP Y 9
     6 GLP5       10 GROUP        1 Y    GLP  0     **** GLP Y 13
     7 ALL1       15 GROUP        1 Z    ALL  0     ROOT ALL Z 15
     8 SEL2        2 GROUP        1 Z    SEL  0     **** SEL Z 16
     9 GLL5        9 GROUP        1 Z    GLL  0     **** GLL Z 20
@<TRIPOS>SET

