#    Name: 3jzd_NAD_3_ligand
#    Modification time : Mon Mar 24 17:42:55 2014

@<TRIPOS>MOLECULE
3jzd_NAD_3_ligand
   70    74     1     0     0
SMALL
NO_CHARGES


@<TRIPOS>ATOM
      1 PA         35.7720  141.5450   18.4970 P.3       1 NAD400      0.0000 
      2 O1A        34.8400  141.5270   19.6800 O.co2     1 NAD400      0.0000 
      3 O2A        37.0040  140.7890   18.8300 O.co2     1 NAD400      0.0000 
      4 O5B        36.1180  143.0420   17.9440 O.3       1 NAD400      0.0000 
      5 C5B        37.1360  143.2790   16.9820 C.3       1 NAD400      0.0000 
      6 C4B        37.8430  144.6300   17.1710 C.3       1 NAD400      0.0000 
      7 O4B        37.0560  145.6920   16.6430 O.3       1 NAD400      0.0000 
      8 C3B        38.0910  144.9660   18.6390 C.3       1 NAD400      0.0000 
      9 O3B        39.3670  145.5690   18.7890 O.3       1 NAD400      0.0000 
     10 C2B        36.9410  145.9090   18.9860 C.3       1 NAD400      0.0000 
     11 O2B        37.2660  146.8070   20.0320 O.3       1 NAD400      0.0000 
     12 C1B        36.6600  146.6100   17.6590 C.3       1 NAD400      0.0000 
     13 N9A        35.2480  147.0460   17.4950 N.pl3     1 NAD400      0.0000 
     14 C8A        34.1040  146.3120   17.7010 C.2       1 NAD400      0.0000 
     15 N7A        33.0300  147.1000   17.4330 N.2       1 NAD400      0.0000 
     16 C5A        33.4540  148.3210   17.0490 C.ar      1 NAD400      0.0000 
     17 C6A        32.7810  149.4930   16.6700 C.ar      1 NAD400      0.0000 
     18 N6A        31.4550  149.5460   16.5510 N.pl3     1 NAD400      0.0000 
     19 N1A        33.5180  150.6140   16.3510 N.ar      1 NAD400      0.0000 
     20 C2A        34.8970  150.5690   16.3980 C.ar      1 NAD400      0.0000 
     21 N3A        35.5520  149.4120   16.7760 N.ar      1 NAD400      0.0000 
     22 C4A        34.8450  148.2990   17.0920 C.ar      1 NAD400      0.0000 
     23 O3         35.0900  140.8950   17.1570 O.3       1 NAD400      0.0000 
     24 PN         33.7080  140.0170   17.0180 P.3       1 NAD400      0.0000 
     25 O1N        33.9100  139.2840   15.7380 O.co2     1 NAD400      0.0000 
     26 O2N        32.5210  140.8880   17.2240 O.co2     1 NAD400      0.0000 
     27 O5D        33.6930  138.9240   18.2080 O.3       1 NAD400      0.0000 
     28 C5D        34.5720  137.8200   18.0810 C.3       1 NAD400      0.0000 
     29 C4D        34.6050  136.9720   19.3330 C.3       1 NAD400      0.0000 
     30 O4D        33.2710  136.6710   19.7220 O.3       1 NAD400      0.0000 
     31 C3D        35.3050  135.6410   19.0470 C.3       1 NAD400      0.0000 
     32 O3D        36.2120  135.3250   20.0880 O.3       1 NAD400      0.0000 
     33 C2D        34.1230  134.6610   18.9160 C.3       1 NAD400      0.0000 
     34 O2D        34.4000  133.3060   19.2070 O.3       1 NAD400      0.0000 
     35 C1D        33.0680  135.2610   19.8450 C.3       1 NAD400      0.0000 
     36 N1N        31.6720  134.8360   19.5180 N.pl3     1 NAD400      0.0000 
     37 C2N        30.9380  134.1380   20.4550 C.ar      1 NAD400      0.0000 
     38 C3N        29.6140  133.7340   20.1720 C.ar      1 NAD400      0.0000 
     39 C7N        28.8090  133.0120   21.2220 C.2       1 NAD400      0.0000 
     40 O7N        27.4150  132.8860   21.1330 O.2       1 NAD400      0.0000 
     41 N7N        29.4390  132.4930   22.2640 N.am      1 NAD400      0.0000 
     42 C4N        29.0420  134.0400   18.9380 C.ar      1 NAD400      0.0000 
     43 C5N        29.8030  134.7370   17.9860 C.ar      1 NAD400      0.0000 
     44 C6N        31.1130  135.1340   18.2820 C.ar      1 NAD400      0.0000 
     45 H          36.7335  143.2640   15.9470 H         1 NAD400      0.0000 
     46 H          37.9206  142.4935   17.0134 H         1 NAD400      0.0000 
     47 H          38.8048  144.5889   16.6747 H         1 NAD400      0.0000 
     48 H          37.9683  144.0689   19.1990 H         1 NAD400      0.0000 
     49 H          36.0827  145.2895   19.2030 H         1 NAD400      0.0000 
     50 H          37.3180  147.4883   17.6246 H         1 NAD400      0.0000 
     51 H          34.0780  145.3959   17.9866 H         1 NAD400      0.0000 
     52 H          30.9973  148.6825   16.3389 H         1 NAD400      0.0000 
     53 H          31.0368  150.4446   16.6845 H         1 NAD400      0.0000 
     54 H          35.4471  151.4104   16.1476 H         1 NAD400      0.0000 
     55 H          35.6097  138.1488   17.8695 H         1 NAD400      0.0000 
     56 H          34.2801  137.1630   17.2368 H         1 NAD400      0.0000 
     57 H          35.1381  137.4803   20.0976 H         1 NAD400      0.0000 
     58 H          35.7598  135.7294   18.0820 H         1 NAD400      0.0000 
     59 H          33.7282  134.8021   17.8977 H         1 NAD400      0.0000 
     60 H          33.3281  134.9447   20.8549 H         1 NAD400      0.0000 
     61 H          31.3449  133.9028   21.3713 H         1 NAD400      0.0000 
     62 H          30.4255  132.6512   22.3053 H         1 NAD400      0.0000 
     63 H          28.8713  131.9897   22.9155 H         1 NAD400      0.0000 
     64 H          28.0843  133.7633   18.7254 H         1 NAD400      0.0000 
     65 H          29.3960  134.9558   17.0694 H         1 NAD400      0.0000 
     66 H          31.6590  135.6480   17.5779 H         1 NAD400      0.0000 
     67 H          39.2044  146.3835   19.3460 H         1 NAD400      0.0000 
     68 H          36.5053  146.7384   20.6776 H         1 NAD400      0.0000 
     69 H          36.1792  134.3286   20.1660 H         1 NAD400      0.0000 
     70 H          34.6053  132.8881   18.3220 H         1 NAD400      0.0000 
@<TRIPOS>BOND
     1    2    1 ar   
     2    3    1 ar   
     3    4    1 1    
     4   23    1 1    
     5    5    4 1    
     6    6    5 1    
     7   45    5 1    
     8   46    5 1    
     9    7    6 1    
    10    8    6 1    
    11   47    6 1    
    12   12    7 1    
    13    9    8 1    
    14   10    8 1    
    15   48    8 1    
    16   67    9 1    
    17   11   10 1    
    18   12   10 1    
    19   49   10 1    
    20   68   11 1    
    21   13   12 1    
    22   50   12 1    
    23   14   13 1    
    24   22   13 1    
    25   15   14 2    
    26   51   14 1    
    27   16   15 1    
    28   17   16 ar   
    29   22   16 ar   
    30   18   17 1    
    31   19   17 ar   
    32   52   18 1    
    33   53   18 1    
    34   20   19 ar   
    35   21   20 ar   
    36   54   20 1    
    37   22   21 ar   
    38   24   23 1    
    39   25   24 ar   
    40   26   24 ar   
    41   27   24 1    
    42   28   27 1    
    43   29   28 1    
    44   55   28 1    
    45   56   28 1    
    46   30   29 1    
    47   31   29 1    
    48   57   29 1    
    49   35   30 1    
    50   32   31 1    
    51   33   31 1    
    52   58   31 1    
    53   69   32 1    
    54   34   33 1    
    55   35   33 1    
    56   59   33 1    
    57   70   34 1    
    58   36   35 1    
    59   60   35 1    
    60   37   36 ar   
    61   44   36 ar   
    62   38   37 ar   
    63   61   37 1    
    64   39   38 1    
    65   42   38 ar   
    66   40   39 2    
    67   41   39 am   
    68   62   41 1    
    69   63   41 1    
    70   43   42 ar   
    71   64   42 1    
    72   44   43 ar   
    73   65   43 1    
    74   66   44 1    
@<TRIPOS>SUBSTRUCTURE
     1 NAD400      1 GROUP   
@<TRIPOS>SET

