#    Name: 4egp_FIV_2_INTS_M
#    Modification time : Mon Mar 24 17:48:02 2014

@<TRIPOS>MOLECULE
4egp_FIV_2_INTS_M
   24     0     9     0     0
SMALL
NO_CHARGES


@<TRIPOS>ATOM
      1 N         -53.2255    7.5900   -5.2835 N.am      1 SEC2        0.0000 
      2 N         -53.7670    8.3740   -3.8280 N.am      7 SEL2        0.0000 
      3 N         -52.6840    6.8060   -6.7390 N.am      4 SEP2        0.0000 
      4 NZ        -52.8955    6.0240   -5.0360 N.4       2 LYC4        0.0000 
      5 NZ        -52.7330    6.5280   -3.3080 N.4       8 LYL4        0.0000 
      6 NZ        -53.0580    5.5200   -6.7640 N.4       5 LYP4        0.0000 
      7 CA        -54.7670    6.6940   -3.6710 C.3       3 GLC5        0.0000 
      8 CA        -54.3180    7.3730   -1.7440 C.3       9 GLL5        0.0000 
      9 CA        -55.2160    6.0150   -5.5980 C.3       6 GLP5        0.0000 
     10 CA        -53.0418    7.6787    0.0235 C.3       3 GLC5        0.0000 
     11 CA        -54.2610    6.2200   -0.9620 C.3       9 GLL5        0.0000 
     12 CA        -51.7940    8.5610    1.4000 C.3       6 GLP5        0.0000 
     13 CA        -53.5610    7.6400    0.9340 C.3       3 GLC5        0.0000 
     14 CA        -54.9520    6.1680    0.2470 C.3       9 GLL5        0.0000 
     15 CA        -53.6045    8.5080    0.3432 C.3       3 GLC5        0.0000 
     16 CA        -55.7620    8.4340   -0.1060 C.3       9 GLL5        0.0000 
     17 CA        -55.0757   10.4573   -0.7739 C.3       3 GLC5        0.0000 
     18 CA        -54.1880   11.9190   -1.3590 C.3       6 GLP5        0.0000 
     19 CA        -56.1465   11.5108    1.4202 C.3       3 GLC5        0.0000 
     20 CA        -56.5120    9.5360    0.3360 C.3       9 GLL5        0.0000 
     21 CA        -55.4380   13.5150    1.8940 C.3       6 GLP5        0.0000 
     22 CA        -58.1800   10.4335    2.6553 C.3       3 GLC5        0.0000 
     23 CA        -57.1980    9.4770    1.5570 C.3       9 GLL5        0.0000 
     24 CA        -59.1870   11.9690    3.3590 C.3       6 GLP5        0.0000 
@<TRIPOS>BOND
@<TRIPOS>SUBSTRUCTURE
     1 SEC2        1 GROUP        1 X    SEC  0     ROOT SEC X 2
     2 LYC4        4 GROUP        1 X    LYC  0     **** LYC X 4
     3 GLC5        7 GROUP        1 X    GLC  0     **** GLC X 6
     4 SEP2        3 GROUP        1 Y    SEP  0     ROOT SEP Y 9
     5 LYP4        6 GROUP        1 Y    LYP  0     **** LYP Y 11
     6 GLP5        9 GROUP        1 Y    GLP  0     **** GLP Y 13
     7 SEL2        2 GROUP        1 Z    SEL  0     ROOT SEL Z 16
     8 LYL4        5 GROUP        1 Z    LYL  0     **** LYL Z 18
     9 GLL5        8 GROUP        1 Z    GLL  0     **** GLL Z 20
@<TRIPOS>SET

