#    Name: 4egp_FIV_2_ligand
#    Modification time : Mon Mar 24 17:48:02 2014

@<TRIPOS>MOLECULE
4egp_FIV_2_ligand
   20    21     1     0     0
SMALL
NO_CHARGES


@<TRIPOS>ATOM
      1 O2        -53.7670    8.3740   -3.8280 O.co2     1 FIV503      0.0000 
      2 C11       -53.5640    7.4240   -3.0420 C.2       1 FIV503      0.0000 
      3 O1        -52.7330    6.5280   -3.3080 O.co2     1 FIV503      0.0000 
      4 C7        -54.3180    7.3730   -1.7440 C.ar      1 FIV503      0.0000 
      5 C8        -54.2610    6.2200   -0.9620 C.ar      1 FIV503      0.0000 
      6 C3        -54.9520    6.1680    0.2470 C.ar      1 FIV503      0.0000 
      7 C5        -55.0680    8.4760   -1.3210 C.ar      1 FIV503      0.0000 
      8 C2        -55.7620    8.4340   -0.1060 C.ar      1 FIV503      0.0000 
      9 C6        -56.5120    9.5360    0.3360 C.ar      1 FIV503      0.0000 
     10 C10       -57.1980    9.4770    1.5570 C.ar      1 FIV503      0.0000 
     11 C9        -57.1480    8.3190    2.3460 C.ar      1 FIV503      0.0000 
     12 C4        -56.4000    7.2170    1.9170 C.ar      1 FIV503      0.0000 
     13 C1        -55.7040    7.2700    0.6890 C.ar      1 FIV503      0.0000 
     14 H         -53.7118    5.4125   -1.2761 H         1 FIV503      0.0000 
     15 H         -54.9146    5.3172    0.8254 H         1 FIV503      0.0000 
     16 H         -55.1097    9.3205   -1.9045 H         1 FIV503      0.0000 
     17 H         -56.5572   10.3853   -0.2366 H         1 FIV503      0.0000 
     18 H         -57.7419   10.2887    1.8765 H         1 FIV503      0.0000 
     19 H         -57.6575    8.2811    3.2328 H         1 FIV503      0.0000 
     20 H         -56.3535    6.3696    2.4889 H         1 FIV503      0.0000 
@<TRIPOS>BOND
     1    2    1 ar   
     2    3    2 ar   
     3    4    2 1    
     4    5    4 ar   
     5    7    4 ar   
     6    6    5 ar   
     7   14    5 1    
     8   13    6 ar   
     9   15    6 1    
    10    8    7 ar   
    11   16    7 1    
    12    9    8 ar   
    13   13    8 ar   
    14   10    9 ar   
    15   17    9 1    
    16   11   10 ar   
    17   18   10 1    
    18   12   11 ar   
    19   19   11 1    
    20   13   12 ar   
    21   20   12 1    
@<TRIPOS>SUBSTRUCTURE
     1 FIV503      1 GROUP   
@<TRIPOS>SET

