#    Name: 3pej_BC2_1_INTS_M
#    Modification time : Tue Mar 25 06:28:12 2014

@<TRIPOS>MOLECULE
3pej_BC2_1_INTS_M
   51     0     9     0     0
SMALL
NO_CHARGES


@<TRIPOS>ATOM
      1 CA          3.3880  -29.9430  -63.7920 C.3       3 GLC5        0.0000 
      2 CA          2.3520  -29.2010  -62.3690 C.3       9 GLL5        0.0000 
      3 CA          4.4240  -30.6850  -65.2150 C.3       6 GLP5        0.0000 
      4 N           6.5310  -29.5810  -60.4305 N.am      2 SEC2        0.0000 
      5 N           5.4260  -30.1210  -61.0330 N.am      8 SEL2        0.0000 
      6 N           7.6360  -29.0410  -59.8280 N.am      5 SEP2        0.0000 
      7 CA          3.7505  -33.9625  -60.4785 C.3       3 GLC5        0.0000 
      8 CA          3.7980  -32.2490  -59.8420 C.3       9 GLL5        0.0000 
      9 CA          3.7030  -35.6760  -61.1150 C.3       6 GLP5        0.0000 
     10 CA          5.5635  -33.3835  -59.7800 C.3       3 GLC5        0.0000 
     11 CA          7.3290  -34.5180  -59.7180 C.3       6 GLP5        0.0000 
     12 CA         -0.7930  -30.9275  -56.6210 C.3       3 GLC5        0.0000 
     13 CA          0.9090  -30.4760  -57.5250 C.3       9 GLL5        0.0000 
     14 CA         -2.4950  -31.3790  -55.7170 C.3       6 GLP5        0.0000 
     15 CA          3.8595  -29.3685  -55.7160 C.3       3 GLC5        0.0000 
     16 CA          1.9710  -29.0310  -55.8470 C.3       9 GLL5        0.0000 
     17 CA          5.7480  -29.7060  -55.5850 C.3       6 GLP5        0.0000 
     18 CA          2.6365  -27.7510  -54.5825 C.3       3 GLC5        0.0000 
     19 CA          3.3020  -26.4710  -53.3180 C.3       6 GLP5        0.0000 
     20 CA         -3.1250  -32.0360  -57.3465 C.3       3 GLC5        0.0000 
     21 CA         -3.7550  -32.6930  -58.9760 C.3       9 GLL5        0.0000 
     22 CA         -5.3280  -33.4695  -58.3425 C.3       3 GLC5        0.0000 
     23 CA         -6.9010  -34.2460  -57.7090 C.3       6 GLP5        0.0000 
     24 CA         -2.8030  -34.1410  -59.6970 C.3       3 GLC5        0.0000 
     25 CA         -1.8510  -35.5890  -60.4180 C.3       6 GLP5        0.0000 
     26 CA         -4.0940  -30.2550  -57.6585 C.3       3 GLC5        0.0000 
     27 CA         -3.9750  -29.6610  -59.7390 C.3       9 GLL5        0.0000 
     28 CA         -4.2130  -30.8490  -55.5780 C.3       6 GLP5        0.0000 
     29 CA         -4.0770  -25.2720  -58.9200 C.3       3 GLC5        0.0000 
     30 CA         -4.0160  -27.2080  -59.2070 C.3       9 GLL5        0.0000 
     31 CA         -4.1380  -23.3360  -58.6330 C.3       6 GLP5        0.0000 
     32 CA         -5.1010  -26.4115  -60.6305 C.3       3 GLC5        0.0000 
     33 CA         -6.1860  -25.6150  -62.0540 C.3       6 GLP5        0.0000 
     34 CA         -5.6140  -26.5310  -58.4990 C.3       3 GLC5        0.0000 
     35 CA         -7.2120  -25.8540  -57.7910 C.3       6 GLP5        0.0000 
     36 CA          1.2340  -26.2155  -59.1255 C.3       3 GLC5        0.0000 
     37 CA         -0.3670  -27.5970  -59.4310 C.3       9 GLL5        0.0000 
     38 CA          2.8350  -24.8340  -58.8200 C.3       6 GLP5        0.0000 
     39 O          -0.3490  -23.9175  -54.3545 O.2       1 ALC1        0.0000 
     40 O          -0.0650  -24.9980  -55.2670 O.2       7 ALL1        0.0000 
     41 O          -0.6330  -22.8370  -53.4420 O.2       4 ALP1        0.0000 
     42 CA          4.6385  -30.4974  -58.8910 C.3       3 GLC5        0.0000 
     43 CA          3.4000  -30.8340  -60.1500 C.3       9 GLL5        0.0000 
     44 CA          6.3110  -30.0840  -58.0160 C.3       6 GLP5        0.0000 
     45 CA         -1.5310  -33.7792  -61.0420 C.3       3 GLC5        0.0000 
     46 CA         -0.7480  -32.2550  -61.1290 C.3       9 GLL5        0.0000 
     47 CA         -2.0575  -29.8747  -56.9532 C.3       3 GLC5        0.0000 
     48 CA         -2.2650  -28.5670  -58.1890 C.3       9 GLL5        0.0000 
     49 CA         -0.5297  -29.5922  -55.5033 C.3       3 GLC5        0.0000 
     50 CA         -0.1390  -28.2420  -56.9410 C.3       9 GLL5        0.0000 
     51 CA         -1.7700  -30.5460  -54.2910 C.3       6 GLP5        0.0000 
@<TRIPOS>BOND
@<TRIPOS>SUBSTRUCTURE
     1 ALC1       39 GROUP        1 X    ALC  0     ROOT ALC X 1
     2 SEC2        4 GROUP        1 X    SEC  0     **** SEC X 2
     3 GLC5        1 GROUP        1 X    GLC  0     **** GLC X 6
     4 ALP1       41 GROUP        1 Y    ALP  0     ROOT ALP Y 8
     5 SEP2        6 GROUP        1 Y    SEP  0     **** SEP Y 9
     6 GLP5        3 GROUP        1 Y    GLP  0     **** GLP Y 13
     7 ALL1       40 GROUP        1 Z    ALL  0     ROOT ALL Z 15
     8 SEL2        5 GROUP        1 Z    SEL  0     **** SEL Z 16
     9 GLL5        2 GROUP        1 Z    GLL  0     **** GLL Z 20
@<TRIPOS>SET

