#    Name: 3pej_BC2_1_ligand
#    Modification time : Tue Mar 25 06:28:12 2014

@<TRIPOS>MOLECULE
3pej_BC2_1_ligand
   82    83     1     0     0
SMALL
NO_CHARGES


@<TRIPOS>ATOM
      1 O23         1.9500  -31.5040  -62.8350 O.2       1 BC21001     0.0000 
      2 C2          1.4890  -30.3450  -62.7670 C.2       1 BC21001     0.0000 
      3 C3          2.3520  -29.2010  -62.3690 C.2       1 BC21001     0.0000 
      4 C4          1.7920  -27.9250  -62.3100 C.2       1 BC21001     0.0000 
      5 C5          0.4440  -27.7050  -62.5990 C.2       1 BC21001     0.0000 
      6 O24        -0.0090  -26.5410  -62.5170 O.2       1 BC21001     0.0000 
      7 C6         -0.4060  -28.7550  -62.9560 C.2       1 BC21001     0.0000 
      8 N22         3.6730  -29.3610  -62.1150 N.am      1 BC21001     0.0000 
      9 C21         4.2090  -30.0740  -61.1180 C.2       1 BC21001     0.0000 
     10 O37         5.4260  -30.1210  -61.0330 O.2       1 BC21001     0.0000 
     11 C20         3.4000  -30.8340  -60.1500 C.2       1 BC21001     0.0000 
     12 C36         3.7980  -32.2490  -59.8420 C.3       1 BC21001     0.0000 
     13 C19         2.3330  -30.2800  -59.5360 C.2       1 BC21001     0.0000 
     14 C18         1.4810  -31.0220  -58.6010 C.2       1 BC21001     0.0000 
     15 C17         0.9090  -30.4760  -57.5250 C.2       1 BC21001     0.0000 
     16 C16         1.1490  -29.0390  -57.1330 C.3       1 BC21001     0.0000 
     17 C35         1.9710  -29.0310  -55.8470 C.3       1 BC21001     0.0000 
     18 C1          0.0520  -30.0730  -63.0430 C.2       1 BC21001     0.0000 
     19 C7         -0.8600  -31.1900  -63.4080 C.3       1 BC21001     0.0000 
     20 O38        -1.7270  -30.8040  -64.4790 O.3       1 BC21001     0.0000 
     21 C39        -2.2220  -31.9380  -65.1920 C.3       1 BC21001     0.0000 
     22 C8         -1.6740  -31.6840  -62.2030 C.3       1 BC21001     0.0000 
     23 C25        -0.7480  -32.2550  -61.1290 C.3       1 BC21001     0.0000 
     24 C9         -2.6070  -30.5910  -61.6680 C.3       1 BC21001     0.0000 
     25 C10        -3.1220  -30.8220  -60.2450 C.3       1 BC21001     0.0000 
     26 O26        -3.9190  -31.9990  -60.2090 O.3       1 BC21001     0.0000 
     27 C27        -3.7550  -32.6930  -58.9760 C.3       1 BC21001     0.0000 
     28 C11        -3.9750  -29.6610  -59.7390 C.3       1 BC21001     0.0000 
     29 O28        -4.9620  -29.3330  -60.7240 O.3       1 BC21001     0.0000 
     30 C40        -6.2330  -29.9190  -60.4550 C.3       1 BC21001     0.0000 
     31 C12        -3.1300  -28.4260  -59.4260 C.3       1 BC21001     0.0000 
     32 C29        -4.0160  -27.2080  -59.2070 C.3       1 BC21001     0.0000 
     33 C13        -2.2650  -28.5670  -58.1890 C.2       1 BC21001     0.0000 
     34 C14        -0.9750  -28.1740  -58.1900 C.2       1 BC21001     0.0000 
     35 C30        -0.3670  -27.5970  -59.4310 C.3       1 BC21001     0.0000 
     36 C15        -0.1390  -28.2420  -56.9410 C.3       1 BC21001     0.0000 
     37 O31         0.2830  -26.9010  -56.6600 O.3       1 BC21001     0.0000 
     38 C32        -0.5930  -26.0890  -55.8220 C.2       1 BC21001     0.0000 
     39 O33        -1.7670  -26.4060  -55.6420 O.2       1 BC21001     0.0000 
     40 N34        -0.0650  -24.9980  -55.2670 N.am      1 BC21001     0.0000 
     41 H           2.3907  -27.1201  -62.0452 H         1 BC21001     0.0000 
     42 H          -1.4026  -28.5516  -63.1618 H         1 BC21001     0.0000 
     43 H           4.3596  -28.8581  -62.7914 H         1 BC21001     0.0000 
     44 H           2.0630  -29.2856  -59.7014 H         1 BC21001     0.0000 
     45 H           1.3452  -32.0392  -58.8379 H         1 BC21001     0.0000 
     46 H           0.2707  -30.9927  -56.8944 H         1 BC21001     0.0000 
     47 H           1.7466  -28.5605  -57.9044 H         1 BC21001     0.0000 
     48 H          -0.2363  -32.0435  -63.7345 H         1 BC21001     0.0000 
     49 H          -2.3092  -32.5145  -62.5661 H         1 BC21001     0.0000 
     50 H          -3.4725  -30.4981  -62.3499 H         1 BC21001     0.0000 
     51 H          -2.0749  -29.6223  -61.7019 H         1 BC21001     0.0000 
     52 H          -2.2677  -30.9212  -59.5858 H         1 BC21001     0.0000 
     53 H          -4.4568  -29.9787  -58.8160 H         1 BC21001     0.0000 
     54 H          -2.4853  -28.2105  -60.2740 H         1 BC21001     0.0000 
     55 H          -2.7353  -28.9764  -57.3745 H         1 BC21001     0.0000 
     56 H          -0.6915  -28.6429  -56.1397 H         1 BC21001     0.0000 
     57 H          -0.6814  -24.4494  -54.7021 H         1 BC21001     0.0000 
     58 H           0.9000  -24.8264  -55.4655 H         1 BC21001     0.0000 
     59 H           4.7213  -32.3006  -59.4614 H         1 BC21001     0.0000 
     60 H           3.1826  -32.6714  -59.1765 H         1 BC21001     0.0000 
     61 H           3.7853  -32.8247  -60.6596 H         1 BC21001     0.0000 
     62 H           2.8535  -29.4857  -55.9675 H         1 BC21001     0.0000 
     63 H           2.1610  -28.1006  -55.5335 H         1 BC21001     0.0000 
     64 H           1.4986  -29.5009  -55.1013 H         1 BC21001     0.0000 
     65 H          -1.4814  -32.4748  -65.5962 H         1 BC21001     0.0000 
     66 H          -2.7396  -32.5535  -64.5976 H         1 BC21001     0.0000 
     67 H          -2.8312  -31.6704  -65.9385 H         1 BC21001     0.0000 
     68 H          -0.2151  -33.0288  -61.4713 H         1 BC21001     0.0000 
     69 H          -0.0955  -31.5724  -60.8000 H         1 BC21001     0.0000 
     70 H          -1.2586  -32.5800  -60.3329 H         1 BC21001     0.0000 
     71 H          -2.8050  -32.9679  -58.8280 H         1 BC21001     0.0000 
     72 H          -4.0222  -32.1295  -58.1943 H         1 BC21001     0.0000 
     73 H          -4.3095  -33.5245  -58.9412 H         1 BC21001     0.0000 
     74 H          -6.1825  -30.9172  -60.4234 H         1 BC21001     0.0000 
     75 H          -6.6031  -29.6163  -59.5767 H         1 BC21001     0.0000 
     76 H          -6.9070  -29.6816  -61.1546 H         1 BC21001     0.0000 
     77 H          -3.4787  -26.3898  -59.0026 H         1 BC21001     0.0000 
     78 H          -4.5692  -27.0013  -60.0140 H         1 BC21001     0.0000 
     79 H          -4.6487  -27.3413  -58.4442 H         1 BC21001     0.0000 
     80 H           0.5916  -27.3477  -59.2936 H         1 BC21001     0.0000 
     81 H          -0.3954  -28.2433  -60.1936 H         1 BC21001     0.0000 
     82 H          -0.8449  -26.7707  -59.7291 H         1 BC21001     0.0000 
@<TRIPOS>BOND
     1    2    1 2    
     2    3    2 1    
     3   18    2 1    
     4    4    3 2    
     5    8    3 1    
     6    5    4 1    
     7   41    4 1    
     8    6    5 2    
     9    7    5 1    
    10   18    7 2    
    11   42    7 1    
    12    9    8 am   
    13   43    8 1    
    14   10    9 2    
    15   11    9 1    
    16   12   11 1    
    17   13   11 2    
    18   59   12 1    
    19   60   12 1    
    20   61   12 1    
    21   14   13 1    
    22   44   13 1    
    23   15   14 2    
    24   45   14 1    
    25   16   15 1    
    26   46   15 1    
    27   17   16 1    
    28   36   16 1    
    29   47   16 1    
    30   62   17 1    
    31   63   17 1    
    32   64   17 1    
    33   19   18 1    
    34   20   19 1    
    35   22   19 1    
    36   48   19 1    
    37   21   20 1    
    38   65   21 1    
    39   66   21 1    
    40   67   21 1    
    41   23   22 1    
    42   24   22 1    
    43   49   22 1    
    44   68   23 1    
    45   69   23 1    
    46   70   23 1    
    47   25   24 1    
    48   50   24 1    
    49   51   24 1    
    50   26   25 1    
    51   28   25 1    
    52   52   25 1    
    53   27   26 1    
    54   71   27 1    
    55   72   27 1    
    56   73   27 1    
    57   29   28 1    
    58   31   28 1    
    59   53   28 1    
    60   30   29 1    
    61   74   30 1    
    62   75   30 1    
    63   76   30 1    
    64   32   31 1    
    65   33   31 1    
    66   54   31 1    
    67   77   32 1    
    68   78   32 1    
    69   79   32 1    
    70   34   33 2    
    71   55   33 1    
    72   35   34 1    
    73   36   34 1    
    74   80   35 1    
    75   81   35 1    
    76   82   35 1    
    77   37   36 1    
    78   56   36 1    
    79   38   37 1    
    80   39   38 2    
    81   40   38 am   
    82   57   40 1    
    83   58   40 1    
@<TRIPOS>SUBSTRUCTURE
     1 BC21001     1 GROUP   
@<TRIPOS>SET

