#    Name: 2z7l_S91_1_INTS_M
#    Modification time : Tue Mar 25 10:23:02 2014

@<TRIPOS>MOLECULE
2z7l_S91_1_INTS_M
   55     0     9     0     0
SMALL
NO_CHARGES


@<TRIPOS>ATOM
      1 CA         20.8595    5.4645   11.5800 C.3       3 GLC5        0.0000 
      2 CA         22.0460    7.1890   11.2970 C.3       9 GLL5        0.0000 
      3 CA         19.6730    3.7400   11.8630 C.3       6 GLP5        0.0000 
      4 CA         20.5245    7.1045    9.2095 C.3       3 GLC5        0.0000 
      5 CA         21.8000    8.3450   10.4730 C.3       9 GLL5        0.0000 
      6 CA         19.2490    5.8640    7.9460 C.3       6 GLP5        0.0000 
      7 CA         20.7455    9.4215    8.8520 C.3       3 GLC5        0.0000 
      8 CA         19.6910   10.4980    7.2310 C.3       6 GLP5        0.0000 
      9 CA         21.6615   10.8845    8.2520 C.3       3 GLC5        0.0000 
     10 CA         22.3270   10.7250    9.8270 C.3       9 GLL5        0.0000 
     11 CA         20.9960   11.0440    6.6770 C.3       6 GLP5        0.0000 
     12 CA         23.5920    2.9905   15.6475 C.3       3 GLC5        0.0000 
     13 CA         21.6420    3.6520   14.9900 C.3       9 GLL5        0.0000 
     14 CA         25.5420    2.3290   16.3050 C.3       6 GLP5        0.0000 
     15 CA         22.2605    2.3685   13.8355 C.3       3 GLC5        0.0000 
     16 CA         22.8790    1.0850   12.6810 C.3       6 GLP5        0.0000 
     17 CA         20.5225    2.6295   14.0710 C.3       3 GLC5        0.0000 
     18 CA         19.4030    1.6070   13.1520 C.3       6 GLP5        0.0000 
     19 N          23.7270    3.4030   14.0975 N.am      2 SEC2        0.0000 
     20 N          22.5210    4.2880   14.2170 N.am      8 SEL2        0.0000 
     21 N          24.9330    2.5180   13.9780 N.am      5 SEP2        0.0000 
     22 CA         24.2545    5.5270   15.1080 C.3       3 GLC5        0.0000 
     23 CA         22.4150    5.6130   13.9670 C.3       9 GLL5        0.0000 
     24 CA         26.0940    5.4410   16.2490 C.3       6 GLP5        0.0000 
     25 CA         23.0745    3.8510   12.9405 C.3       3 GLC5        0.0000 
     26 CA         23.7340    2.0890   11.9140 C.3       6 GLP5        0.0000 
     27 CA         21.0440    4.6765   12.9150 C.3       3 GLC5        0.0000 
     28 O          24.5940    5.4015   12.8315 O.2       1 ALC1        0.0000 
     29 O          23.3530    6.2020   13.1640 O.2       7 ALL1        0.0000 
     30 O          25.8350    4.6010   12.4990 O.2       4 ALP1        0.0000 
     31 O          18.9085    2.1745   17.5755 O.2       1 ALC1        0.0000 
     32 O          19.8400    2.5770   16.7750 O.2       7 ALL1        0.0000 
     33 O          17.9770    1.7720   18.3760 O.2       4 ALP1        0.0000 
     34 CA         23.0249    6.8428    9.7571 C.3       3 GLC5        0.0000 
     35 CA         23.8680    5.8950    8.3670 C.3       6 GLP5        0.0000 
     36 CA         20.1235    4.4173   13.6285 C.3       3 GLC5        0.0000 
     37 CA         20.6040    4.4150   15.5390 C.3       9 GLL5        0.0000 
     38 CA         22.1045    4.6211   16.9775 C.3       3 GLC5        0.0000 
     39 CA         20.5440    5.7740   15.2490 C.3       9 GLL5        0.0000 
     40 CA         23.1010    4.8690   18.7630 C.3       6 GLP5        0.0000 
     41 CA         17.3987    8.7485   17.2612 C.3       3 GLC5        0.0000 
     42 CA         17.4640    7.5670   15.5740 C.3       9 GLL5        0.0000 
     43 CA         17.7690    9.3950   19.1560 C.3       6 GLP5        0.0000 
     44 CA         20.6410    9.2750   15.7977 C.3       3 GLC5        0.0000 
     45 CA         18.8840    7.6030   15.3300 C.3       9 GLL5        0.0000 
     46 CA         22.0830   10.3840   16.5980 C.3       6 GLP5        0.0000 
     47 CA         19.6485    8.3465   16.9492 C.3       3 GLC5        0.0000 
     48 CA         19.5140    8.7290   14.6650 C.3       9 GLL5        0.0000 
     49 CA         20.0980    8.5270   18.9010 C.3       6 GLP5        0.0000 
     50 CA         16.9636    6.7278   14.1226 C.3       3 GLC5        0.0000 
     51 CA         15.9710    5.6030   12.8970 C.3       6 GLP5        0.0000 
     52 CA         20.4885   10.3905   15.2523 C.3       3 GLC5        0.0000 
     53 CA         18.6250    9.8110   14.2470 C.3       9 GLL5        0.0000 
     54 CA         19.3010   11.8940   15.0087 C.3       3 GLC5        0.0000 
     55 CA         19.7080   13.3910   16.1110 C.3       6 GLP5        0.0000 
@<TRIPOS>BOND
@<TRIPOS>SUBSTRUCTURE
     1 ALC1       28 GROUP        1 X    ALC  0     ROOT ALC X 1
     2 SEC2       19 GROUP        1 X    SEC  0     **** SEC X 2
     3 GLC5        1 GROUP        1 X    GLC  0     **** GLC X 6
     4 ALP1       30 GROUP        1 Y    ALP  0     ROOT ALP Y 8
     5 SEP2       21 GROUP        1 Y    SEP  0     **** SEP Y 9
     6 GLP5        3 GROUP        1 Y    GLP  0     **** GLP Y 13
     7 ALL1       29 GROUP        1 Z    ALL  0     ROOT ALL Z 15
     8 SEL2       20 GROUP        1 Z    SEL  0     **** SEL Z 16
     9 GLL5        2 GROUP        1 Z    GLL  0     **** GLL Z 20
@<TRIPOS>SET

