#    Name: 2z7l_S91_1_ligand
#    Modification time : Tue Mar 25 10:23:02 2014

@<TRIPOS>MOLECULE
2z7l_S91_1_ligand
   46    48     1     0     0
SMALL
NO_CHARGES


@<TRIPOS>ATOM
      1 C1         22.5970    9.5290   10.7330 C.ar      1 S911001     0.0000 
      2 C2         23.6230    9.6290   11.7690 C.ar      1 S911001     0.0000 
      3 C3         23.8730    8.4710   12.6010 C.ar      1 S911001     0.0000 
      4 C4         23.0810    7.2830   12.3460 C.ar      1 S911001     0.0000 
      5 C5         22.0460    7.1890   11.2970 C.ar      1 S911001     0.0000 
      6 C6         21.8000    8.3450   10.4730 C.ar      1 S911001     0.0000 
      7 C7         22.3270   10.7250    9.8270 C.3       1 S911001     0.0000 
      8 C8         23.6470   11.3290    9.3900 C.2       1 S911001     0.0000 
      9 O1         24.1100   12.2600   10.0560 O.co2     1 S911001     0.0000 
     10 O2         24.2120   10.8550    8.3970 O.co2     1 S911001     0.0000 
     11 N1         21.4460    6.3890   14.4650 N.ar      1 S911001     0.0000 
     12 C9         20.5440    5.7740   15.2490 C.ar      1 S911001     0.0000 
     13 C10        20.6040    4.4150   15.5390 C.ar      1 S911001     0.0000 
     14 C11        21.6420    3.6520   14.9900 C.ar      1 S911001     0.0000 
     15 N2         22.5210    4.2880   14.2170 N.ar      1 S911001     0.0000 
     16 C12        22.4150    5.6130   13.9670 C.ar      1 S911001     0.0000 
     17 C13        19.6070    3.8360   16.3900 C.2       1 S911001     0.0000 
     18 O3         18.6520    4.4790   16.8020 O.2       1 S911001     0.0000 
     19 N3         19.5200    6.4940   15.8020 N.pl3     1 S911001     0.0000 
     20 N4         23.3530    6.2020   13.1640 N.pl3     1 S911001     0.0000 
     21 N5         19.8400    2.5770   16.7750 N.am      1 S911001     0.0000 
     22 C14        17.2080    9.7600   14.4990 C.ar      1 S911001     0.0000 
     23 C15        16.5930    8.6370   15.1590 C.ar      1 S911001     0.0000 
     24 C16        17.4640    7.5670   15.5740 C.ar      1 S911001     0.0000 
     25 C17        18.8840    7.6030   15.3300 C.ar      1 S911001     0.0000 
     26 C18        19.5140    8.7290   14.6650 C.ar      1 S911001     0.0000 
     27 C19        18.6250    9.8110   14.2470 C.ar      1 S911001     0.0000 
     28 C20        19.1630   10.9830   13.5660 C.3       1 S911001     0.0000 
     29 H          24.1328   10.4736   11.8942 H         1 S911001     0.0000 
     30 H          24.5572    8.4880   13.3160 H         1 S911001     0.0000 
     31 H          21.5406    6.3422   11.1754 H         1 S911001     0.0000 
     32 H          21.1158    8.3364    9.7571 H         1 S911001     0.0000 
     33 H          21.7506   11.4639   10.3713 H         1 S911001     0.0000 
     34 H          21.7705   10.3969    8.9568 H         1 S911001     0.0000 
     35 H          21.6940    2.6563   15.1925 H         1 S911001     0.0000 
     36 H          19.1566    6.1192   16.7749 H         1 S911001     0.0000 
     37 H          24.3363    5.8159   13.1647 H         1 S911001     0.0000 
     38 H          20.6608    2.1467   16.3992 H         1 S911001     0.0000 
     39 H          19.1726    2.1786   17.4042 H         1 S911001     0.0000 
     40 H          16.6202   10.5451   14.2002 H         1 S911001     0.0000 
     41 H          15.6173    8.6019   15.3200 H         1 S911001     0.0000 
     42 H          17.0624    6.7566   16.0568 H         1 S911001     0.0000 
     43 H          20.4785    8.7660   14.5036 H         1 S911001     0.0000 
     44 H          20.1534   10.9193   13.4434 H         1 S911001     0.0000 
     45 H          18.7622   11.1012   12.6575 H         1 S911001     0.0000 
     46 H          18.9844   11.8239   14.0768 H         1 S911001     0.0000 
@<TRIPOS>BOND
     1    2    1 ar   
     2    6    1 ar   
     3    7    1 1    
     4    3    2 ar   
     5   29    2 1    
     6    4    3 ar   
     7   30    3 1    
     8    5    4 ar   
     9   20    4 1    
    10    6    5 ar   
    11   31    5 1    
    12   32    6 1    
    13    8    7 1    
    14   33    7 1    
    15   34    7 1    
    16    9    8 ar   
    17   10    8 ar   
    18   12   11 ar   
    19   16   11 ar   
    20   13   12 ar   
    21   19   12 1    
    22   14   13 ar   
    23   17   13 1    
    24   15   14 ar   
    25   35   14 1    
    26   16   15 ar   
    27   20   16 1    
    28   18   17 2    
    29   21   17 am   
    30   25   19 1    
    31   36   19 1    
    32   37   20 1    
    33   38   21 1    
    34   39   21 1    
    35   23   22 ar   
    36   27   22 ar   
    37   40   22 1    
    38   24   23 ar   
    39   41   23 1    
    40   25   24 ar   
    41   42   24 1    
    42   26   25 ar   
    43   27   26 ar   
    44   43   26 1    
    45   28   27 1    
    46   44   28 1    
    47   45   28 1    
    48   46   28 1    
@<TRIPOS>SUBSTRUCTURE
     1 S911001     1 GROUP   
@<TRIPOS>SET

