#    Name: 4afe_GGY_1_INTS_M
#    Modification time : Tue Mar 25 05:32:21 2014

@<TRIPOS>MOLECULE
4afe_GGY_1_INTS_M
   86     0     9     0     0
SMALL
NO_CHARGES


@<TRIPOS>ATOM
      1 CA         -0.5640  -11.4495   16.9685 C.3       3 GLC5        0.0000 
      2 CA          0.7340  -10.6350   16.2100 C.3       9 GLL5        0.0000 
      3 CA         -1.8620  -12.2640   17.7270 C.3       6 GLP5        0.0000 
      4 CA         -0.8240   -9.7085   15.4985 C.3       3 GLC5        0.0000 
      5 CA         -2.3820   -8.7820   14.7870 C.3       6 GLP5        0.0000 
      6 CA          0.3020   -9.1250   14.5660 C.3       3 GLC5        0.0000 
      7 CA          1.6380  -10.3860   15.0640 C.3       9 GLL5        0.0000 
      8 CA         -1.0340   -7.8640   14.0680 C.3       6 GLP5        0.0000 
      9 CA         -2.1410  -12.7505   12.8895 C.3       3 GLC5        0.0000 
     10 CA         -0.1130  -13.1120   12.3990 C.3       9 GLL5        0.0000 
     11 CA         -4.1690  -12.3890   13.3800 C.3       6 GLP5        0.0000 
     12 CA         -1.0450  -10.6100   11.0590 C.3       3 GLC5        0.0000 
     13 CA          0.4550  -10.9920   12.5220 C.3       9 GLL5        0.0000 
     14 CA         -2.5450  -10.2280    9.5960 C.3       6 GLP5        0.0000 
     15 CA         -0.2895   -9.4280   13.2950 C.3       3 GLC5        0.0000 
     16 CA         -2.3500  -12.1785   13.7980 C.3       3 GLC5        0.0000 
     17 CA         -0.5310  -11.9680   14.2160 C.3       9 GLL5        0.0000 
     18 CA         -1.1965  -12.1160   15.9715 C.3       3 GLC5        0.0000 
     19 CA         -1.4565  -10.3750   14.5015 C.3       3 GLC5        0.0000 
     20 CA          0.8710   -8.1845   13.6385 C.3       3 GLC5        0.0000 
     21 CA          2.7760   -8.5050   13.2090 C.3       9 GLL5        0.0000 
     22 CA          1.5585   -5.9265   11.6320 C.3       3 GLC5        0.0000 
     23 CA          2.8500   -7.5530   10.8590 C.3       9 GLL5        0.0000 
     24 CA          0.2670   -4.3000   12.4050 C.3       6 GLP5        0.0000 
     25 CA          3.4075   -7.3405    8.0105 C.3       3 GLC5        0.0000 
     26 CA          1.6030   -8.2640    8.8960 C.3       9 GLL5        0.0000 
     27 CA          5.2120   -6.4170    7.1250 C.3       6 GLP5        0.0000 
     28 CA         -1.2860   -7.3165    3.8020 C.3       3 GLC5        0.0000 
     29 CA         -1.6680   -9.3120    2.9340 C.3       9 GLL5        0.0000 
     30 CA         -0.9040   -5.3210    4.6700 C.3       6 GLP5        0.0000 
     31 CA         -4.9295   -8.4190    5.6655 C.3       3 GLC5        0.0000 
     32 CA         -2.9570   -9.0320    4.9470 C.3       9 GLL5        0.0000 
     33 CA         -6.9020   -7.8060    6.3840 C.3       6 GLP5        0.0000 
     34 CA         -1.9305   -7.1765    4.8085 C.3       3 GLC5        0.0000 
     35 CA         -0.9465  -10.5910    9.0775 C.3       3 GLC5        0.0000 
     36 CA          0.6520  -10.9540    8.5590 C.3       9 GLL5        0.0000 
     37 CA          2.0530  -11.1390    7.1685 C.3       3 GLC5        0.0000 
     38 CA          3.4540  -11.3240    5.7780 C.3       6 GLP5        0.0000 
     39 CA          0.8055   -5.3820    9.2265 C.3       3 GLC5        0.0000 
     40 CA          1.6800   -6.9660    8.4280 C.3       9 GLL5        0.0000 
     41 CA         -0.0690   -3.7980   10.0250 C.3       6 GLP5        0.0000 
     42 CA          2.0195   -4.8435    8.0285 C.3       3 GLC5        0.0000 
     43 CA          2.3590   -2.7210    7.6290 C.3       6 GLP5        0.0000 
     44 CA          3.0110   -6.2815    7.3045 C.3       3 GLC5        0.0000 
     45 CA          4.3420   -5.5970    6.1810 C.3       6 GLP5        0.0000 
     46 N           2.8970   -5.3745    8.0505 N.am      2 SEC2        0.0000 
     47 N           2.3110   -6.0040    9.1380 N.am      8 SEL2        0.0000 
     48 N           3.4830   -4.7450    6.9630 N.am      5 SEP2        0.0000 
     49 CA          1.4120   -5.0345   10.1805 C.3       3 GLC5        0.0000 
     50 CA          2.8930   -6.2710   10.3360 C.3       9 GLL5        0.0000 
     51 CA          2.6260   -4.4960    8.9825 C.3       3 GLC5        0.0000 
     52 CA          4.4910   -5.8270    9.3365 C.3       3 GLC5        0.0000 
     53 CA          6.0890   -5.3830    8.3370 C.3       6 GLP5        0.0000 
     54 O           3.6200   -4.0220   10.5420 O.2       1 ALC1        0.0000 
     55 O           3.5410   -5.2150   11.0330 O.2       7 ALL1        0.0000 
     56 O           3.6990   -2.8290   10.0510 O.2       4 ALP1        0.0000 
     57 CA          7.6065   -8.1645   14.1115 C.3       3 GLC5        0.0000 
     58 CA          5.4570   -7.8050   13.6910 C.3       9 GLL5        0.0000 
     59 CA          9.7560   -8.5240   14.5320 C.3       6 GLP5        0.0000 
     60 O           5.9445   -9.3575   18.0855 O.2       1 ALC1        0.0000 
     61 O           4.9180   -9.8690   16.8310 O.2       7 ALL1        0.0000 
     62 O           6.9710   -8.8460   19.3400 O.2       4 ALP1        0.0000 
     63 N           7.7980   -8.2875   16.6595 N.am      2 SEC2        0.0000 
     64 N           6.2880   -8.0650   16.4150 N.am      8 SEL2        0.0000 
     65 N           9.3080   -8.5100   16.9040 N.am      5 SEP2        0.0000 
     66 CA          3.3113  -12.6355   15.6037 C.3       3 GLC5        0.0000 
     67 CA          2.2870  -11.6990   14.6490 C.3       9 GLL5        0.0000 
     68 CA          4.6520  -13.1600   16.9990 C.3       6 GLP5        0.0000 
     69 CA          3.3890   -6.6160   14.1485 C.3       3 GLC5        0.0000 
     70 CA          3.3560   -8.7970   14.4370 C.3       9 GLL5        0.0000 
     71 CA          3.7120   -4.5810   14.4740 C.3       6 GLP5        0.0000 
     72 CA          3.9520   -6.1375   13.4095 C.3       3 GLC5        0.0000 
     73 CA          3.5100   -7.8720   12.2230 C.3       9 GLL5        0.0000 
     74 CA         -0.3837   -7.4360    9.0915 C.3       3 GLC5        0.0000 
     75 CA         -2.4090   -7.2570    9.5210 C.3       6 GLP5        0.0000 
     76 CA         -0.9692   -9.7372    8.5280 C.3       3 GLC5        0.0000 
     77 CA          0.9050   -9.3170    8.1060 C.3       9 GLL5        0.0000 
     78 CA          2.0303  -10.2852    6.6190 C.3       3 GLC5        0.0000 
     79 CA         -1.3985  -10.5915    8.1632 C.3       3 GLC5        0.0000 
     80 CA         -0.3080  -10.3960    6.2870 C.3       9 GLL5        0.0000 
     81 CA          1.6010  -11.1395    6.2542 C.3       3 GLC5        0.0000 
     82 CA         -0.1960  -11.5140    7.1740 C.3       9 GLL5        0.0000 
     83 CA          6.2177   -5.9032   12.9440 C.3       3 GLC5        0.0000 
     84 CA          4.8740   -7.5160   12.4670 C.3       9 GLL5        0.0000 
     85 CA          7.2700   -4.1460   12.8090 C.3       6 GLP5        0.0000 
     86 CA          4.4023   -6.3515   14.3315 C.3       3 GLC5        0.0000 
@<TRIPOS>BOND
@<TRIPOS>SUBSTRUCTURE
     1 ALC1       54 GROUP        1 X    ALC  0     ROOT ALC X 1
     2 SEC2       46 GROUP        1 X    SEC  0     **** SEC X 2
     3 GLC5        1 GROUP        1 X    GLC  0     **** GLC X 6
     4 ALP1       56 GROUP        1 Y    ALP  0     ROOT ALP Y 8
     5 SEP2       48 GROUP        1 Y    SEP  0     **** SEP Y 9
     6 GLP5        3 GROUP        1 Y    GLP  0     **** GLP Y 13
     7 ALL1       55 GROUP        1 Z    ALL  0     ROOT ALL Z 15
     8 SEL2       47 GROUP        1 Z    SEL  0     **** SEL Z 16
     9 GLL5        2 GROUP        1 Z    GLL  0     **** GLL Z 20
@<TRIPOS>SET

