#    Name: 4afe_GGY_1_ligand
#    Modification time : Tue Mar 25 05:32:21 2014

@<TRIPOS>MOLECULE
4afe_GGY_1_ligand
   60    62     1     0     0
SMALL
NO_CHARGES


@<TRIPOS>ATOM
      1 C01         0.7340  -10.6350   16.2100 C.3       1 GGY1280     0.0000 
      2 C02         1.6380  -10.3860   15.0640 C.3       1 GGY1280     0.0000 
      3 C03         2.2870  -11.6990   14.6490 C.2       1 GGY1280     0.0000 
      4 C04         1.6540  -12.5230   13.7680 C.2       1 GGY1280     0.0000 
      5 C05         0.3350  -12.1410   13.2160 C.3       1 GGY1280     0.0000 
      6 F06        -0.1130  -13.1120   12.3990 F         1 GGY1280     0.0000 
      7 F07         0.4550  -10.9920   12.5220 F         1 GGY1280     0.0000 
      8 F08        -0.5310  -11.9680   14.2160 F         1 GGY1280     0.0000 
      9 O09         2.5890   -9.4410   15.4250 O.3       1 GGY1280     0.0000 
     10 C10         3.3560   -8.7970   14.4370 C.ar      1 GGY1280     0.0000 
     11 C11         2.7760   -8.5050   13.2090 C.ar      1 GGY1280     0.0000 
     12 C12         3.5100   -7.8720   12.2230 C.ar      1 GGY1280     0.0000 
     13 C13         2.8500   -7.5530   10.8590 C.ar      1 GGY1280     0.0000 
     14 C14         2.2010   -8.5770   10.1440 C.ar      1 GGY1280     0.0000 
     15 C15         1.6030   -8.2640    8.8960 C.ar      1 GGY1280     0.0000 
     16 C16         0.9050   -9.3170    8.1060 C.2       1 GGY1280     0.0000 
     17 C17         0.3080   -9.1760    6.8140 C.2       1 GGY1280     0.0000 
     18 C18        -0.3080  -10.3960    6.2870 C.2       1 GGY1280     0.0000 
     19 C19        -1.0060  -10.4710    4.9190 C.3       1 GGY1280     0.0000 
     20 N20        -1.5860   -9.2340    4.3820 N.4       1 GGY1280     0.0000 
     21 C21        -1.6680   -9.3120    2.9340 C.3       1 GGY1280     0.0000 
     22 C22        -2.9570   -9.0320    4.9470 C.3       1 GGY1280     0.0000 
     23 C23        -0.1960  -11.5140    7.1740 C.2       1 GGY1280     0.0000 
     24 S24         0.6520  -10.9540    8.5590 S.3       1 GGY1280     0.0000 
     25 C25         1.6800   -6.9660    8.4280 C.ar      1 GGY1280     0.0000 
     26 N26         2.3110   -6.0040    9.1380 N.ar      1 GGY1280     0.0000 
     27 C27         2.8930   -6.2710   10.3360 C.ar      1 GGY1280     0.0000 
     28 N28         3.5410   -5.2150   11.0330 N.pl3     1 GGY1280     0.0000 
     29 C29         4.8740   -7.5160   12.4670 C.ar      1 GGY1280     0.0000 
     30 C30         5.4570   -7.8050   13.6910 C.ar      1 GGY1280     0.0000 
     31 C31         4.7280   -8.4390   14.6870 C.ar      1 GGY1280     0.0000 
     32 C32         5.3750   -8.7460   16.0080 C.2       1 GGY1280     0.0000 
     33 N33         4.9180   -9.8690   16.8310 N.am      1 GGY1280     0.0000 
     34 O34         6.2880   -8.0650   16.4150 O.2       1 GGY1280     0.0000 
     35 H           1.0315  -10.0456   14.2243 H         1 GGY1280     0.0000 
     36 H           3.1891  -11.8960   15.0668 H         1 GGY1280     0.0000 
     37 H           2.0443  -13.4115   13.4570 H         1 GGY1280     0.0000 
     38 H           1.7920   -8.7630   13.0346 H         1 GGY1280     0.0000 
     39 H           2.1589   -9.5199   10.5085 H         1 GGY1280     0.0000 
     40 H           0.3024   -8.3443    6.3118 H         1 GGY1280     0.0000 
     41 H          -1.7983  -11.2658    4.9922 H         1 GGY1280     0.0000 
     42 H          -0.2632  -10.8949    4.1886 H         1 GGY1280     0.0000 
     43 H          -0.9700   -8.3918    4.6708 H         1 GGY1280     0.0000 
     44 H          -0.4444  -12.3516    7.1661 H         1 GGY1280     0.0000 
     45 H           1.2395   -6.7378    7.5096 H         1 GGY1280     0.0000 
     46 H           3.5256   -5.2721   12.0312 H         1 GGY1280     0.0000 
     47 H           3.9575   -4.5041   10.4662 H         1 GGY1280     0.0000 
     48 H           5.4018   -7.0492   11.7263 H         1 GGY1280     0.0000 
     49 H           6.4424   -7.5465   13.8637 H         1 GGY1280     0.0000 
     50 H           4.1788  -10.4230   16.4480 H         1 GGY1280     0.0000 
     51 H           5.3827   -9.9894   17.7082 H         1 GGY1280     0.0000 
     52 H           1.2263  -11.0050   16.9979 H         1 GGY1280     0.0000 
     53 H           0.2810   -9.7971   16.5146 H         1 GGY1280     0.0000 
     54 H           0.0145  -11.2902   15.9799 H         1 GGY1280     0.0000 
     55 H          -0.7675   -9.4358    2.5171 H         1 GGY1280     0.0000 
     56 H          -2.2372  -10.0779    2.6350 H         1 GGY1280     0.0000 
     57 H          -2.0622   -8.4821    2.5391 H         1 GGY1280     0.0000 
     58 H          -2.9406   -8.9582    5.9441 H         1 GGY1280     0.0000 
     59 H          -3.3831   -8.1972    4.5983 H         1 GGY1280     0.0000 
     60 H          -3.5680   -9.7902    4.7192 H         1 GGY1280     0.0000 
@<TRIPOS>BOND
     1    2    1 1    
     2   52    1 1    
     3   53    1 1    
     4   54    1 1    
     5    3    2 1    
     6    9    2 1    
     7   35    2 1    
     8    4    3 2    
     9   36    3 1    
    10    5    4 1    
    11   37    4 1    
    12    6    5 1    
    13    7    5 1    
    14    8    5 1    
    15   10    9 1    
    16   11   10 ar   
    17   31   10 ar   
    18   12   11 ar   
    19   38   11 1    
    20   13   12 1    
    21   29   12 ar   
    22   14   13 ar   
    23   27   13 ar   
    24   15   14 ar   
    25   39   14 1    
    26   16   15 1    
    27   25   15 ar   
    28   17   16 2    
    29   24   16 1    
    30   18   17 1    
    31   40   17 1    
    32   19   18 1    
    33   23   18 2    
    34   20   19 1    
    35   41   19 1    
    36   42   19 1    
    37   21   20 1    
    38   22   20 1    
    39   43   20 1    
    40   55   21 1    
    41   56   21 1    
    42   57   21 1    
    43   58   22 1    
    44   59   22 1    
    45   60   22 1    
    46   24   23 1    
    47   44   23 1    
    48   26   25 ar   
    49   45   25 1    
    50   27   26 ar   
    51   28   27 1    
    52   46   28 1    
    53   47   28 1    
    54   30   29 ar   
    55   48   29 1    
    56   31   30 ar   
    57   49   30 1    
    58   32   31 1    
    59   33   32 am   
    60   34   32 2    
    61   50   33 1    
    62   51   33 1    
@<TRIPOS>SUBSTRUCTURE
     1 GGY1280     1 GROUP   
@<TRIPOS>SET

