#    Name: 4app_N53_1_INTS_M
#    Modification time : Tue Mar 25 06:00:39 2014

@<TRIPOS>MOLECULE
4app_N53_1_INTS_M
   82     0     9     0     0
SMALL
NO_CHARGES


@<TRIPOS>ATOM
      1 CA         50.2130   28.0435   12.4705 C.3       3 GLC5        0.0000 
      2 CA         49.5650   26.6190   13.7190 C.3       9 GLL5        0.0000 
      3 CA         50.8610   29.4680   11.2220 C.3       6 GLP5        0.0000 
      4 CA         50.9855   27.4655   15.1270 C.3       3 GLC5        0.0000 
      5 CA         50.1350   25.5210   14.4440 C.3       9 GLL5        0.0000 
      6 CA         51.8360   29.4100   15.8100 C.3       6 GLP5        0.0000 
      7 CA         46.8850   23.3080   13.1580 C.3       3 GLC5        0.0000 
      8 CA         45.1970   23.1900   14.4210 C.3       9 GLL5        0.0000 
      9 CA         48.5730   23.4260   11.8950 C.3       6 GLP5        0.0000 
     10 OD1        43.5945   25.0670   14.8785 O.co2     2 ASC3        0.0000 
     11 OD1        43.7370   23.2920   14.2110 O.co2     8 ASL3        0.0000 
     12 OD1        43.4520   26.8420   15.5460 O.co2     5 ASP3        0.0000 
     13 OD1        42.9315   24.4165   14.2885 O.co2     2 ASC3        0.0000 
     14 OD1        42.1260   25.5410   14.3660 O.co2     5 ASP3        0.0000 
     15 O          42.9315   24.4165   14.2885 O.2       1 ALC1        0.0000 
     16 O          43.7370   23.2920   14.2110 O.2       7 ALL1        0.0000 
     17 O          42.1260   25.5410   14.3660 O.2       4 ALP1        0.0000 
     18 CA         42.2635   22.8260   18.3755 C.3       3 GLC5        0.0000 
     19 CA         43.3730   23.2540   16.6460 C.3       9 GLL5        0.0000 
     20 CA         41.1540   22.3980   20.1050 C.3       6 GLP5        0.0000 
     21 CA         42.2085   20.0545   22.7605 C.3       3 GLC5        0.0000 
     22 CA         44.0800   20.0820   21.5780 C.3       9 GLL5        0.0000 
     23 CA         40.3370   20.0270   23.9430 C.3       6 GLP5        0.0000 
     24 CA         42.6170   21.2400   20.8415 C.3       3 GLC5        0.0000 
     25 CA         47.8435   22.5930   20.2685 C.3       3 GLC5        0.0000 
     26 CA         46.5210   23.8950   21.0310 C.3       9 GLL5        0.0000 
     27 CA         49.1660   21.2910   19.5060 C.3       6 GLP5        0.0000 
     28 CA         46.1755   25.8250   21.4820 C.3       3 GLC5        0.0000 
     29 CA         45.8300   27.7550   21.9330 C.3       6 GLP5        0.0000 
     30 CA         42.7655   25.3600   22.2620 C.3       3 GLC5        0.0000 
     31 CA         44.0830   24.5670   21.0540 C.3       9 GLL5        0.0000 
     32 CA         41.4480   26.1530   23.4700 C.3       6 GLP5        0.0000 
     33 CA         44.9565   26.1610   21.4935 C.3       3 GLC5        0.0000 
     34 CA         41.4835   22.4805   12.0210 C.3       3 GLC5        0.0000 
     35 CA         43.3480   22.8160   12.8740 C.3       9 GLL5        0.0000 
     36 CA         39.6190   22.1450   11.1680 C.3       6 GLP5        0.0000 
     37 O          42.7035   18.1040   22.1920 O.2       1 ALC1        0.0000 
     38 O          43.7260   18.6760   21.2410 O.2       7 ALL1        0.0000 
     39 O          41.6810   17.5320   23.1430 O.2       4 ALP1        0.0000 
     40 CA         40.6415   12.6113   14.4538 C.3       3 GLC5        0.0000 
     41 CA         42.4090   12.6690   15.4230 C.3       9 GLL5        0.0000 
     42 CA         38.7580   13.1670   13.8290 C.3       6 GLP5        0.0000 
     43 CA         42.5681    9.5775   15.7502 C.3       3 GLC5        0.0000 
     44 CA         42.6410   11.4420   14.7340 C.3       9 GLL5        0.0000 
     45 CA         41.2210    8.1310   15.9550 C.3       6 GLP5        0.0000 
     46 CA         41.7903   16.3065   19.3290 C.3       3 GLC5        0.0000 
     47 CA         43.5660   16.1780   18.5600 C.3       9 GLL5        0.0000 
     48 CA         39.9890   16.1550   19.4440 C.3       6 GLP5        0.0000 
     49 CA         41.4870   15.2873   19.1977 C.3       3 GLC5        0.0000 
     50 CA         43.1560   14.8210   18.3800 C.3       9 GLL5        0.0000 
     51 CA         42.1110   15.3022   22.8942 C.3       3 GLC5        0.0000 
     52 CA         42.8880   14.5680   20.8330 C.3       9 GLL5        0.0000 
     53 CA         41.1300   15.3570   24.8700 C.3       6 GLP5        0.0000 
     54 CA         41.5405   15.7012   20.1812 C.3       3 GLC5        0.0000 
     55 CA         43.2960   15.9270   21.0040 C.3       9 GLL5        0.0000 
     56 CA         48.0782   24.4292   13.3675 C.3       3 GLC5        0.0000 
     57 CA         47.8650   24.8880   15.2130 C.3       9 GLL5        0.0000 
     58 CA         48.7870   23.2728   16.1402 C.3       3 GLC5        0.0000 
     59 CA         49.0030   21.7770   17.0810 C.3       6 GLP5        0.0000 
     60 CA         48.7163   25.0800   12.8082 C.3       3 GLC5        0.0000 
     61 CA         48.1540   26.8490   13.7240 C.3       9 GLL5        0.0000 
     62 CA         48.6268   27.1840   15.6487 C.3       3 GLC5        0.0000 
     63 CA         48.3940   27.6340   17.5760 C.3       6 GLP5        0.0000 
     64 CA         49.3503   28.7155   14.0847 C.3       3 GLC5        0.0000 
     65 CA         49.8410   30.6970   14.4480 C.3       6 GLP5        0.0000 
     66 CA         51.6225   25.8070   13.4437 C.3       3 GLC5        0.0000 
     67 CA         53.3950   25.5440   12.8060 C.3       6 GLP5        0.0000 
     68 CA         49.1395   24.2555   13.3550 C.3       3 GLC5        0.0000 
     69 CA         51.4355   23.8275   14.9810 C.3       3 GLC5        0.0000 
     70 CA         49.2770   24.6490   15.1860 C.3       9 GLL5        0.0000 
     71 CA         53.1650   22.5700   15.1470 C.3       6 GLP5        0.0000 
     72 CA         49.7275   26.0500   16.3585 C.3       3 GLC5        0.0000 
     73 CA         49.7490   27.0150   17.9020 C.3       6 GLP5        0.0000 
     74 CA         47.6502   22.8697   16.5140 C.3       3 GLC5        0.0000 
     75 CA         47.0550   24.0340   16.1100 C.3       9 GLL5        0.0000 
     76 CA         42.8528   21.8340   20.0173 C.3       3 GLC5        0.0000 
     77 CA         44.6420   21.4570   19.2190 C.3       9 GLL5        0.0000 
     78 CA         46.7505   22.7765   22.3867 C.3       3 GLC5        0.0000 
     79 CA         45.0810   23.4450   20.6920 C.3       9 GLL5        0.0000 
     80 CA         47.7000   21.8830   23.9120 C.3       6 GLP5        0.0000 
     81 CA         42.8680   23.2020   20.4890 C.3       3 GLC5        0.0000 
     82 CA         47.8566   26.1836   16.5255 C.3       3 GLC5        0.0000 
@<TRIPOS>BOND
@<TRIPOS>SUBSTRUCTURE
     1 ALC1       15 GROUP        1 X    ALC  0     ROOT ALC X 1
     2 ASC3       10 GROUP        1 X    ASC  0     **** ASC X 3
     3 GLC5        1 GROUP        1 X    GLC  0     **** GLC X 6
     4 ALP1       17 GROUP        1 Y    ALP  0     ROOT ALP Y 8
     5 ASP3       12 GROUP        1 Y    ASP  0     **** ASP Y 10
     6 GLP5        3 GROUP        1 Y    GLP  0     **** GLP Y 13
     7 ALL1       16 GROUP        1 Z    ALL  0     ROOT ALL Z 15
     8 ASL3       11 GROUP        1 Z    ASL  0     **** ASL Z 17
     9 GLL5        2 GROUP        1 Z    GLL  0     **** GLL Z 20
@<TRIPOS>SET

