#    Name: 4app_N53_1_ligand
#    Modification time : Tue Mar 25 06:00:39 2014

@<TRIPOS>MOLECULE
4app_N53_1_ligand
   79    84     1     0     0
SMALL
NO_CHARGES


@<TRIPOS>ATOM
      1 C1         43.2970   13.0820   16.4660 C.ar      1 N53601      0.0000 
      2 C2         42.4090   12.6690   15.4230 C.ar      1 N53601      0.0000 
      3 C3         42.6410   11.4420   14.7340 C.ar      1 N53601      0.0000 
      4 C4         43.7540   10.6280   15.1120 C.ar      1 N53601      0.0000 
      5 C5         44.6330   11.0130   16.1680 C.ar      1 N53601      0.0000 
      6 C6         44.4010   12.2400   16.8500 C.ar      1 N53601      0.0000 
      7 C7         43.6170   16.7380   19.8680 C.ar      1 N53601      0.0000 
      8 C8         43.5660   16.1780   18.5600 C.ar      1 N53601      0.0000 
      9 C9         43.1560   14.8210   18.3800 C.ar      1 N53601      0.0000 
     10 C10        42.8140   14.0180   19.5230 C.ar      1 N53601      0.0000 
     11 C11        42.8880   14.5680   20.8330 C.ar      1 N53601      0.0000 
     12 C12        43.2960   15.9270   21.0040 C.ar      1 N53601      0.0000 
     13 C13        47.8650   24.8880   15.2130 C.ar      1 N53601      0.0000 
     14 C14        47.3020   25.9770   14.4670 C.ar      1 N53601      0.0000 
     15 C15        48.1540   26.8490   13.7240 C.ar      1 N53601      0.0000 
     16 C16        49.5650   26.6190   13.7190 C.ar      1 N53601      0.0000 
     17 C17        50.1350   25.5210   14.4440 C.ar      1 N53601      0.0000 
     18 C18        49.2770   24.6490   15.1860 C.ar      1 N53601      0.0000 
     19 N19        44.8420   23.1800   16.8690 N.am      1 N53601      0.0000 
     20 C20        45.5400   23.8910   15.7840 C.3       1 N53601      0.0000 
     21 C21        45.1970   23.1900   14.4210 C.3       1 N53601      0.0000 
     22 N22        43.7370   23.2920   14.2110 N.4       1 N53601      0.0000 
     23 C23        43.0240   22.5940   15.3160 C.3       1 N53601      0.0000 
     24 C24        43.3730   23.2540   16.6460 C.3       1 N53601      0.0000 
     25 C25        44.6610   22.1890   21.4250 C.2       1 N53601      0.0000 
     26 C26        44.6420   21.4570   19.2190 C.3       1 N53601      0.0000 
     27 N27        44.9480   22.9280   19.2950 N.am      1 N53601      0.0000 
     28 C28        45.0810   23.4450   20.6920 C.3       1 N53601      0.0000 
     29 N29        44.4170   21.9670   22.7200 N.2       1 N53601      0.0000 
     30 N30        44.0530   20.6190   22.8170 N.pl3     1 N53601      0.0000 
     31 C31        44.0800   20.0820   21.5780 C.2       1 N53601      0.0000 
     32 C32        46.5210   23.8950   21.0310 C.3       1 N53601      0.0000 
     33 C33        44.0830   24.5670   21.0540 C.3       1 N53601      0.0000 
     34 C34        45.0730   23.7350   18.2230 C.2       1 N53601      0.0000 
     35 O35        45.3930   24.9220   18.3540 O.2       1 N53601      0.0000 
     36 C36        43.3480   22.8160   12.8740 C.3       1 N53601      0.0000 
     37 C37        47.0550   24.0340   16.1100 C.3       1 N53601      0.0000 
     38 N38        43.7260   18.6760   21.2410 N.am      1 N53601      0.0000 
     39 C39        44.0210   18.1340   20.0520 C.2       1 N53601      0.0000 
     40 O40        44.6070   18.7770   19.1880 O.2       1 N53601      0.0000 
     41 O41        43.0400   14.4090   16.9850 O.3       1 N53601      0.0000 
     42 C42        44.4610   21.0830   20.6400 C.2       1 N53601      0.0000 
     43 H          41.6145   13.2506   15.1749 H         1 N53601      0.0000 
     44 H          42.0266   11.1498   13.9869 H         1 N53601      0.0000 
     45 H          43.9233    9.7480   14.6122 H         1 N53601      0.0000 
     46 H          45.4099   10.4205   16.4268 H         1 N53601      0.0000 
     47 H          45.0098   12.5293   17.6091 H         1 N53601      0.0000 
     48 H          43.8206   16.7411   17.7534 H         1 N53601      0.0000 
     49 H          42.5190   13.0545   19.3873 H         1 N53601      0.0000 
     50 H          42.6538   14.0029   21.6405 H         1 N53601      0.0000 
     51 H          43.3594   16.3229   21.9402 H         1 N53601      0.0000 
     52 H          46.2982   26.1245   14.4696 H         1 N53601      0.0000 
     53 H          47.7629   27.6244   13.2044 H         1 N53601      0.0000 
     54 H          50.1770   27.2442   13.1924 H         1 N53601      0.0000 
     55 H          51.1328   25.3658   14.4301 H         1 N53601      0.0000 
     56 H          49.6677   23.8620   15.6927 H         1 N53601      0.0000 
     57 H          45.1183   24.9135   15.7239 H         1 N53601      0.0000 
     58 H          45.5134   22.1618   14.4927 H         1 N53601      0.0000 
     59 H          45.7429   23.7001   13.6437 H         1 N53601      0.0000 
     60 H          43.4737   24.3735   14.2837 H         1 N53601      0.0000 
     61 H          43.3205   21.5478   15.3548 H         1 N53601      0.0000 
     62 H          41.9477   22.6524   15.1668 H         1 N53601      0.0000 
     63 H          43.0468   24.2919   16.6188 H         1 N53601      0.0000 
     64 H          42.8432   22.7370   17.4438 H         1 N53601      0.0000 
     65 H          45.4705   20.9387   18.7956 H         1 N53601      0.0000 
     66 H          43.7411   21.3049   18.6716 H         1 N53601      0.0000 
     67 H          43.8285   20.1794   23.6348 H         1 N53601      0.0000 
     68 H          47.1306   24.4049   17.1641 H         1 N53601      0.0000 
     69 H          47.4828   22.9994   16.1440 H         1 N53601      0.0000 
     70 H          43.2374   18.1524   21.9913 H         1 N53601      0.0000 
     71 H          47.1946   23.1954   20.7925 H         1 N53601      0.0000 
     72 H          46.7757   24.7272   20.5384 H         1 N53601      0.0000 
     73 H          46.6303   24.0867   22.0064 H         1 N53601      0.0000 
     74 H          44.0727   24.7521   22.0367 H         1 N53601      0.0000 
     75 H          44.3088   25.4269   20.5962 H         1 N53601      0.0000 
     76 H          43.1476   24.3314   20.7903 H         1 N53601      0.0000 
     77 H          43.7917   23.3424   12.1487 H         1 N53601      0.0000 
     78 H          43.5962   21.8574   12.7343 H         1 N53601      0.0000 
     79 H          42.3615   22.8878   12.7267 H         1 N53601      0.0000 
@<TRIPOS>BOND
     1    2    1 ar   
     2    6    1 ar   
     3   41    1 1    
     4    3    2 ar   
     5   43    2 1    
     6    4    3 ar   
     7   44    3 1    
     8    5    4 ar   
     9   45    4 1    
    10    6    5 ar   
    11   46    5 1    
    12   47    6 1    
    13    8    7 ar   
    14   12    7 ar   
    15   39    7 1    
    16    9    8 ar   
    17   48    8 1    
    18   10    9 ar   
    19   41    9 1    
    20   11   10 ar   
    21   49   10 1    
    22   12   11 ar   
    23   50   11 1    
    24   51   12 1    
    25   14   13 ar   
    26   18   13 ar   
    27   37   13 1    
    28   15   14 ar   
    29   52   14 1    
    30   16   15 ar   
    31   53   15 1    
    32   17   16 ar   
    33   54   16 1    
    34   18   17 ar   
    35   55   17 1    
    36   56   18 1    
    37   20   19 1    
    38   24   19 1    
    39   34   19 am   
    40   21   20 1    
    41   37   20 1    
    42   57   20 1    
    43   22   21 1    
    44   58   21 1    
    45   59   21 1    
    46   23   22 1    
    47   36   22 1    
    48   60   22 1    
    49   24   23 1    
    50   61   23 1    
    51   62   23 1    
    52   63   24 1    
    53   64   24 1    
    54   28   25 1    
    55   29   25 2    
    56   42   25 1    
    57   27   26 1    
    58   42   26 1    
    59   65   26 1    
    60   66   26 1    
    61   28   27 1    
    62   34   27 am   
    63   32   28 1    
    64   33   28 1    
    65   30   29 1    
    66   31   30 1    
    67   67   30 1    
    68   38   31 1    
    69   42   31 2    
    70   71   32 1    
    71   72   32 1    
    72   73   32 1    
    73   74   33 1    
    74   75   33 1    
    75   76   33 1    
    76   35   34 2    
    77   77   36 1    
    78   78   36 1    
    79   79   36 1    
    80   68   37 1    
    81   69   37 1    
    82   39   38 am   
    83   70   38 1    
    84   40   39 2    
@<TRIPOS>SUBSTRUCTURE
     1 N53601      1 GROUP   
@<TRIPOS>SET

