#    Name: 1mw8_TMP_1_INTS_M
#    Modification time : Mon Apr  7 14:47:08 2014

@<TRIPOS>MOLECULE
1mw8_TMP_1_INTS_M
   45     0     9     0     0
SMALL
NO_CHARGES


@<TRIPOS>ATOM
      1 NZ         39.6890   16.0255   42.0895 N.4       2 LYC4        0.0000 
      2 NZ         38.3260   16.1420   42.2820 N.4       8 LYL4        0.0000 
      3 NZ         41.8820   16.4860   42.7340 N.4       5 LYP4        0.0000 
      4 N          39.6890   16.0255   42.0895 N.am      1 SEC2        0.0000 
      5 N          38.3260   16.1420   42.2820 N.am      7 SEL2        0.0000 
      6 N          41.0520   15.9090   41.8970 N.am      4 SEP2        0.0000 
      7 NZ         40.0905   17.0160   44.2070 N.4       2 LYC4        0.0000 
      8 NZ         38.7810   16.9680   44.5970 N.4       8 LYL4        0.0000 
      9 NZ         38.1750   17.6545   45.6965 N.4       2 LYC4        0.0000 
     10 NZ         37.3290   19.6540   46.7860 N.4       5 LYP4        0.0000 
     11 N          40.0905   17.0160   44.2070 N.am      1 SEC2        0.0000 
     12 N          38.7810   16.9680   44.5970 N.am      7 SEL2        0.0000 
     13 N          41.4000   17.0640   43.8170 N.am      4 SEP2        0.0000 
     14 N          38.1750   17.6545   45.6965 N.am      1 SEC2        0.0000 
     15 N          37.5690   18.3410   46.7960 N.am      4 SEP2        0.0000 
     16 N          37.5430   19.3740   44.4230 N.am      1 SEC2        0.0000 
     17 N          37.4560   18.3980   43.1370 N.am      7 SEL2        0.0000 
     18 N          37.6300   20.3500   45.7090 N.am      4 SEP2        0.0000 
     19 N          36.4290   19.5620   42.5990 N.am      1 SEC2        0.0000 
     20 N          35.4020   20.7260   42.0610 N.am      4 SEP2        0.0000 
     21 CA         38.6030   22.0670   43.8620 C.3       3 GLC5        0.0000 
     22 CA         38.2790   20.6140   42.6330 C.3       9 GLL5        0.0000 
     23 CA         38.9270   23.5200   45.0910 C.3       6 GLP5        0.0000 
     24 N          40.0210   21.6180   44.3250 N.am      1 SEC2        0.0000 
     25 N          39.4430   21.3850   42.9630 N.am      7 SEL2        0.0000 
     26 N          40.5990   21.8510   45.6870 N.am      4 SEP2        0.0000 
     27 N          38.5365   20.8675   44.3360 N.am      1 SEC2        0.0000 
     28 N          46.4735   19.8790   42.6090 N.am      1 SEC2        0.0000 
     29 N          45.2910   20.4090   42.9420 N.am      7 SEL2        0.0000 
     30 N          47.6560   19.3490   42.2760 N.am      4 SEP2        0.0000 
     31 CA         44.3980   23.9510   45.1635 C.3       3 GLC5        0.0000 
     32 CA         44.3160   23.0200   43.8020 C.3       9 GLL5        0.0000 
     33 CA         44.4800   24.8820   46.5250 C.3       6 GLP5        0.0000 
     34 CA         39.9188   19.3935   44.0713 C.3       3 GLC5        0.0000 
     35 CA         41.3920   18.8980   45.3890 C.3       6 GLP5        0.0000 
     36 CA         39.7480   22.8410   42.5913 C.3       3 GLC5        0.0000 
     37 CA         40.1080   21.8060   41.8010 C.3       9 GLL5        0.0000 
     38 CA         39.7870   24.1330   43.9790 C.3       6 GLP5        0.0000 
     39 CA         41.3390   23.0903   43.4898 C.3       3 GLC5        0.0000 
     40 CA         42.2620   22.1650   42.8330 C.3       9 GLL5        0.0000 
     41 CA         42.6580   21.1670   44.5035 C.3       3 GLC5        0.0000 
     42 CA         43.5200   21.9300   43.1680 C.3       9 GLL5        0.0000 
     43 CA         42.2260   20.0140   45.8480 C.3       6 GLP5        0.0000 
     44 CA         43.5655   23.4810   41.9240 C.3       3 GLC5        0.0000 
     45 CA         44.0410   24.6420   40.6890 C.3       6 GLP5        0.0000 
@<TRIPOS>BOND
@<TRIPOS>SUBSTRUCTURE
     1 SEC2        4 GROUP        1 X    SEC  0     ROOT SEC X 2
     2 LYC4        1 GROUP        1 X    LYC  0     **** LYC X 4
     3 GLC5       21 GROUP        1 X    GLC  0     **** GLC X 6
     4 SEP2        6 GROUP        1 Y    SEP  0     ROOT SEP Y 9
     5 LYP4        3 GROUP        1 Y    LYP  0     **** LYP Y 11
     6 GLP5       23 GROUP        1 Y    GLP  0     **** GLP Y 13
     7 SEL2        5 GROUP        1 Z    SEL  0     ROOT SEL Z 16
     8 LYL4        2 GROUP        1 Z    LYL  0     **** LYL Z 18
     9 GLL5       22 GROUP        1 Z    GLL  0     **** GLL Z 20
@<TRIPOS>SET

