#    Name: 1mw8_TMP_1_ligand
#    Modification time : Mon Apr  7 14:47:08 2014

@<TRIPOS>MOLECULE
1mw8_TMP_1_ligand
   34    35     1     0     0
SMALL
NO_CHARGES


@<TRIPOS>ATOM
      1 P          37.7280   16.8940   43.5640 P.3       1 TMP600      0.0000 
      2 O1P        36.4330   16.2710   43.9180 O.co2     1 TMP600      0.0000 
      3 O2P        38.3260   16.1420   42.2820 O.co2     1 TMP600      0.0000 
      4 O3P        38.7810   16.9680   44.5970 O.co2     1 TMP600      0.0000 
      5 O5'        37.4560   18.3980   43.1370 O.3       1 TMP600      0.0000 
      6 C5'        38.6120   19.1640   42.8740 C.3       1 TMP600      0.0000 
      7 C4'        38.2790   20.6140   42.6330 C.3       1 TMP600      0.0000 
      8 O4'        39.4430   21.3850   42.9630 O.3       1 TMP600      0.0000 
      9 C3'        37.9430   20.9650   41.1980 C.3       1 TMP600      0.0000 
     10 O3'        37.0020   22.0450   41.1890 O.3       1 TMP600      0.0000 
     11 C2'        39.3100   21.2920   40.6060 C.3       1 TMP600      0.0000 
     12 C1'        40.1080   21.8060   41.8010 C.3       1 TMP600      0.0000 
     13 N1         41.5050   21.3480   42.0350 N.am      1 TMP600      0.0000 
     14 C2         42.0130   20.1740   41.5320 C.2       1 TMP600      0.0000 
     15 O2         41.3850   19.4050   40.8270 O.2       1 TMP600      0.0000 
     16 N3         43.3170   19.9340   41.8860 N.am      1 TMP600      0.0000 
     17 C4         44.1340   20.7210   42.6790 C.2       1 TMP600      0.0000 
     18 O4         45.2910   20.4090   42.9420 O.2       1 TMP600      0.0000 
     19 C5         43.5200   21.9300   43.1680 C.2       1 TMP600      0.0000 
     20 C5M        44.3160   23.0200   43.8020 C.3       1 TMP600      0.0000 
     21 C6         42.2620   22.1650   42.8330 C.2       1 TMP600      0.0000 
     22 H          39.1557   18.7894   41.9833 H         1 TMP600      0.0000 
     23 H          39.3322   19.1178   43.7157 H         1 TMP600      0.0000 
     24 H          37.4610   20.9088   43.2666 H         1 TMP600      0.0000 
     25 H          37.5770   20.0765   40.7327 H         1 TMP600      0.0000 
     26 H          39.2142   22.0596   39.8806 H         1 TMP600      0.0000 
     27 H          39.7589   20.4093   40.2268 H         1 TMP600      0.0000 
     28 H          40.0958   22.9027   41.7862 H         1 TMP600      0.0000 
     29 H          43.7635   19.0221   41.5016 H         1 TMP600      0.0000 
     30 H          41.7836   23.0530   43.2026 H         1 TMP600      0.0000 
     31 H          44.7982   22.7013   44.6181 H         1 TMP600      0.0000 
     32 H          45.0062   23.3868   43.1783 H         1 TMP600      0.0000 
     33 H          43.7384   23.7863   44.0834 H         1 TMP600      0.0000 
     34 H          37.5213   22.8379   40.8701 H         1 TMP600      0.0000 
@<TRIPOS>BOND
     1    2    1 ar   
     2    3    1 ar   
     3    4    1 ar   
     4    5    1 1    
     5    6    5 1    
     6    7    6 1    
     7   22    6 1    
     8   23    6 1    
     9    8    7 1    
    10    9    7 1    
    11   24    7 1    
    12   12    8 1    
    13   10    9 1    
    14   11    9 1    
    15   25    9 1    
    16   34   10 1    
    17   12   11 1    
    18   26   11 1    
    19   27   11 1    
    20   13   12 1    
    21   28   12 1    
    22   14   13 am   
    23   21   13 1    
    24   15   14 2    
    25   16   14 1    
    26   17   16 am   
    27   29   16 1    
    28   18   17 2    
    29   19   17 1    
    30   20   19 1    
    31   21   19 2    
    32   31   20 1    
    33   32   20 1    
    34   33   20 1    
    35   30   21 1    
@<TRIPOS>SUBSTRUCTURE
     1 TMP600      1 GROUP   
@<TRIPOS>SET

