#    Name: 2oaz_I96_1_INTS_M
#    Modification time : Tue Mar 25 22:12:51 2014

@<TRIPOS>MOLECULE
2oaz_I96_1_INTS_M
   41     0     9     0     0
SMALL
NO_CHARGES


@<TRIPOS>ATOM
      1 CA         19.4800   30.7555   20.7460 C.3       3 GLC5        0.0000 
      2 CA         17.6240   30.1520   21.7100 C.3       9 GLL5        0.0000 
      3 CA         21.3360   31.3590   19.7820 C.3       6 GLP5        0.0000 
      4 CA         17.9870   31.0485   23.1835 C.3       3 GLC5        0.0000 
      5 CA         18.3500   31.9450   24.6570 C.3       6 GLP5        0.0000 
      6 N          19.7895   30.3235   18.3385 N.am      1 SEC2        0.0000 
      7 N          19.5580   29.4260   17.2650 N.am      7 SEL2        0.0000 
      8 N          20.0210   31.2210   19.4120 N.am      4 SEP2        0.0000 
      9 Zn         20.9110   26.4530   16.6625 Zn        2 ZIC7        0.0000 
     10 Zn         20.4090   27.3150   17.2520 Zn        8 ZIL7        0.0000 
     11 Zn         21.4130   25.5910   16.0730 Zn        5 ZIP7        0.0000 
     12 CA         22.9170   28.5925   14.7620 C.3       3 GLC5        0.0000 
     13 CA         22.1380   29.0570   16.2620 C.3       9 GLL5        0.0000 
     14 CA         23.6960   28.1280   13.2620 C.3       6 GLP5        0.0000 
     15 CA         23.7020   27.5765   16.8170 C.3       3 GLC5        0.0000 
     16 CA         25.2660   26.0960   17.3720 C.3       6 GLP5        0.0000 
     17 CA         23.0185   30.1810   14.4205 C.3       3 GLC5        0.0000 
     18 CA         22.2900   30.8690   15.9020 C.3       9 GLL5        0.0000 
     19 CA         23.7470   29.4930   12.9390 C.3       6 GLP5        0.0000 
     20 CA         18.1150   31.6610   13.8330 C.3       3 GLC5        0.0000 
     21 CA         19.6800   31.8580   15.3360 C.3       9 GLL5        0.0000 
     22 CA         16.5500   31.4640   12.3300 C.3       6 GLP5        0.0000 
     23 CA         21.6000   35.1140   17.1775 C.3       3 GLC5        0.0000 
     24 CA         20.0720   33.7640   16.9840 C.3       9 GLL5        0.0000 
     25 CA         23.1280   36.4640   17.3710 C.3       6 GLP5        0.0000 
     26 CA         14.4967   30.8195   15.9928 C.3       3 GLC5        0.0000 
     27 CA         15.6300   31.8750   17.1770 C.3       9 GLL5        0.0000 
     28 CA         12.9780   30.3600   14.8100 C.3       6 GLP5        0.0000 
     29 CA         17.0494   28.6209   23.0159 C.3       3 GLC5        0.0000 
     30 CA         16.3310   29.7310   21.0090 C.3       9 GLL5        0.0000 
     31 CA         17.4920   28.1750   24.8710 C.3       6 GLP5        0.0000 
     32 CA         21.7750   30.6610   17.9320 C.3       3 GLC5        0.0000 
     33 CA         22.8871   33.2323   16.5269 C.3       3 GLC5        0.0000 
     34 CA         21.2560   32.9760   16.9930 C.3       9 GLL5        0.0000 
     35 CA         24.2750   34.2860   16.5460 C.3       6 GLP5        0.0000 
     36 CA         20.0622   33.7533   14.0518 C.3       3 GLC5        0.0000 
     37 CA         19.1290   33.2750   16.1290 C.3       9 GLL5        0.0000 
     38 CA         20.7200   34.9400   12.3710 C.3       6 GLP5        0.0000 
     39 CA         20.9924   32.2291   18.2790 C.3       3 GLC5        0.0000 
     40 CA         19.6538   34.8867   17.8149 C.3       3 GLC5        0.0000 
     41 CA         19.4110   36.4510   19.0710 C.3       6 GLP5        0.0000 
@<TRIPOS>BOND
@<TRIPOS>SUBSTRUCTURE
     1 SEC2        6 GROUP        1 X    SEC  0     ROOT SEC X 2
     2 ZIC7        9 GROUP        1 X    ZIC  0     **** ZIC X 5
     3 GLC5        1 GROUP        1 X    GLC  0     **** GLC X 6
     4 SEP2        8 GROUP        1 Y    SEP  0     ROOT SEP Y 9
     5 ZIP7       11 GROUP        1 Y    ZIP  0     **** ZIP Y 12
     6 GLP5        3 GROUP        1 Y    GLP  0     **** GLP Y 13
     7 SEL2        7 GROUP        1 Z    SEL  0     ROOT SEL Z 16
     8 ZIL7       10 GROUP        1 Z    ZIL  0     **** ZIL Z 19
     9 GLL5        2 GROUP        1 Z    GLL  0     **** GLL Z 20
@<TRIPOS>SET

