#    Name: 2oaz_I96_1_ligand
#    Modification time : Tue Mar 25 22:12:51 2014

@<TRIPOS>MOLECULE
2oaz_I96_1_ligand
   39    41     1     0     0
SMALL
NO_CHARGES


@<TRIPOS>ATOM
      1 C1         16.6680   29.9440   18.3680 C.ar      1 I96501      0.0000 
      2 C2         16.1300   30.4250   19.6350 C.ar      1 I96501      0.0000 
      3 N3         17.4290   28.7750   18.2590 N.pl3     1 I96501      0.0000 
      4 C4         16.4010   30.6830   17.1740 C.ar      1 I96501      0.0000 
      5 C5         15.3500   31.6400   19.6160 C.ar      1 I96501      0.0000 
      6 C6         16.3310   29.7310   21.0090 C.3       1 I96501      0.0000 
      7 C7         18.6610   28.5920   17.7740 C.2       1 I96501      0.0000 
      8 C8         15.6300   31.8750   17.1770 C.ar      1 I96501      0.0000 
      9 C9         15.1100   32.3500   18.3870 C.ar      1 I96501      0.0000 
     10 C10        17.6240   30.1520   21.7100 C.3       1 I96501      0.0000 
     11 C11        16.2360   28.1920   20.9620 C.3       1 I96501      0.0000 
     12 N12        19.5580   29.4260   17.2650 N.2       1 I96501      0.0000 
     13 N13        19.1690   27.3360   17.7660 N.pl3     1 I96501      0.0000 
     14 C14        20.6040   28.6050   16.9660 C.2       1 I96501      0.0000 
     15 N15        20.4090   27.3150   17.2520 N.2       1 I96501      0.0000 
     16 S16        22.1380   29.0570   16.2620 S.3       1 I96501      0.0000 
     17 C17        22.2900   30.8690   15.9020 C.3       1 I96501      0.0000 
     18 C18        21.1950   31.8930   16.1430 C.2       1 I96501      0.0000 
     19 C19        21.2560   32.9760   16.9930 C.2       1 I96501      0.0000 
     20 S20        19.6800   31.8580   15.3360 S.3       1 I96501      0.0000 
     21 C21        20.0720   33.7640   16.9840 C.2       1 I96501      0.0000 
     22 C22        19.1290   33.2750   16.1290 C.2       1 I96501      0.0000 
     23 H          16.9112   27.8731   18.6395 H         1 I96501      0.0000 
     24 H          16.7842   30.3343   16.2800 H         1 I96501      0.0000 
     25 H          14.9639   31.9992   20.4881 H         1 I96501      0.0000 
     26 H          15.4920   30.0747   21.6690 H         1 I96501      0.0000 
     27 H          15.4624   32.3715   16.3060 H         1 I96501      0.0000 
     28 H          14.5527   33.2071   18.4161 H         1 I96501      0.0000 
     29 H          22.6252   30.8344   14.8235 H         1 I96501      0.0000 
     30 H          23.2419   31.1082   16.4620 H         1 I96501      0.0000 
     31 H          22.0250   33.1998   17.5551 H         1 I96501      0.0000 
     32 H          19.9756   34.5603   17.5392 H         1 I96501      0.0000 
     33 H          18.2723   33.5308   15.8837 H         1 I96501      0.0000 
     34 H          18.4317   29.9310   21.1634 H         1 I96501      0.0000 
     35 H          17.6484   31.1364   21.8843 H         1 I96501      0.0000 
     36 H          17.7335   29.6952   22.5928 H         1 I96501      0.0000 
     37 H          16.9274   27.7955   20.3580 H         1 I96501      0.0000 
     38 H          16.3674   27.7840   21.8655 H         1 I96501      0.0000 
     39 H          15.3447   27.8849   20.6285 H         1 I96501      0.0000 
@<TRIPOS>BOND
     1    2    1 ar   
     2    3    1 1    
     3    4    1 ar   
     4    5    2 ar   
     5    6    2 1    
     6    7    3 1    
     7   23    3 1    
     8    8    4 ar   
     9   24    4 1    
    10    9    5 ar   
    11   25    5 1    
    12   10    6 1    
    13   11    6 1    
    14   26    6 1    
    15   12    7 2    
    16   13    7 1    
    17    9    8 ar   
    18   27    8 1    
    19   28    9 1    
    20   34   10 1    
    21   35   10 1    
    22   36   10 1    
    23   37   11 1    
    24   38   11 1    
    25   39   11 1    
    26   14   12 1    
    27   15   13 1    
    28   15   14 2    
    29   16   14 1    
    30   17   16 1    
    31   18   17 1    
    32   29   17 1    
    33   30   17 1    
    34   19   18 2    
    35   20   18 1    
    36   21   19 1    
    37   31   19 1    
    38   22   20 1    
    39   22   21 2    
    40   32   21 1    
    41   33   22 1    
@<TRIPOS>SUBSTRUCTURE
     1 I96501      1 GROUP   
@<TRIPOS>SET

