#    Name: 3nhr_RZW_1_INTS_M
#    Modification time : Tue Mar 25 01:35:04 2014

@<TRIPOS>MOLECULE
3nhr_RZW_1_INTS_M
   43     0     6     0     0
SMALL
NO_CHARGES


@<TRIPOS>ATOM
      1 CA         -6.3220   -9.0505  -12.5205 C.3       2 GLC5        0.0000 
      2 CA         -6.2910   -7.9610  -14.0130 C.3       6 GLL5        0.0000 
      3 CA         -6.3530  -10.1400  -11.0280 C.3       4 GLP5        0.0000 
      4 N          -5.4810  -11.5875  -14.2055 N.am      1 SEC2        0.0000 
      5 N          -6.0380  -10.2490  -14.2520 N.am      5 SEL2        0.0000 
      6 N          -4.9240  -12.9260  -14.1590 N.am      3 SEP2        0.0000 
      7 CA         -2.2080  -11.3650  -15.7875 C.3       2 GLC5        0.0000 
      8 CA         -3.9360  -10.3580  -15.7500 C.3       6 GLL5        0.0000 
      9 CA         -0.4800  -12.3720  -15.8250 C.3       4 GLP5        0.0000 
     10 CA         -4.3730   -9.7215  -17.5055 C.3       2 GLC5        0.0000 
     11 CA         -4.8100   -9.0850  -19.2610 C.3       4 GLP5        0.0000 
     12 CA          0.3150   -8.0965  -18.3865 C.3       2 GLC5        0.0000 
     13 CA         -0.8210   -9.1080  -17.4930 C.3       6 GLL5        0.0000 
     14 CA          1.4510   -7.0850  -19.2800 C.3       4 GLP5        0.0000 
     15 CA         -0.6505  -10.7400  -16.6590 C.3       2 GLC5        0.0000 
     16 CA          0.2665  -10.7645  -18.4075 C.3       2 GLC5        0.0000 
     17 CA          1.3540  -12.4210  -19.3220 C.3       4 GLP5        0.0000 
     18 CA         -1.8675   -9.1135  -19.1420 C.3       2 GLC5        0.0000 
     19 CA         -2.9140   -9.1190  -20.7910 C.3       4 GLP5        0.0000 
     20 CA         -0.1650   -4.3100  -18.9570 C.3       2 GLC5        0.0000 
     21 CA         -1.2440   -4.1920  -17.6460 C.3       6 GLL5        0.0000 
     22 CA          0.9140   -4.4280  -20.2680 C.3       4 GLP5        0.0000 
     23 CA         -2.4510   -3.3550  -18.4970 C.3       2 GLC5        0.0000 
     24 CA         -3.6580   -2.5180  -19.3480 C.3       4 GLP5        0.0000 
     25 CA         -2.5370   -5.5995  -18.8235 C.3       2 GLC5        0.0000 
     26 CA         -3.8300   -7.0070  -20.0010 C.3       4 GLP5        0.0000 
     27 CA         -0.0130   -3.8880  -16.4270 C.3       2 GLC5        0.0000 
     28 CA          1.2180   -3.5840  -15.2080 C.3       4 GLP5        0.0000 
     29 CA         -5.0765   -3.2170  -17.7650 C.3       2 GLC5        0.0000 
     30 CA         -5.1730   -3.4030  -16.0760 C.3       6 GLL5        0.0000 
     31 CA         -4.9800   -3.0310  -19.4540 C.3       4 GLP5        0.0000 
     32 CA         -6.7655   -4.1215  -17.1265 C.3       2 GLC5        0.0000 
     33 CA         -8.3580   -4.8400  -18.1770 C.3       4 GLP5        0.0000 
     34 CA         -2.7927   -6.6805  -14.2372 C.3       2 GLC5        0.0000 
     35 CA         -4.5640   -6.6330  -15.1150 C.3       6 GLL5        0.0000 
     36 CA         -1.3570   -6.1210  -13.1080 C.3       4 GLP5        0.0000 
     37 CA         -1.8750   -6.6438  -14.8380 C.3       2 GLC5        0.0000 
     38 CA         -2.6460   -7.7880  -16.4220 C.3       6 GLL5        0.0000 
     39 CA         -2.3432   -5.7418  -14.4752 C.3       2 GLC5        0.0000 
     40 CA         -2.7380   -5.3770  -16.2590 C.3       6 GLL5        0.0000 
     41 CA         -5.6480   -6.4415  -12.1748 C.3       2 GLC5        0.0000 
     42 CA         -5.7970   -6.6890  -14.2810 C.3       6 GLL5        0.0000 
     43 CA         -5.0320   -6.5030  -10.4130 C.3       4 GLP5        0.0000 
@<TRIPOS>BOND
@<TRIPOS>SUBSTRUCTURE
     1 SEC2        4 GROUP        1 X    SEC  0     ROOT SEC X 2
     2 GLC5        1 GROUP        1 X    GLC  0     **** GLC X 6
     3 SEP2        6 GROUP        1 Y    SEP  0     ROOT SEP Y 9
     4 GLP5        3 GROUP        1 Y    GLP  0     **** GLP Y 13
     5 SEL2        5 GROUP        1 Z    SEL  0     ROOT SEL Z 16
     6 GLL5        2 GROUP        1 Z    GLL  0     **** GLL Z 20
@<TRIPOS>SET

