#    Name: 3nhr_RZW_1_ligand
#    Modification time : Tue Mar 25 01:35:04 2014

@<TRIPOS>MOLECULE
3nhr_RZW_1_ligand
   36    37     1     0     0
SMALL
NO_CHARGES


@<TRIPOS>ATOM
      1 C1         -4.5640   -6.6330  -15.1150 C.ar      1 RZW233      0.0000 
      2 C2         -3.8930   -7.8470  -15.6180 C.ar      1 RZW233      0.0000 
      3 C3         -2.6460   -7.7880  -16.4220 C.ar      1 RZW233      0.0000 
      4 C4         -2.1400   -6.5450  -16.7140 C.ar      1 RZW233      0.0000 
      5 C5         -2.7380   -5.3770  -16.2590 C.ar      1 RZW233      0.0000 
      6 C6         -3.9210   -5.3480  -15.4260 C.ar      1 RZW233      0.0000 
      7 N7         -4.4850   -9.0840  -15.3060 N.am      1 RZW233      0.0000 
      8 C8         -5.6380   -9.0990  -14.5230 C.2       1 RZW233      0.0000 
      9 C9         -6.2910   -7.9610  -14.0130 C.2       1 RZW233      0.0000 
     10 C10        -5.7970   -6.6890  -14.2810 C.2       1 RZW233      0.0000 
     11 C11        -6.4840   -5.4350  -13.7260 C.3       1 RZW233      0.0000 
     12 O12        -6.0380  -10.2490  -14.2520 O.2       1 RZW233      0.0000 
     13 C13        -3.9360  -10.3580  -15.7500 C.3       1 RZW233      0.0000 
     14 O14        -2.0760   -8.9720  -16.8360 O.3       1 RZW233      0.0000 
     15 C15        -0.8210   -9.1080  -17.4930 C.3       1 RZW233      0.0000 
     16 O16        -2.2220   -4.1800  -16.5910 O.3       1 RZW233      0.0000 
     17 C17        -1.2440   -4.1920  -17.6460 C.3       1 RZW233      0.0000 
     18 O18        -4.4670   -4.1330  -15.0600 O.3       1 RZW233      0.0000 
     19 C19        -5.1730   -3.4030  -16.0760 C.3       1 RZW233      0.0000 
     20 H          -1.2750   -6.4685  -17.2986 H         1 RZW233      0.0000 
     21 H          -7.1364   -8.0787  -13.4406 H         1 RZW233      0.0000 
     22 H          -5.8766   -4.9131  -13.1271 H         1 RZW233      0.0000 
     23 H          -6.7767   -4.8178  -14.4564 H         1 RZW233      0.0000 
     24 H          -7.2977   -5.6632  -13.1914 H         1 RZW233      0.0000 
     25 H          -3.0070  -10.5012  -15.4087 H         1 RZW233      0.0000 
     26 H          -4.4869  -11.1303  -15.4335 H         1 RZW233      0.0000 
     27 H          -3.8942  -10.4170  -16.7474 H         1 RZW233      0.0000 
     28 H          -0.0694   -8.7571  -16.9344 H         1 RZW233      0.0000 
     29 H          -0.6114  -10.0638  -17.6992 H         1 RZW233      0.0000 
     30 H          -0.7996   -8.6096  -18.3597 H         1 RZW233      0.0000 
     31 H          -0.9033   -3.2736  -17.8470 H         1 RZW233      0.0000 
     32 H          -0.4509   -4.7539  -17.4109 H         1 RZW233      0.0000 
     33 H          -1.6204   -4.5578  -18.4972 H         1 RZW233      0.0000 
     34 H          -4.5828   -3.1821  -16.8525 H         1 RZW233      0.0000 
     35 H          -5.9483   -3.9223  -16.4355 H         1 RZW233      0.0000 
     36 H          -5.5355   -2.5384  -15.7280 H         1 RZW233      0.0000 
@<TRIPOS>BOND
     1    2    1 ar   
     2    6    1 ar   
     3   10    1 1    
     4    3    2 ar   
     5    7    2 1    
     6    4    3 ar   
     7   14    3 1    
     8    5    4 ar   
     9   20    4 1    
    10    6    5 ar   
    11   16    5 1    
    12   18    6 1    
    13    8    7 am   
    14   13    7 1    
    15    9    8 1    
    16   12    8 2    
    17   10    9 2    
    18   21    9 1    
    19   11   10 1    
    20   22   11 1    
    21   23   11 1    
    22   24   11 1    
    23   25   13 1    
    24   26   13 1    
    25   27   13 1    
    26   15   14 1    
    27   28   15 1    
    28   29   15 1    
    29   30   15 1    
    30   17   16 1    
    31   31   17 1    
    32   32   17 1    
    33   33   17 1    
    34   19   18 1    
    35   34   19 1    
    36   35   19 1    
    37   36   19 1    
@<TRIPOS>SUBSTRUCTURE
     1 RZW233      1 GROUP   
@<TRIPOS>SET

