#    Name: 3vw9_HPJ_2_INTS_M
#    Modification time : Tue Mar 25 01:46:26 2014

@<TRIPOS>MOLECULE
3vw9_HPJ_2_INTS_M
   59     0     9     0     0
SMALL
NO_CHARGES


@<TRIPOS>ATOM
      1 CA         24.6960   -0.3445   -0.1645 C.3       3 GLC5        0.0000 
      2 CA         25.1550    0.5490   -2.1210 C.3       9 GLL5        0.0000 
      3 CA         24.2370   -1.2380    1.7920 C.3       6 GLP5        0.0000 
      4 CA         24.6800   -5.7710   -3.3820 C.3       3 GLC5        0.0000 
      5 CA         24.5270   -3.5500   -3.7070 C.3       9 GLL5        0.0000 
      6 CA         24.8330   -7.9920   -3.0570 C.3       6 GLP5        0.0000 
      7 CA         24.2145    0.7935   -5.7030 C.3       3 GLC5        0.0000 
      8 CA         22.7850    1.2360   -4.6920 C.3       9 GLL5        0.0000 
      9 CA         25.6440    0.3510   -6.7140 C.3       6 GLP5        0.0000 
     10 CA         23.1245    4.5460   -6.6615 C.3       3 GLC5        0.0000 
     11 CA         23.4980    3.4150   -5.2080 C.3       9 GLL5        0.0000 
     12 CA         22.7510    5.6770   -8.1150 C.3       6 GLP5        0.0000 
     13 CA         25.2500    4.3735   -5.7960 C.3       3 GLC5        0.0000 
     14 CA         27.0020    5.3320   -6.3840 C.3       6 GLP5        0.0000 
     15 CA         24.6495    2.4645   -6.3360 C.3       3 GLC5        0.0000 
     16 CA         25.8010    1.5140   -7.4640 C.3       6 GLP5        0.0000 
     17 CA         21.8670    2.9485   -6.2225 C.3       3 GLC5        0.0000 
     18 CA         20.2360    2.4820   -7.2370 C.3       6 GLP5        0.0000 
     19 CA         28.7405   -3.8355   -2.5920 C.3       3 GLC5        0.0000 
     20 CA         27.5910   -5.4160   -3.4070 C.3       9 GLL5        0.0000 
     21 CA         29.8900   -2.2550   -1.7770 C.3       6 GLP5        0.0000 
     22 Zn         24.8710   -5.3470   -7.0910 Zn        2 ZIC7        0.0000 
     23 Zn         25.1160   -4.7450   -6.1270 Zn        8 ZIL7        0.0000 
     24 Zn         24.6260   -5.9490   -8.0550 Zn        5 ZIP7        0.0000 
     25 Zn         25.5140   -6.3880   -7.5280 Zn        2 ZIC7        0.0000 
     26 Zn         26.4020   -6.8270   -7.0010 Zn        8 ZIL7        0.0000 
     27 N          26.6315   -7.4605   -8.2945 N.am      1 SEC2        0.0000 
     28 N          26.4020   -6.8270   -7.0010 N.am      7 SEL2        0.0000 
     29 N          26.8610   -8.0940   -9.5880 N.am      4 SEP2        0.0000 
     30 CA         29.4495   -8.3035   -5.7480 C.3       3 GLC5        0.0000 
     31 CA         27.7930   -7.0940   -5.1520 C.3       9 GLL5        0.0000 
     32 CA         31.1060   -9.5130   -6.3440 C.3       6 GLP5        0.0000 
     33 CA         29.9955   -4.3555   -2.0430 C.3       3 GLC5        0.0000 
     34 CA         30.1010   -6.4560   -2.3090 C.3       9 GLL5        0.0000 
     35 CA         21.3092    1.6470   -5.7150 C.3       3 GLC5        0.0000 
     36 CA         21.9800    0.3880   -3.6940 C.3       9 GLL5        0.0000 
     37 CA         27.5887   -1.3125   -4.6028 C.3       3 GLC5        0.0000 
     38 CA         26.6410   -2.4870   -3.2520 C.3       9 GLL5        0.0000 
     39 CA         28.9000   -0.7040   -6.1520 C.3       6 GLP5        0.0000 
     40 CA         28.1283   -1.9380   -2.3554 C.3       3 GLC5        0.0000 
     41 CA         25.9560   -6.5445   -3.4120 C.3       3 GLC5        0.0000 
     42 CA         29.8912   -6.4772   -5.0360 C.3       3 GLC5        0.0000 
     43 CA         31.7770   -6.1200   -5.5440 C.3       6 GLP5        0.0000 
     44 CA         26.7294   -7.5056   -3.4472 C.3       3 GLC5        0.0000 
     45 CA         28.2180   -6.5750   -3.9040 C.3       9 GLL5        0.0000 
     46 CA         32.8275   -7.4802   -2.6803 C.3       3 GLC5        0.0000 
     47 CA         31.1300   -7.0750   -1.5820 C.3       9 GLL5        0.0000 
     48 CA         34.4400   -7.1930   -3.7310 C.3       6 GLP5        0.0000 
     49 CA         32.2807  -10.0470   -2.8293 C.3       3 GLC5        0.0000 
     50 CA         31.3000   -8.4600   -1.6770 C.3       9 GLL5        0.0000 
     51 CA         33.6800  -11.2520   -3.5720 C.3       6 GLP5        0.0000 
     52 CA         29.1065  -10.3537   -2.1045 C.3       3 GLC5        0.0000 
     53 CA         30.4630   -9.2240   -2.4960 C.3       9 GLL5        0.0000 
     54 CA         28.2710  -11.7970   -1.3600 C.3       6 GLP5        0.0000 
     55 CA         30.5021   -9.0376   -4.5896 C.3       3 GLC5        0.0000 
     56 CA         30.4585   -8.6774   -0.1314 C.3       3 GLC5        0.0000 
     57 CA         30.0780   -8.8590    1.8000 C.3       6 GLP5        0.0000 
     58 CA         30.6621   -6.9167   -4.2545 C.3       3 GLC5        0.0000 
     59 CA         29.4210   -8.5970   -3.2020 C.3       9 GLL5        0.0000 
@<TRIPOS>BOND
@<TRIPOS>SUBSTRUCTURE
     1 SEC2       27 GROUP        1 X    SEC  0     ROOT SEC X 2
     2 ZIC7       22 GROUP        1 X    ZIC  0     **** ZIC X 5
     3 GLC5        1 GROUP        1 X    GLC  0     **** GLC X 6
     4 SEP2       29 GROUP        1 Y    SEP  0     ROOT SEP Y 9
     5 ZIP7       24 GROUP        1 Y    ZIP  0     **** ZIP Y 12
     6 GLP5        3 GROUP        1 Y    GLP  0     **** GLP Y 13
     7 SEL2       28 GROUP        1 Z    SEL  0     ROOT SEL Z 16
     8 ZIL7       23 GROUP        1 Z    ZIL  0     **** ZIL Z 19
     9 GLL5        2 GROUP        1 Z    GLL  0     **** GLL Z 20
@<TRIPOS>SET

