#    Name: 3vw9_HPJ_2_ligand
#    Modification time : Tue Mar 25 01:46:27 2014

@<TRIPOS>MOLECULE
3vw9_HPJ_2_ligand
   48    51     1     0     0
SMALL
NO_CHARGES


@<TRIPOS>ATOM
      1 C4         21.9800    0.3880   -3.6940 C.3       1 HPJ202      0.0000 
      2 C14        25.9260   -3.6220   -3.6540 C.ar      1 HPJ202      0.0000 
      3 C5         22.6770    0.2180   -2.3270 C.3       1 HPJ202      0.0000 
      4 C11        24.5150   -1.3930   -2.8730 C.ar      1 HPJ202      0.0000 
      5 C7         25.1550    0.5490   -2.1210 C.2       1 HPJ202      0.0000 
      6 C8         26.2700   -0.1550   -2.3760 C.2       1 HPJ202      0.0000 
      7 C9         25.9140   -1.3550   -2.8550 C.ar      1 HPJ202      0.0000 
      8 C10        26.6410   -2.4870   -3.2520 C.ar      1 HPJ202      0.0000 
      9 C13        24.5270   -3.5500   -3.7070 C.ar      1 HPJ202      0.0000 
     10 C3         22.7850    1.2360   -4.6920 C.3       1 HPJ202      0.0000 
     11 C1         23.4980    3.4150   -5.2080 C.3       1 HPJ202      0.0000 
     12 O2         22.6990    2.6330   -4.3220 O.3       1 HPJ202      0.0000 
     13 N6         24.0970   -0.1980   -2.4550 N.pl3     1 HPJ202      0.0000 
     14 N12        23.8520   -2.4800   -3.3130 N.ar      1 HPJ202      0.0000 
     15 C15        26.5670   -4.7780   -4.1270 C.2       1 HPJ202      0.0000 
     16 C16        27.5910   -5.4160   -3.4070 C.2       1 HPJ202      0.0000 
     17 N17        26.1650   -5.3190   -5.3750 N.am      1 HPJ202      0.0000 
     18 O18        25.1160   -4.7450   -6.1270 O.2       1 HPJ202      0.0000 
     19 C20        26.7930   -6.4340   -5.8940 C.2       1 HPJ202      0.0000 
     20 O21        26.4020   -6.8270   -7.0010 O.2       1 HPJ202      0.0000 
     21 C22        27.7930   -7.0940   -5.1520 C.2       1 HPJ202      0.0000 
     22 C23        28.2180   -6.5750   -3.9040 C.2       1 HPJ202      0.0000 
     23 C24        29.2460   -7.2040   -3.1470 C.ar      1 HPJ202      0.0000 
     24 C25        30.1010   -6.4560   -2.3090 C.ar      1 HPJ202      0.0000 
     25 C26        31.1300   -7.0750   -1.5820 C.ar      1 HPJ202      0.0000 
     26 C27        31.3000   -8.4600   -1.6770 C.ar      1 HPJ202      0.0000 
     27 C28        30.4630   -9.2240   -2.4960 C.ar      1 HPJ202      0.0000 
     28 C29        29.4210   -8.5970   -3.2020 C.ar      1 HPJ202      0.0000 
     29 H          21.0005    0.8572   -3.5347 H         1 HPJ202      0.0000 
     30 H          21.8064   -0.6054   -4.1275 H         1 HPJ202      0.0000 
     31 H          22.1115   -0.5266   -1.7475 H         1 HPJ202      0.0000 
     32 H          22.6062    1.1744   -1.7881 H         1 HPJ202      0.0000 
     33 H          25.1255    1.4468   -1.7564 H         1 HPJ202      0.0000 
     34 H          27.1778    0.1540   -2.2366 H         1 HPJ202      0.0000 
     35 H          27.6521   -2.4825   -3.2477 H         1 HPJ202      0.0000 
     36 H          24.0212   -4.3982   -4.0805 H         1 HPJ202      0.0000 
     37 H          22.3742    1.0604   -5.6885 H         1 HPJ202      0.0000 
     38 H          23.8177    0.8812   -4.6765 H         1 HPJ202      0.0000 
     39 H          27.8897   -5.0301   -2.4987 H         1 HPJ202      0.0000 
     40 H          28.2163   -7.9525   -5.5135 H         1 HPJ202      0.0000 
     41 H          29.9645   -5.4370   -2.2318 H         1 HPJ202      0.0000 
     42 H          31.7469   -6.5177   -0.9904 H         1 HPJ202      0.0000 
     43 H          32.0475   -8.9205   -1.1395 H         1 HPJ202      0.0000 
     44 H          30.6047  -10.2320   -2.5834 H         1 HPJ202      0.0000 
     45 H          28.7766   -9.1680   -3.7678 H         1 HPJ202      0.0000 
     46 H          24.4600    3.1435   -5.1781 H         1 HPJ202      0.0000 
     47 H          23.1972    3.3242   -6.1574 H         1 HPJ202      0.0000 
     48 H          23.4609    4.3881   -4.9806 H         1 HPJ202      0.0000 
@<TRIPOS>BOND
     1    3    1 1    
     2   10    1 1    
     3   29    1 1    
     4   30    1 1    
     5    8    2 ar   
     6    9    2 ar   
     7   15    2 1    
     8   13    3 1    
     9   31    3 1    
    10   32    3 1    
    11    7    4 ar   
    12   13    4 1    
    13   14    4 ar   
    14    6    5 2    
    15   13    5 1    
    16   33    5 1    
    17    7    6 1    
    18   34    6 1    
    19    8    7 ar   
    20   35    8 1    
    21   14    9 ar   
    22   36    9 1    
    23   12   10 1    
    24   37   10 1    
    25   38   10 1    
    26   12   11 1    
    27   46   11 1    
    28   47   11 1    
    29   48   11 1    
    30   16   15 2    
    31   17   15 1    
    32   22   16 1    
    33   39   16 1    
    34   18   17 1    
    35   19   17 am   
    36   20   19 2    
    37   21   19 1    
    38   22   21 2    
    39   40   21 1    
    40   23   22 1    
    41   24   23 ar   
    42   28   23 ar   
    43   25   24 ar   
    44   41   24 1    
    45   26   25 ar   
    46   42   25 1    
    47   27   26 ar   
    48   43   26 1    
    49   28   27 ar   
    50   44   27 1    
    51   45   28 1    
@<TRIPOS>SUBSTRUCTURE
     1 HPJ202      1 GROUP   
@<TRIPOS>SET

