#    Name: 1gz4_ATP_6_INTS_M
#    Modification time : Tue Mar 25 04:13:27 2014

@<TRIPOS>MOLECULE
1gz4_ATP_6_INTS_M
   49     0    12     0     0
SMALL
NO_CHARGES


@<TRIPOS>ATOM
      1 NZ         15.0385   -4.9575   24.2470 N.4       3 LYC4        0.0000 
      2 NZ         16.3300   -4.7910   24.6220 N.4      11 LYL4        0.0000 
      3 NZ         13.4220   -6.3340   24.3180 N.4       7 LYP4        0.0000 
      4 N          15.0385   -4.9575   24.2470 N.am      2 SEC2        0.0000 
      5 N          16.3300   -4.7910   24.6220 N.am     10 SEL2        0.0000 
      6 N          13.7470   -5.1240   23.8720 N.am      6 SEP2        0.0000 
      7 N          15.3315   -5.9420   24.7730 N.am      2 SEC2        0.0000 
      8 N          14.3330   -7.0930   24.9240 N.am      6 SEP2        0.0000 
      9 NZ         16.5280   -5.1660   27.8560 N.4       3 LYC4        0.0000 
     10 NZ         17.3820   -5.0850   26.8970 N.4      11 LYL4        0.0000 
     11 NZ         15.0060   -6.3580   29.1180 N.4       7 LYP4        0.0000 
     12 N          16.5280   -5.1660   27.8560 N.am      2 SEC2        0.0000 
     13 N          17.3820   -5.0850   26.8970 N.am     10 SEL2        0.0000 
     14 N          15.6740   -5.2470   28.8150 N.am      6 SEP2        0.0000 
     15 CA         15.0370   -2.3615   23.9315 C.3       4 GLC5        0.0000 
     16 CA         16.5880   -1.8480   24.9480 C.3      12 GLL5        0.0000 
     17 CA         13.4860   -2.8750   22.9150 C.3       8 GLP5        0.0000 
     18 CA         18.5015    1.8825   26.8235 C.3       4 GLC5        0.0000 
     19 CA         19.1160    0.0990   26.5150 C.3      12 GLL5        0.0000 
     20 CA         17.8870    3.6660   27.1320 C.3       8 GLP5        0.0000 
     21 CA         17.4565    0.0810   27.8910 C.3       4 GLC5        0.0000 
     22 CA         15.7970    0.0630   29.2670 C.3       8 GLP5        0.0000 
     23 CA         20.2350    2.5755   32.5200 C.3       4 GLC5        0.0000 
     24 CA         20.1540    0.8450   31.1950 C.3      12 GLL5        0.0000 
     25 CA         20.3160    4.3060   33.8450 C.3       8 GLP5        0.0000 
     26 CA         21.9300    0.6950   31.8880 C.3       4 GLC5        0.0000 
     27 CA         23.7060    0.5450   32.5810 C.3       8 GLP5        0.0000 
     28 O          19.9795    1.1355   33.8235 O.2       1 ALC1        0.0000 
     29 O          20.0160    0.2700   32.3860 O.2       9 ALL1        0.0000 
     30 O          19.9430    2.0010   35.2610 O.2       5 ALP1        0.0000 
     31 O          19.3415   -0.7080   32.9060 O.2       1 ALC1        0.0000 
     32 O          18.6670   -1.6860   33.4260 O.2       5 ALP1        0.0000 
     33 N          21.5450    2.6840   32.1210 N.am      2 SEC2        0.0000 
     34 N          20.6730    2.1080   31.0680 N.am     10 SEL2        0.0000 
     35 N          22.4170    3.2600   33.1740 N.am      6 SEP2        0.0000 
     36 CA         20.7715    4.2815   30.8645 C.3       4 GLC5        0.0000 
     37 CA         20.7910    2.6880   29.8260 C.3      12 GLL5        0.0000 
     38 CA         20.7520    5.8750   31.9030 C.3       8 GLP5        0.0000 
     39 CA         22.5220    2.3095   31.0350 C.3       4 GLC5        0.0000 
     40 CA         24.2530    1.9310   32.2440 C.3       8 GLP5        0.0000 
     41 CA         22.6095    2.2910   28.9240 C.3       4 GLC5        0.0000 
     42 CA         24.4280    1.8940   28.0220 C.3       8 GLP5        0.0000 
     43 CA         19.3390    3.1770   28.4790 C.3       4 GLC5        0.0000 
     44 CA         18.8760    2.2115   27.9730 C.3       4 GLC5        0.0000 
     45 CA         19.8650    0.7570   28.8140 C.3      12 GLL5        0.0000 
     46 CA         15.7117   -0.0538   25.8888 C.3       4 GLC5        0.0000 
     47 CA         17.5190   -0.6210   24.8930 C.3      12 GLL5        0.0000 
     48 CA         14.3700    1.1270   26.8570 C.3       8 GLP5        0.0000 
     49 CA         17.8068    0.2735   29.3440 C.3       4 GLC5        0.0000 
@<TRIPOS>BOND
@<TRIPOS>SUBSTRUCTURE
     1 ALC1       28 GROUP        1 X    ALC  0     ROOT ALC X 1
     2 SEC2        4 GROUP        1 X    SEC  0     **** SEC X 2
     3 LYC4        1 GROUP        1 X    LYC  0     **** LYC X 4
     4 GLC5       15 GROUP        1 X    GLC  0     **** GLC X 6
     5 ALP1       30 GROUP        1 Y    ALP  0     ROOT ALP Y 8
     6 SEP2        6 GROUP        1 Y    SEP  0     **** SEP Y 9
     7 LYP4        3 GROUP        1 Y    LYP  0     **** LYP Y 11
     8 GLP5       17 GROUP        1 Y    GLP  0     **** GLP Y 13
     9 ALL1       29 GROUP        1 Z    ALL  0     ROOT ALL Z 15
    10 SEL2        5 GROUP        1 Z    SEL  0     **** SEL Z 16
    11 LYL4        2 GROUP        1 Z    LYL  0     **** LYL Z 18
    12 GLL5       16 GROUP        1 Z    GLL  0     **** GLL Z 20
@<TRIPOS>SET

