#    Name: 1gz4_ATP_6_ligand
#    Modification time : Tue Mar 25 04:13:28 2014

@<TRIPOS>MOLECULE
1gz4_ATP_6_ligand
   43    45     1     0     0
SMALL
NO_CHARGES


@<TRIPOS>ATOM
      1 PG         22.4690   -4.2700   24.1540 P.3       1 ATP602      0.0000 
      2 O1G        23.5000   -4.8650   25.0370 O.co2     1 ATP602      0.0000 
      3 O2G        22.6790   -4.5460   22.7070 O.co2     1 ATP602      0.0000 
      4 O3G        22.2090   -2.8480   24.4410 O.co2     1 ATP602      0.0000 
      5 PB         19.5810   -5.1290   23.9230 P.3       1 ATP602      0.0000 
      6 O1B        19.1110   -6.5350   23.9810 O.co2     1 ATP602      0.0000 
      7 O2B        19.5660   -4.4150   22.6230 O.co2     1 ATP602      0.0000 
      8 O3B        21.0840   -5.0470   24.5310 O.3       1 ATP602      0.0000 
      9 PA         17.2830   -4.3310   25.6370 P.3       1 ATP602      0.0000 
     10 O1A        16.3300   -4.7910   24.6220 O.co2     1 ATP602      0.0000 
     11 O2A        17.3820   -5.0850   26.8970 O.co2     1 ATP602      0.0000 
     12 O3A        18.7370   -4.2680   24.9830 O.3       1 ATP602      0.0000 
     13 O5'        16.9970   -2.7730   25.9800 O.3       1 ATP602      0.0000 
     14 C5'        16.5880   -1.8480   24.9480 C.3       1 ATP602      0.0000 
     15 C4'        17.5190   -0.6210   24.8930 C.3       1 ATP602      0.0000 
     16 O4'        17.6850   -0.0570   26.2320 O.3       1 ATP602      0.0000 
     17 C3'        18.8910   -0.9910   24.4030 C.3       1 ATP602      0.0000 
     18 O3'        19.3010   -0.1110   23.3280 O.3       1 ATP602      0.0000 
     19 C2'        19.8170   -0.8430   25.6050 C.3       1 ATP602      0.0000 
     20 O2'        21.0960   -0.3310   25.2050 O.3       1 ATP602      0.0000 
     21 C1'        19.1160    0.0990   26.5150 C.3       1 ATP602      0.0000 
     22 N9         19.3880   -0.1500   27.9640 N.pl3     1 ATP602      0.0000 
     23 C8         19.0320   -1.2580   28.7150 C.2       1 ATP602      0.0000 
     24 N7         19.2770   -1.0000   30.0240 N.2       1 ATP602      0.0000 
     25 C5         19.7680    0.2110   30.0280 C.ar      1 ATP602      0.0000 
     26 C6         20.1540    0.8450   31.1950 C.ar      1 ATP602      0.0000 
     27 N6         20.0160    0.2700   32.3860 N.pl3     1 ATP602      0.0000 
     28 N1         20.6730    2.1080   31.0680 N.ar      1 ATP602      0.0000 
     29 C2         20.7910    2.6880   29.8260 C.ar      1 ATP602      0.0000 
     30 N3         20.3880    2.0180   28.7030 N.ar      1 ATP602      0.0000 
     31 C4         19.8650    0.7570   28.8140 C.ar      1 ATP602      0.0000 
     32 H          15.5660   -1.4811   25.1203 H         1 ATP602      0.0000 
     33 H          16.6044   -2.3212   23.9558 H         1 ATP602      0.0000 
     34 H          17.0933    0.1090   24.2348 H         1 ATP602      0.0000 
     35 H          18.8881   -2.0157   24.1060 H         1 ATP602      0.0000 
     36 H          19.8890   -1.7997   26.0801 H         1 ATP602      0.0000 
     37 H          19.4073    1.1131   26.2587 H         1 ATP602      0.0000 
     38 H          18.6709   -2.0710   28.3517 H         1 ATP602      0.0000 
     39 H          20.6783    0.5406   33.0846 H         1 ATP602      0.0000 
     40 H          19.2624   -0.3812   32.4755 H         1 ATP602      0.0000 
     41 H          21.1901    3.6434   29.7435 H         1 ATP602      0.0000 
     42 H          20.2542    0.1154   23.5283 H         1 ATP602      0.0000 
     43 H          21.7438   -1.0648   25.4095 H         1 ATP602      0.0000 
@<TRIPOS>BOND
     1    2    1 ar   
     2    3    1 ar   
     3    4    1 ar   
     4    8    1 1    
     5    6    5 ar   
     6    7    5 ar   
     7    8    5 1    
     8   12    5 1    
     9   10    9 ar   
    10   11    9 ar   
    11   12    9 1    
    12   13    9 1    
    13   14   13 1    
    14   15   14 1    
    15   32   14 1    
    16   33   14 1    
    17   16   15 1    
    18   17   15 1    
    19   34   15 1    
    20   21   16 1    
    21   18   17 1    
    22   19   17 1    
    23   35   17 1    
    24   42   18 1    
    25   20   19 1    
    26   21   19 1    
    27   36   19 1    
    28   43   20 1    
    29   22   21 1    
    30   37   21 1    
    31   23   22 1    
    32   31   22 1    
    33   24   23 2    
    34   38   23 1    
    35   25   24 1    
    36   26   25 ar   
    37   31   25 ar   
    38   27   26 1    
    39   28   26 ar   
    40   39   27 1    
    41   40   27 1    
    42   29   28 ar   
    43   30   29 ar   
    44   41   29 1    
    45   31   30 ar   
@<TRIPOS>SUBSTRUCTURE
     1 ATP602      1 GROUP   
@<TRIPOS>SET

