#    Name: 3dcj_THH_1_INTS_M
#    Modification time : Mon Mar 24 23:06:12 2014

@<TRIPOS>MOLECULE
3dcj_THH_1_INTS_M
   67     0    12     0     0
SMALL
NO_CHARGES


@<TRIPOS>ATOM
      1 Zn         16.0190   12.3300   14.5700 Zn        3 ZIC7        0.0000 
      2 Zn         15.4790   12.0040   15.7690 Zn       11 ZIL7        0.0000 
      3 Zn         16.5590   12.6560   13.3710 Zn        7 ZIP7        0.0000 
      4 CA         14.9170   12.4935   18.7005 C.3       4 GLC5        0.0000 
      5 CA         14.2030   13.2150   17.4100 C.3      12 GLL5        0.0000 
      6 CA         15.6310   11.7720   19.9910 C.3       8 GLP5        0.0000 
      7 CA         15.4735    4.0125   12.4660 C.3       4 GLC5        0.0000 
      8 CA         15.6200    6.2510   12.3070 C.3      12 GLL5        0.0000 
      9 CA         15.3270    1.7740   12.6250 C.3       8 GLP5        0.0000 
     10 CA         17.0015    5.2375   13.0325 C.3       4 GLC5        0.0000 
     11 CA         18.3830    4.2240   13.7580 C.3       8 GLP5        0.0000 
     12 O          13.9015    4.7695    9.3330 O.2       1 ALC1        0.0000 
     13 O          15.0760    5.5040    9.3340 O.2       9 ALL1        0.0000 
     14 O          12.7270    4.0350    9.3320 O.2       5 ALP1        0.0000 
     15 CA         15.4045    3.5565    9.8720 C.3       4 GLC5        0.0000 
     16 CA         16.4660    5.1850    9.4440 C.3      12 GLL5        0.0000 
     17 CA         14.3430    1.9280   10.3000 C.3       8 GLP5        0.0000 
     18 CA         15.7210    4.4750    7.5775 C.3       4 GLC5        0.0000 
     19 CA         14.9760    3.7650    5.7110 C.3       8 GLP5        0.0000 
     20 N          16.0485    2.9740    8.5200 N.am      2 SEC2        0.0000 
     21 N          16.9410    4.0060    8.9860 N.am     10 SEL2        0.0000 
     22 N          15.1560    1.9420    8.0540 N.am      6 SEP2        0.0000 
     23 CA         17.8660    5.1825   11.8860 C.3       4 GLC5        0.0000 
     24 CA         17.3490    6.1410   10.0140 C.3      12 GLL5        0.0000 
     25 CA         15.9200    9.0895    7.8690 C.3       4 GLC5        0.0000 
     26 CA         16.9510    8.4730    9.5370 C.3      12 GLL5        0.0000 
     27 CA         14.8890    9.7060    6.2010 C.3       8 GLP5        0.0000 
     28 CA         17.9285    9.8425    8.8175 C.3       4 GLC5        0.0000 
     29 CA         18.9060   11.2120    8.0980 C.3       8 GLP5        0.0000 
     30 CA         18.2045    8.2045    7.9885 C.3       4 GLC5        0.0000 
     31 CA         19.4580    7.9360    6.4400 C.3       8 GLP5        0.0000 
     32 CA         19.6570    5.5540   11.7165 C.3       4 GLC5        0.0000 
     33 CA         18.6940    5.7580   10.1050 C.3      12 GLL5        0.0000 
     34 CA         20.6200    5.3500   13.3280 C.3       8 GLP5        0.0000 
     35 N          20.5885    7.0920   11.8545 N.am      2 SEC2        0.0000 
     36 N          19.5890    6.6130   10.6280 N.am     10 SEL2        0.0000 
     37 N          21.5880    7.5710   13.0810 N.am      6 SEP2        0.0000 
     38 N          21.1060    6.4630   10.2270 N.am      2 SEC2        0.0000 
     39 N          22.6230    6.3130    9.8260 N.am      6 SEP2        0.0000 
     40 CA         17.2550    1.9780    9.9345 C.3       4 GLC5        0.0000 
     41 CA         18.2470    3.6760    9.1120 C.3      12 GLL5        0.0000 
     42 CA         16.2630    0.2800   10.7570 C.3       8 GLP5        0.0000 
     43 CA         17.0530    3.0815    7.4365 C.3       4 GLC5        0.0000 
     44 CA         15.8590    2.4870    5.7610 C.3       8 GLP5        0.0000 
     45 CA         18.9940    4.5655    7.7605 C.3       4 GLC5        0.0000 
     46 CA         19.7410    5.4550    6.4090 C.3       8 GLP5        0.0000 
     47 O          18.0615    1.4300    8.0405 O.2       1 ALC1        0.0000 
     48 O          18.7270    2.5030    8.6790 O.2       9 ALL1        0.0000 
     49 O          17.3960    0.3570    7.4020 O.2       5 ALP1        0.0000 
     50 O          20.1500    2.7525    8.3900 O.2       1 ALC1        0.0000 
     51 O          21.5730    3.0020    8.1010 O.2       5 ALP1        0.0000 
     52 CA         13.0953   11.5853   18.0705 C.3       4 GLC5        0.0000 
     53 CA         11.7640   12.6250   16.8450 C.3      12 GLL5        0.0000 
     54 CA         13.8980    9.9860   19.1720 C.3       8 GLP5        0.0000 
     55 CA         13.5380    9.6103   17.1660 C.3       4 GLC5        0.0000 
     56 CA         12.4890    9.1750   15.2780 C.3      12 GLL5        0.0000 
     57 CA         12.1080    7.7228   16.8660 C.3       4 GLC5        0.0000 
     58 CA         12.0820    6.8300   18.6970 C.3       8 GLP5        0.0000 
     59 CA         12.8280    5.1922   14.5083 C.3       4 GLC5        0.0000 
     60 CA         13.8060    7.1730   13.8220 C.3      12 GLL5        0.0000 
     61 CA         12.5410    3.2680   15.0750 C.3       8 GLP5        0.0000 
     62 CA         10.9617    7.1030   13.0503 C.3       4 GLC5        0.0000 
     63 CA         12.4240    7.0600   14.0610 C.3      12 GLL5        0.0000 
     64 CA          9.8220    6.6480   11.6740 C.3       8 GLP5        0.0000 
     65 CA         13.4261    6.4594   15.8027 C.3       4 GLC5        0.0000 
     66 CA         13.5590    5.5280   17.5380 C.3       8 GLP5        0.0000 
     67 CA         18.7709    5.5828    8.1630 C.3       4 GLC5        0.0000 
@<TRIPOS>BOND
@<TRIPOS>SUBSTRUCTURE
     1 ALC1       12 GROUP        1 X    ALC  0     ROOT ALC X 1
     2 SEC2       20 GROUP        1 X    SEC  0     **** SEC X 2
     3 ZIC7        1 GROUP        1 X    ZIC  0     **** ZIC X 5
     4 GLC5        4 GROUP        1 X    GLC  0     **** GLC X 6
     5 ALP1       14 GROUP        1 Y    ALP  0     ROOT ALP Y 8
     6 SEP2       22 GROUP        1 Y    SEP  0     **** SEP Y 9
     7 ZIP7        3 GROUP        1 Y    ZIP  0     **** ZIP Y 12
     8 GLP5        6 GROUP        1 Y    GLP  0     **** GLP Y 13
     9 ALL1       13 GROUP        1 Z    ALL  0     ROOT ALL Z 15
    10 SEL2       21 GROUP        1 Z    SEL  0     **** SEL Z 16
    11 ZIL7        2 GROUP        1 Z    ZIL  0     **** ZIL Z 19
    12 GLL5        5 GROUP        1 Z    GLL  0     **** GLL Z 20
@<TRIPOS>SET

