#    Name: 3dcj_THH_1_ligand
#    Modification time : Mon Mar 24 23:06:12 2014

@<TRIPOS>MOLECULE
3dcj_THH_1_ligand
   56    58     1     0     0
SMALL
NO_CHARGES


@<TRIPOS>ATOM
      1 OE1        15.4790   12.0040   15.7690 O.co2     1 THH401      0.0000 
      2 CD         15.1960   13.1560   16.2210 C.2       1 THH401      0.0000 
      3 OE2        15.7020   14.2530   15.8360 O.co2     1 THH401      0.0000 
      4 CG         14.2030   13.2150   17.4100 C.3       1 THH401      0.0000 
      5 CB         12.8210   13.7440   17.0930 C.3       1 THH401      0.0000 
      6 CA         11.7640   12.6250   16.8450 C.3       1 THH401      0.0000 
      7 CT         10.7860   13.1970   15.8030 C.2       1 THH401      0.0000 
      8 O1          9.9640   12.4240   15.2450 O.co2     1 THH401      0.0000 
      9 O2         10.9380   14.4000   15.5140 O.co2     1 THH401      0.0000 
     10 N          12.3670   11.4170   16.2430 N.am      1 THH401      0.0000 
     11 C          11.7030   10.2600   16.0170 C.2       1 THH401      0.0000 
     12 O          10.4970   10.0920   16.2120 O.2       1 THH401      0.0000 
     13 C12        12.4890    9.1750   15.2780 C.ar      1 THH401      0.0000 
     14 C13        13.8670    9.2940   15.0420 C.ar      1 THH401      0.0000 
     15 C14        14.5190    8.2700   14.3260 C.ar      1 THH401      0.0000 
     16 C15        13.8060    7.1730   13.8220 C.ar      1 THH401      0.0000 
     17 C16        12.4240    7.0600   14.0610 C.ar      1 THH401      0.0000 
     18 C17        11.7790    8.0560   14.7920 C.ar      1 THH401      0.0000 
     19 N10        14.3970    6.1830   13.1340 N.pl3     1 THH401      0.0000 
     20 C9         15.6200    6.2510   12.3070 C.3       1 THH401      0.0000 
     21 C6         15.5530    7.2240   11.0850 C.3       1 THH401      0.0000 
     22 C7         14.5800    6.7510    9.9820 C.3       1 THH401      0.0000 
     23 N8         15.0760    5.5040    9.3340 N.pl3     1 THH401      0.0000 
     24 C8A        16.4660    5.1850    9.4440 C.ar      1 THH401      0.0000 
     25 N1         16.9410    4.0060    8.9860 N.ar      1 THH401      0.0000 
     26 C4A        17.3490    6.1410   10.0140 C.ar      1 THH401      0.0000 
     27 N5         16.9170    7.3600   10.5060 N.3       1 THH401      0.0000 
     28 C11        16.9510    8.4730    9.5370 C.3       1 THH401      0.0000 
     29 C4         18.6940    5.7580   10.1050 C.ar      1 THH401      0.0000 
     30 O4         19.5890    6.6130   10.6280 O.3       1 THH401      0.0000 
     31 N3         19.1060    4.5550    9.6310 N.ar      1 THH401      0.0000 
     32 C2         18.2470    3.6760    9.1120 C.ar      1 THH401      0.0000 
     33 NA2        18.7270    2.5030    8.6790 N.pl3     1 THH401      0.0000 
     34 H          14.6614   13.8372   18.2075 H         1 THH401      0.0000 
     35 H          14.1173   12.1925   17.8348 H         1 THH401      0.0000 
     36 H          12.8617   14.3776   16.1954 H         1 THH401      0.0000 
     37 H          12.4632   14.3713   17.9220 H         1 THH401      0.0000 
     38 H          11.2446   12.4256   17.7263 H         1 THH401      0.0000 
     39 H          13.3855   11.5137   15.9900 H         1 THH401      0.0000 
     40 H          14.3846   10.0974   15.3778 H         1 THH401      0.0000 
     41 H          15.5363    8.3314   14.1721 H         1 THH401      0.0000 
     42 H          11.9074    6.2588   13.7021 H         1 THH401      0.0000 
     43 H          10.7689    7.9815   14.9847 H         1 THH401      0.0000 
     44 H          13.9611    5.1931   13.1566 H         1 THH401      0.0000 
     45 H          15.8767    5.2452   11.9100 H         1 THH401      0.0000 
     46 H          16.4897    6.5621   12.9250 H         1 THH401      0.0000 
     47 H          15.2236    8.1885   11.4451 H         1 THH401      0.0000 
     48 H          14.4838    7.5508    9.2454 H         1 THH401      0.0000 
     49 H          13.6031    6.5806   10.4383 H         1 THH401      0.0000 
     50 H          14.4340    4.9253    8.8429 H         1 THH401      0.0000 
     51 H          19.7096    2.3593    8.7966 H         1 THH401      0.0000 
     52 H          18.0598    1.8760    8.2769 H         1 THH401      0.0000 
     53 H          17.8591    8.5870    9.1341 H         1 THH401      0.0000 
     54 H          16.3115    8.3278    8.7820 H         1 THH401      0.0000 
     55 H          16.7080    9.3443    9.9635 H         1 THH401      0.0000 
     56 H          19.0718    7.4491   10.8109 H         1 THH401      0.0000 
@<TRIPOS>BOND
     1    2    1 ar   
     2    3    2 ar   
     3    4    2 1    
     4    5    4 1    
     5   34    4 1    
     6   35    4 1    
     7    6    5 1    
     8   36    5 1    
     9   37    5 1    
    10    7    6 1    
    11   10    6 1    
    12   38    6 1    
    13    8    7 ar   
    14    9    7 ar   
    15   11   10 am   
    16   39   10 1    
    17   12   11 2    
    18   13   11 1    
    19   14   13 ar   
    20   18   13 ar   
    21   15   14 ar   
    22   40   14 1    
    23   16   15 ar   
    24   41   15 1    
    25   17   16 ar   
    26   19   16 1    
    27   18   17 ar   
    28   42   17 1    
    29   43   18 1    
    30   20   19 1    
    31   44   19 1    
    32   21   20 1    
    33   45   20 1    
    34   46   20 1    
    35   22   21 1    
    36   27   21 1    
    37   47   21 1    
    38   23   22 1    
    39   48   22 1    
    40   49   22 1    
    41   24   23 1    
    42   50   23 1    
    43   25   24 ar   
    44   26   24 ar   
    45   32   25 ar   
    46   27   26 1    
    47   29   26 ar   
    48   28   27 1    
    49   53   28 1    
    50   54   28 1    
    51   55   28 1    
    52   30   29 1    
    53   31   29 ar   
    54   56   30 1    
    55   32   31 ar   
    56   33   32 1    
    57   51   33 1    
    58   52   33 1    
@<TRIPOS>SUBSTRUCTURE
     1 THH401      1 GROUP   
@<TRIPOS>SET

