#    Name: 3el7_PD3_1_INTS_M
#    Modification time : Tue Mar 25 02:04:49 2014

@<TRIPOS>MOLECULE
3el7_PD3_1_INTS_M
   91     0     9     0     0
SMALL
NO_CHARGES


@<TRIPOS>ATOM
      1 CA         22.1470  -10.4735    8.4280 C.3       3 GLC5        0.0000 
      2 CA         22.6960   -8.9030    9.7520 C.3       9 GLL5        0.0000 
      3 CA         21.5980  -12.0440    7.1040 C.3       6 GLP5        0.0000 
      4 CA         25.4545   -6.2235    7.5275 C.3       3 GLC5        0.0000 
      5 CA         23.7800   -7.1830    8.5050 C.3       9 GLL5        0.0000 
      6 CA         27.1290   -5.2640    6.5500 C.3       6 GLP5        0.0000 
      7 CA         24.8635   -5.9675    9.8465 C.3       3 GLC5        0.0000 
      8 CA         25.9470   -4.7520   11.1880 C.3       6 GLP5        0.0000 
      9 N          25.9240   -6.5370    8.8595 N.am      2 SEC2        0.0000 
     10 N          24.9450   -7.8060    8.7410 N.am      8 SEL2        0.0000 
     11 N          26.9030   -5.2680    8.9780 N.am      5 SEP2        0.0000 
     12 CA         19.2520   -9.4645   12.7330 C.3       3 GLC5        0.0000 
     13 CA         21.1820  -10.0410   12.4380 C.3       9 GLL5        0.0000 
     14 CA         17.3220   -8.8880   13.0280 C.3       6 GLP5        0.0000 
     15 CA         23.7090  -10.2220   13.7600 C.3       3 GLC5        0.0000 
     16 CA         21.8820  -11.2720   13.0210 C.3       9 GLL5        0.0000 
     17 CA         25.5360   -9.1720   14.4990 C.3       6 GLP5        0.0000 
     18 CA         23.3405  -12.9255    9.7855 C.3       3 GLC5        0.0000 
     19 CA         21.9840  -11.5420   10.7140 C.3       9 GLL5        0.0000 
     20 CA         24.6970  -14.3090    8.8570 C.3       6 GLP5        0.0000 
     21 CA         25.2855  -10.5660    8.6595 C.3       3 GLC5        0.0000 
     22 CA         24.9830   -8.9210    9.4500 C.3       9 GLL5        0.0000 
     23 CA         25.5880  -12.2110    7.8690 C.3       6 GLP5        0.0000 
     24 CA         24.5230   -8.5440    7.3310 C.3       3 GLC5        0.0000 
     25 CA         24.0630   -8.1670    5.2120 C.3       6 GLP5        0.0000 
     26 CA         23.9820   -7.9360   11.0505 C.3       3 GLC5        0.0000 
     27 CA         22.9810   -6.9510   12.6510 C.3       6 GLP5        0.0000 
     28 O          24.1585   -5.1680    6.8775 O.2       1 ALC1        0.0000 
     29 O          23.7430   -6.0530    7.8040 O.2       7 ALL1        0.0000 
     30 O          24.5740   -4.2830    5.9510 O.2       4 ALP1        0.0000 
     31 CA         21.3935   -5.9270   10.3355 C.3       3 GLC5        0.0000 
     32 CA         20.6350   -6.1460    8.3790 C.3       9 GLL5        0.0000 
     33 CA         22.1520   -5.7080   12.2920 C.3       6 GLP5        0.0000 
     34 CA         19.4460   -4.9710    9.8485 C.3       3 GLC5        0.0000 
     35 CA         18.2570   -3.7960   11.3180 C.3       6 GLP5        0.0000 
     36 CA         18.2705   -4.7690    9.4095 C.3       3 GLC5        0.0000 
     37 CA         18.2840   -5.7420    7.5010 C.3       9 GLL5        0.0000 
     38 CA         16.5205   -8.7160    5.5315 C.3       3 GLC5        0.0000 
     39 CA         17.2830   -7.2540    5.9230 C.3       9 GLL5        0.0000 
     40 CA         15.7580  -10.1780    5.1400 C.3       6 GLP5        0.0000 
     41 CA         16.2465   -4.8135    5.3440 C.3       3 GLC5        0.0000 
     42 CA         17.2030   -6.1110    6.7080 C.3       9 GLL5        0.0000 
     43 CA         15.2900   -3.5160    3.9800 C.3       6 GLP5        0.0000 
     44 O          14.9350   -6.3140    5.6515 O.2       1 ALC1        0.0000 
     45 O          16.0700   -5.4150    6.6320 O.2       7 ALL1        0.0000 
     46 O          13.8000   -7.2130    4.6710 O.2       4 ALP1        0.0000 
     47 CA         15.8435   -2.2595    9.7230 C.3       3 GLC5        0.0000 
     48 CA         14.5650   -1.7560    8.1250 C.3       9 GLL5        0.0000 
     49 CA         17.1220   -2.7630   11.3210 C.3       6 GLP5        0.0000 
     50 CA         15.6410    0.3540   11.7115 C.3       3 GLC5        0.0000 
     51 CA         15.6780    0.1370    9.7750 C.3       9 GLL5        0.0000 
     52 CA         15.6040    0.5710   13.6480 C.3       6 GLP5        0.0000 
     53 CA         16.4000   -1.3130   10.5480 C.3       3 GLC5        0.0000 
     54 CA         14.9375    0.3470    6.3510 C.3       3 GLC5        0.0000 
     55 CA         14.9410    1.4920    8.2590 C.3       9 GLL5        0.0000 
     56 CA         14.9340   -0.7980    4.4430 C.3       6 GLP5        0.0000 
     57 CA         13.5570    2.8550    7.6790 C.3       3 GLC5        0.0000 
     58 CA         12.1730    4.2180    7.0990 C.3       6 GLP5        0.0000 
     59 CA         13.1395    0.3005   11.8030 C.3       3 GLC5        0.0000 
     60 CA         13.7600    1.1110   10.0360 C.3       9 GLL5        0.0000 
     61 CA         12.5190   -0.5100   13.5700 C.3       6 GLP5        0.0000 
     62 CA         14.6820    0.8410   11.8420 C.3       3 GLC5        0.0000 
     63 CA         23.6298   -7.8120    6.9865 C.3       3 GLC5        0.0000 
     64 CA         22.6130   -7.7310    9.0170 C.3       9 GLL5        0.0000 
     65 CA         23.0991   -7.3505   10.7979 C.3       3 GLC5        0.0000 
     66 CA         21.3965   -9.7308   14.7293 C.3       3 GLC5        0.0000 
     67 CA         21.2610   -8.8050   16.7290 C.3       6 GLP5        0.0000 
     68 CA         21.5622  -11.4917    8.9653 C.3       3 GLC5        0.0000 
     69 CA         21.0690  -10.3370   10.9390 C.3       9 GLL5        0.0000 
     70 CA         22.1407   -8.7239   12.2426 C.3       3 GLC5        0.0000 
     71 CA         20.1001   -4.2064    7.5938 C.3       3 GLC5        0.0000 
     72 CA         21.0410   -2.3740    7.4650 C.3       6 GLP5        0.0000 
     73 CA         18.4072   -9.2225    5.0580 C.3       3 GLC5        0.0000 
     74 CA         19.5090   -7.6680    6.7230 C.3       9 GLL5        0.0000 
     75 CA         17.8440  -10.5930    3.7920 C.3       6 GLP5        0.0000 
     76 CA         12.8642   -3.9765    6.1560 C.3       3 GLC5        0.0000 
     77 CA         13.9180   -2.7510    7.4010 C.3       9 GLL5        0.0000 
     78 CA         12.4680   -5.2960    5.1130 C.3       6 GLP5        0.0000 
     79 CA         15.1992   -2.1872    6.2240 C.3       3 GLC5        0.0000 
     80 CA         16.1570   -2.1210    4.6850 C.3       6 GLP5        0.0000 
     81 CA         13.5985   -1.3878    5.7977 C.3       3 GLC5        0.0000 
     82 CA         12.6030   -2.5630    6.9970 C.3       9 GLL5        0.0000 
     83 CA         13.4451   -3.5961    8.6835 C.3       3 GLC5        0.0000 
     84 CA         13.4680   -4.7840    9.9870 C.3       6 GLP5        0.0000 
     85 CA         11.2030    0.4298    6.6108 C.3       3 GLC5        0.0000 
     86 CA         11.9230   -1.3920    7.3080 C.3       9 GLL5        0.0000 
     87 CA         10.1580    1.7540    5.5530 C.3       6 GLP5        0.0000 
     88 CA         14.0825   -0.6433    6.3362 C.3       3 GLC5        0.0000 
     89 CA         12.5730   -0.3970    8.0290 C.3       9 GLL5        0.0000 
     90 CA         16.1309    2.4994    9.5030 C.3       3 GLC5        0.0000 
     91 CA         17.2240    4.0750   10.1450 C.3       6 GLP5        0.0000 
@<TRIPOS>BOND
@<TRIPOS>SUBSTRUCTURE
     1 ALC1       28 GROUP        1 X    ALC  0     ROOT ALC X 1
     2 SEC2        9 GROUP        1 X    SEC  0     **** SEC X 2
     3 GLC5        1 GROUP        1 X    GLC  0     **** GLC X 6
     4 ALP1       30 GROUP        1 Y    ALP  0     ROOT ALP Y 8
     5 SEP2       11 GROUP        1 Y    SEP  0     **** SEP Y 9
     6 GLP5        3 GROUP        1 Y    GLP  0     **** GLP Y 13
     7 ALL1       29 GROUP        1 Z    ALL  0     ROOT ALL Z 15
     8 SEL2       10 GROUP        1 Z    SEL  0     **** SEL Z 16
     9 GLL5        2 GROUP        1 Z    GLL  0     **** GLL Z 20
@<TRIPOS>SET

