#    Name: 3el7_PD3_1_ligand
#    Modification time : Tue Mar 25 02:04:49 2014

@<TRIPOS>MOLECULE
3el7_PD3_1_ligand
   60    64     1     0     0
SMALL
NO_CHARGES


@<TRIPOS>ATOM
      1 C4         22.6960   -8.9030    9.7520 C.ar      1 PD3601      0.0000 
      2 C5         22.6130   -7.7310    9.0170 C.ar      1 PD3601      0.0000 
      3 C6         23.7800   -7.1830    8.5050 C.ar      1 PD3601      0.0000 
      4 N1         24.9450   -7.8060    8.7410 N.ar      1 PD3601      0.0000 
      5 N3         23.8910   -9.4750    9.9530 N.ar      1 PD3601      0.0000 
      6 CAQ        21.1820  -10.0410   12.4380 C.3       1 PD3601      0.0000 
      7 CAO        21.8820  -11.2720   13.0210 C.3       1 PD3601      0.0000 
      8 CAP        21.6280  -12.3470   11.9630 C.3       1 PD3601      0.0000 
      9 CAR        21.9840  -11.5420   10.7140 C.3       1 PD3601      0.0000 
     10 CBH        21.0690  -10.3370   10.9390 C.3       1 PD3601      0.0000 
     11 NBI        21.4460   -9.1770   10.1190 N.pl3     1 PD3601      0.0000 
     12 NAV        20.6420   -8.3410    9.7030 N.2       1 PD3601      0.0000 
     13 C2         24.9830   -8.9210    9.4500 C.ar      1 PD3601      0.0000 
     14 NAA        23.7430   -6.0530    7.8040 N.pl3     1 PD3601      0.0000 
     15 CBE        21.2650   -7.3910    9.0070 C.2       1 PD3601      0.0000 
     16 CAS        20.6350   -6.1460    8.3790 C.3       1 PD3601      0.0000 
     17 CAZ        19.4340   -6.5250    7.5090 C.ar      1 PD3601      0.0000 
     18 CAM        18.2840   -5.7420    7.5010 C.ar      1 PD3601      0.0000 
     19 CAH        19.5090   -7.6680    6.7230 C.ar      1 PD3601      0.0000 
     20 CAF        18.4320   -8.0360    5.9250 C.ar      1 PD3601      0.0000 
     21 CAI        17.2830   -7.2540    5.9230 C.ar      1 PD3601      0.0000 
     22 CBB        17.2030   -6.1110    6.7080 C.ar      1 PD3601      0.0000 
     23 NAW        16.0700   -5.4150    6.6320 N.am      1 PD3601      0.0000 
     24 CAY        15.7620   -4.2740    7.2430 C.2       1 PD3601      0.0000 
     25 OAB        16.5390   -3.6750    7.9830 O.2       1 PD3601      0.0000 
     26 NAX        14.5280   -3.8560    6.9740 N.am      1 PD3601      0.0000 
     27 CBC        13.9180   -2.7510    7.4010 C.ar      1 PD3601      0.0000 
     28 CAN        14.5650   -1.7560    8.1250 C.ar      1 PD3601      0.0000 
     29 CAJ        12.6030   -2.5630    6.9970 C.ar      1 PD3601      0.0000 
     30 CAG        11.9230   -1.3920    7.3080 C.ar      1 PD3601      0.0000 
     31 CAK        12.5730   -0.3970    8.0290 C.ar      1 PD3601      0.0000 
     32 CBD        13.8890   -0.5800    8.4300 C.ar      1 PD3601      0.0000 
     33 CBJ        14.5910    0.5740    9.1510 C.3       1 PD3601      0.0000 
     34 FAD        15.6780    0.1370    9.7750 F         1 PD3601      0.0000 
     35 FAE        14.9410    1.4920    8.2590 F         1 PD3601      0.0000 
     36 FAC        13.7600    1.1110   10.0360 F         1 PD3601      0.0000 
     37 H          21.7855   -9.1800   12.5887 H         1 PD3601      0.0000 
     38 H          20.2113   -9.9472   12.8589 H         1 PD3601      0.0000 
     39 H          21.4213  -11.5480   13.9312 H         1 PD3601      0.0000 
     40 H          22.9193  -11.0879   13.1040 H         1 PD3601      0.0000 
     41 H          20.6170  -12.6003   11.9484 H         1 PD3601      0.0000 
     42 H          22.3015  -13.1330   12.0852 H         1 PD3601      0.0000 
     43 H          21.6876  -12.0592    9.8593 H         1 PD3601      0.0000 
     44 H          22.9817  -11.2436   10.7538 H         1 PD3601      0.0000 
     45 H          20.0580  -10.6520   10.7467 H         1 PD3601      0.0000 
     46 H          25.9240   -9.3904    9.6230 H         1 PD3601      0.0000 
     47 H          23.0458   -5.3895    8.0754 H         1 PD3601      0.0000 
     48 H          24.4157   -5.9690    7.0688 H         1 PD3601      0.0000 
     49 H          21.3767   -5.6394    7.7650 H         1 PD3601      0.0000 
     50 H          20.3075   -5.4726    9.1683 H         1 PD3601      0.0000 
     51 H          18.2340   -4.8949    8.0786 H         1 PD3601      0.0000 
     52 H          20.3623   -8.2429    6.7313 H         1 PD3601      0.0000 
     53 H          18.4848   -8.8777    5.3425 H         1 PD3601      0.0000 
     54 H          16.4806   -7.5260    5.3316 H         1 PD3601      0.0000 
     55 H          15.2871   -5.8393    5.9787 H         1 PD3601      0.0000 
     56 H          13.9314   -4.5087    6.3112 H         1 PD3601      0.0000 
     57 H          15.5342   -1.8885    8.4320 H         1 PD3601      0.0000 
     58 H          12.1230   -3.3040    6.4575 H         1 PD3601      0.0000 
     59 H          10.9520   -1.2628    7.0090 H         1 PD3601      0.0000 
     60 H          12.0785    0.4733    8.2645 H         1 PD3601      0.0000 
@<TRIPOS>BOND
     1    2    1 ar   
     2    5    1 ar   
     3   11    1 1    
     4    3    2 ar   
     5   15    2 1    
     6    4    3 ar   
     7   14    3 1    
     8   13    4 ar   
     9   13    5 ar   
    10    7    6 1    
    11   10    6 1    
    12   37    6 1    
    13   38    6 1    
    14    8    7 1    
    15   39    7 1    
    16   40    7 1    
    17    9    8 1    
    18   41    8 1    
    19   42    8 1    
    20   10    9 1    
    21   43    9 1    
    22   44    9 1    
    23   11   10 1    
    24   45   10 1    
    25   12   11 1    
    26   15   12 2    
    27   46   13 1    
    28   47   14 1    
    29   48   14 1    
    30   16   15 1    
    31   17   16 1    
    32   49   16 1    
    33   50   16 1    
    34   18   17 ar   
    35   19   17 ar   
    36   22   18 ar   
    37   51   18 1    
    38   20   19 ar   
    39   52   19 1    
    40   21   20 ar   
    41   53   20 1    
    42   22   21 ar   
    43   54   21 1    
    44   23   22 1    
    45   24   23 am   
    46   55   23 1    
    47   25   24 2    
    48   26   24 am   
    49   27   26 1    
    50   56   26 1    
    51   28   27 ar   
    52   29   27 ar   
    53   32   28 ar   
    54   57   28 1    
    55   30   29 ar   
    56   58   29 1    
    57   31   30 ar   
    58   59   30 1    
    59   32   31 ar   
    60   60   31 1    
    61   33   32 1    
    62   34   33 1    
    63   35   33 1    
    64   36   33 1    
@<TRIPOS>SUBSTRUCTURE
     1 PD3601      1 GROUP   
@<TRIPOS>SET

