#    Name: 2BT4_7_CAVITY_N1_ALL.mol2
#    Modification time : Tue Mar 11 04:50:17 2014

@<TRIPOS>MOLECULE
2BT4_7_CAVITY_N1_ALL.mol2
   91     0     6     0     0
SMALL
NO_CHARGES


@<TRIPOS>ATOM
      1 N           5.9986   19.4955  -17.5746 N.2       2 ALA2        0.0000 
      2 N           5.6774   20.3594  -18.7581 N.2       2 ALA2        0.0000 
      3 O           5.0240   18.4648  -18.0624 O.2       2 ALA2        0.0000 
      4 O           4.0495   17.4342  -18.5503 O.2       2 ALA2        0.0000 
      5 O           3.7283   18.2980  -19.7338 O.2       2 ALA2        0.0000 
      6 O           3.0750   16.4035  -19.0382 O.2       2 ALA2        0.0000 
      7 O           2.7538   17.2673  -20.2216 O.2       2 ALA2        0.0000 
      8 O           2.4326   18.1312  -21.4051 O.2       2 ALA2        0.0000 
      9 O           2.1115   18.9950  -22.5886 O.2       2 ALA2        0.0000 
     10 O           1.7793   16.2366  -20.7095 O.2       2 ALA2        0.0000 
     11 OG          1.4581   17.1005  -21.8930 O.2       1 SER1        0.0000 
     12 OG          1.1370   17.9643  -23.0764 O.2       1 SER1        0.0000 
     13 CA          0.8158   18.8282  -24.2599 C.3       5 GLY6        0.0000 
     14 CA          0.4946   19.6920  -25.4434 C.3       5 GLY6        0.0000 
     15 CA          0.1734   20.5559  -26.6269 C.3       5 GLY6        0.0000 
     16 OG          0.4836   16.0698  -22.3808 O.2       1 SER1        0.0000 
     17 OG          0.1624   16.9337  -23.5643 O.2       1 SER1        0.0000 
     18 DU         -0.1587   17.7975  -24.7478 H         6 CUB7        0.0000 
     19 N          -0.4799   18.6614  -25.9312 N.2       2 ALA2        0.0000 
     20 N          -0.8011   19.5252  -27.1147 N.2       2 ALA2        0.0000 
     21 DU          6.1182   17.8004  -18.8444 H         6 CUB7        0.0000 
     22 O           5.7970   18.6643  -20.0278 O.2       2 ALA2        0.0000 
     23 NZ          5.1437   16.7697  -19.3322 N.2       3 LYS4        0.0000 
     24 O           4.8225   17.6336  -20.5157 O.2       2 ALA2        0.0000 
     25 O           4.1692   15.7391  -19.8201 O.2       2 ALA2        0.0000 
     26 O           3.8480   16.6029  -21.0035 O.2       2 ALA2        0.0000 
     27 CZ          2.2311   17.2999  -23.8583 C.ar      4 PHE5        0.0000 
     28 CZ          1.9099   18.1638  -25.0418 C.ar      4 PHE5        0.0000 
     29 CA          1.5887   19.0276  -26.2253 C.3       5 GLY6        0.0000 
     30 CA          1.2676   19.8915  -27.4088 C.3       5 GLY6        0.0000 
     31 CZ          0.9354   17.1331  -25.5297 C.ar      4 PHE5        0.0000 
     32 CZ          0.6142   17.9969  -26.7131 C.ar      4 PHE5        0.0000 
     33 CA          0.2931   18.8608  -27.8966 C.3       5 GLY6        0.0000 
     34 CZ         -0.0391   16.1024  -26.0175 C.ar      4 PHE5        0.0000 
     35 CA         -0.3603   16.9662  -27.2010 C.3       5 GLY6        0.0000 
     36 CA         -0.6815   17.8301  -28.3845 C.3       5 GLY6        0.0000 
     37 O           0.2711   11.6163  -21.7715 O.2       2 ALA2        0.0000 
     38 OG         -0.0501   12.4802  -22.9550 O.2       1 SER1        0.0000 
     39 OG         -0.3713   13.3440  -24.1384 O.2       1 SER1        0.0000 
     40 OG         -0.6925   14.2079  -25.3219 O.2       1 SER1        0.0000 
     41 CA         -1.0136   15.0717  -26.5054 C.3       5 GLY6        0.0000 
     42 N          -0.7034   10.5856  -22.2593 N.2       2 ALA2        0.0000 
     43 DU         -1.0246   11.4495  -23.4428 H         6 CUB7        0.0000 
     44 O          -0.1320    9.9538  -26.6780 O.2       2 ALA2        0.0000 
     45 OG         -0.4909   15.0391  -22.8687 O.2       1 SER1        0.0000 
     46 OG         -0.8121   15.9030  -24.0521 O.2       1 SER1        0.0000 
     47 DU         -1.1333   16.7668  -25.2356 H         6 CUB7        0.0000 
     48 N          -1.4544   17.6307  -26.4191 N.2       2 ALA2        0.0000 
     49 O          -1.1442   13.1446  -22.1730 O.2       2 ALA2        0.0000 
     50 NZ         -1.4654   14.0084  -23.3565 N.2       3 LYS4        0.0000 
     51 DU         -1.7866   14.8723  -24.5400 H         6 CUB7        0.0000 
     52 CA         -2.1078   15.7361  -25.7235 C.3       5 GLY6        0.0000 
     53 CA         -2.4290   16.6000  -26.9069 C.3       5 GLY6        0.0000 
     54 N          -1.7976   11.2501  -21.4774 N.2       2 ALA2        0.0000 
     55 CA         -2.1188   12.1139  -22.6609 C.3       5 GLY6        0.0000 
     56 CA         -2.4399   12.9777  -23.8444 C.3       5 GLY6        0.0000 
     57 CA         -2.7611   13.8416  -25.0279 C.3       5 GLY6        0.0000 
     58 CA         -3.0823   14.7054  -26.2113 C.3       5 GLY6        0.0000 
     59 NZ          0.3640   17.7649  -21.1110 N.2       3 LYS4        0.0000 
     60 N           0.0428   18.6288  -22.2945 N.2       2 ALA2        0.0000 
     61 CA         -0.2784   19.4926  -23.4780 C.3       5 GLY6        0.0000 
     62 CA         -0.9317   17.5981  -22.7824 C.3       5 GLY6        0.0000 
     63 CA         -1.2529   18.4619  -23.9658 C.3       5 GLY6        0.0000 
     64 CA         -1.5741   19.3258  -25.1493 C.3       5 GLY6        0.0000 
     65 NZ         -1.9062   16.5674  -23.2702 N.2       3 LYS4        0.0000 
     66 CA         -2.2274   17.4312  -24.4537 C.3       5 GLY6        0.0000 
     67 NZ         -2.8807   15.5367  -23.7581 N.2       3 LYS4        0.0000 
     68 N          -3.2019   16.4006  -24.9416 N.2       2 ALA2        0.0000 
     69 OG          0.8425   10.9845  -26.1901 O.2       1 SER1        0.0000 
     70 CZ          0.5213   11.8483  -27.3736 C.ar      4 PHE5        0.0000 
     71 CA          0.3907    9.9212  -23.0413 C.3       5 GLY6        0.0000 
     72 OG          0.0695   10.7851  -24.2247 O.2       1 SER1        0.0000 
     73 CZ         -0.2516   11.6489  -25.4082 C.ar      4 PHE5        0.0000 
     74 CZ         -0.5728   12.5128  -26.5917 C.ar      4 PHE5        0.0000 
     75 O          -0.9050    9.7544  -24.7126 O.2       2 ALA2        0.0000 
     76 N          -1.2262   10.6182  -25.8961 N.2       2 ALA2        0.0000 
     77 O          -1.5473   11.4821  -27.0795 O.2       2 ALA2        0.0000 
     78 CA         -1.3458   12.3133  -24.6263 C.3       5 GLY6        0.0000 
     79 CA         -1.6670   13.1772  -25.8098 C.3       5 GLY6        0.0000 
     80 O          -1.6780    9.5549  -22.7472 O.2       2 ALA2        0.0000 
     81 O          -1.9991   10.4188  -23.9307 O.2       2 ALA2        0.0000 
     82 CA         -2.3203   11.2826  -25.1141 C.3       5 GLY6        0.0000 
     83 N          -2.6415   12.1465  -26.2976 N.2       2 ALA2        0.0000 
     84 NZ          6.5590   15.2415  -18.9307 N.2       3 LYS4        0.0000 
     85 O           6.2378   16.1053  -20.1141 O.2       2 ALA2        0.0000 
     86 CZ          2.6829   18.3632  -27.0072 C.ar      4 PHE5        0.0000 
     87 CZ          1.7084   17.3325  -27.4951 C.ar      4 PHE5        0.0000 
     88 CA          1.3872   18.1964  -28.6785 C.3       5 GLY6        0.0000 
     89 CA          0.7339   16.3018  -27.9829 C.3       5 GLY6        0.0000 
     90 O           1.0440   11.8157  -23.7369 O.2       2 ALA2        0.0000 
     91 CZ          0.0805   14.4073  -27.2873 C.ar      4 PHE5        0.0000 
@<TRIPOS>BOND
@<TRIPOS>SUBSTRUCTURE
     1 SER1       11 GROUP   
     2 ALA2        1 GROUP   
     3 LYS4       23 GROUP   
     4 PHE5       27 GROUP   
     5 GLY6       13 GROUP   
     6 CUB7       18 GROUP   
@<TRIPOS>SET

