#    Name: 2bt4_CA2_7_INTS_M
#    Modification time : Mon Mar 24 21:39:18 2014

@<TRIPOS>MOLECULE
2bt4_CA2_7_INTS_M
   62     0     9     0     0
SMALL
NO_CHARGES


@<TRIPOS>ATOM
      1 N          -1.9140   10.5535  -28.0470 N.am      2 SEC2        0.0000 
      2 N          -0.7650   10.6450  -27.1950 N.am      8 SEL2        0.0000 
      3 N          -3.0630   10.4620  -28.8990 N.am      5 SEP2        0.0000 
      4 N          -0.0840    9.6440  -28.0075 N.am      2 SEC2        0.0000 
      5 N           0.5970    8.6430  -28.8200 N.am      5 SEP2        0.0000 
      6 N           2.0975    9.9065  -26.7430 N.am      2 SEC2        0.0000 
      7 N           1.0730   10.5070  -25.9530 N.am      8 SEL2        0.0000 
      8 N           3.1220    9.3060  -27.5330 N.am      5 SEP2        0.0000 
      9 N           2.1315   10.2315  -25.2835 N.am      2 SEC2        0.0000 
     10 N           3.1900    9.9560  -24.6140 N.am      5 SEP2        0.0000 
     11 N          -2.3175    8.9540  -24.9960 N.am      2 SEC2        0.0000 
     12 N          -2.2410   10.4760  -25.1470 N.am      8 SEL2        0.0000 
     13 N          -2.3940    7.4320  -24.8450 N.am      5 SEP2        0.0000 
     14 O          -3.3345   10.2665  -26.1770 O.2       1 ALC1        0.0000 
     15 O          -2.2410   10.4760  -25.1470 O.2       7 ALL1        0.0000 
     16 O          -4.4280   10.0570  -27.2070 O.2       4 ALP1        0.0000 
     17 O          -2.5370   14.3230  -21.1055 O.2       1 ALC1        0.0000 
     18 O          -2.2730   13.1720  -21.5470 O.2       7 ALL1        0.0000 
     19 O          -2.8010   15.4740  -20.6640 O.2       4 ALP1        0.0000 
     20 CA         -2.2640   10.5410  -20.6885 C.3       3 GLC5        0.0000 
     21 CA         -1.3750   11.1990  -22.5830 C.3       9 GLL5        0.0000 
     22 CA         -3.1530    9.8830  -18.7940 C.3       6 GLP5        0.0000 
     23 N          -1.5060   10.0945  -20.5005 N.am      2 SEC2        0.0000 
     24 N          -0.7130   10.9070  -21.3160 N.am      8 SEL2        0.0000 
     25 N          -2.2990    9.2820  -19.6850 N.am      5 SEP2        0.0000 
     26 N          -0.5290   12.0565  -20.3055 N.am      2 SEC2        0.0000 
     27 N          -0.3450   13.2060  -19.2950 N.am      5 SEP2        0.0000 
     28 CA          0.5910   14.6940  -24.7640 C.3       3 GLC5        0.0000 
     29 CA         -1.5530   14.7220  -24.2130 C.3       9 GLL5        0.0000 
     30 CA          2.7350   14.6660  -25.3150 C.3       6 GLP5        0.0000 
     31 CA         -0.3675   20.9860  -25.7655 C.3       3 GLC5        0.0000 
     32 CA          0.2060   19.7950  -27.5090 C.3       9 GLL5        0.0000 
     33 CA         -0.9410   22.1770  -24.0220 C.3       6 GLP5        0.0000 
     34 CA          0.6360   12.7920  -25.6980 C.3       3 GLC5        0.0000 
     35 CA         -1.2470   12.5980  -25.2080 C.3       9 GLL5        0.0000 
     36 CA          2.4080   13.7150  -26.2730 C.3       6 GLP5        0.0000 
     37 CA         -3.1625   11.8385  -24.6455 C.3       3 GLC5        0.0000 
     38 CA         -5.1890   11.8080  -24.1680 C.3       6 GLP5        0.0000 
     39 CA         -3.3644   11.9465  -23.5718 C.3       3 GLC5        0.0000 
     40 CA         -1.9350   13.2330  -24.0460 C.3       9 GLL5        0.0000 
     41 CA          0.0905    9.2263  -22.7267 C.3       3 GLC5        0.0000 
     42 CA          1.1030    7.4780  -22.3220 C.3       6 GLP5        0.0000 
     43 CA         -3.7992   14.1320  -24.7030 C.3       3 GLC5        0.0000 
     44 CA         -5.5950   13.2010  -24.6760 C.3       6 GLP5        0.0000 
     45 CA         -3.3025   17.5673  -25.0143 C.3       3 GLC5        0.0000 
     46 CA         -2.4540   15.4040  -25.2470 C.3       9 GLL5        0.0000 
     47 CA         -4.4590   19.0460  -24.6630 C.3       6 GLP5        0.0000 
     48 CA         -2.5175   15.3272  -27.1758 C.3       3 GLC5        0.0000 
     49 CA         -1.8380   16.7730  -25.4840 C.3       9 GLL5        0.0000 
     50 CA         -2.8890   14.5660  -28.9860 C.3       6 GLP5        0.0000 
     51 CA         -1.1595   20.9032  -28.0422 C.3       3 GLC5        0.0000 
     52 CA         -0.5720   18.7720  -26.9460 C.3       9 GLL5        0.0000 
     53 CA         -2.1360   22.5230  -28.8570 C.3       6 GLP5        0.0000 
     54 CA          0.2267   19.2885  -29.6167 C.3       3 GLC5        0.0000 
     55 CA         -0.3680   18.9190  -31.4390 C.3       6 GLP5        0.0000 
     56 CA          0.9808   16.9593  -29.3911 C.3       3 GLC5        0.0000 
     57 CA          1.9240   18.2350  -28.0720 C.3       9 GLL5        0.0000 
     58 CA          0.7350   16.1160  -31.1130 C.3       6 GLP5        0.0000 
     59 CA          2.5489   20.3717  -27.2926 C.3       3 GLC5        0.0000 
     60 CA          3.7250   21.7970  -26.6520 C.3       6 GLP5        0.0000 
     61 CA          2.8243   16.4245  -28.5955 C.3       3 GLC5        0.0000 
     62 CA          4.1120   15.1180  -29.3800 C.3       6 GLP5        0.0000 
@<TRIPOS>BOND
@<TRIPOS>SUBSTRUCTURE
     1 ALC1       14 GROUP        1 X    ALC  0     ROOT ALC X 1
     2 SEC2        1 GROUP        1 X    SEC  0     **** SEC X 2
     3 GLC5       20 GROUP        1 X    GLC  0     **** GLC X 6
     4 ALP1       16 GROUP        1 Y    ALP  0     ROOT ALP Y 8
     5 SEP2        3 GROUP        1 Y    SEP  0     **** SEP Y 9
     6 GLP5       22 GROUP        1 Y    GLP  0     **** GLP Y 13
     7 ALL1       15 GROUP        1 Z    ALL  0     ROOT ALL Z 15
     8 SEL2        2 GROUP        1 Z    SEL  0     **** SEL Z 16
     9 GLL5       21 GROUP        1 Z    GLL  0     **** GLL Z 20
@<TRIPOS>SET

