#    Name: 2bt4_CA2_7_ligand
#    Modification time : Mon Mar 24 21:39:18 2014

@<TRIPOS>MOLECULE
2bt4_CA2_7_ligand
   43    44     1     0     0
SMALL
NO_CHARGES


@<TRIPOS>ATOM
      1 O2         -0.7650   10.6450  -27.1950 O.co2     1 CA21360     0.0000 
      2 C7         -0.1450   10.7700  -26.1460 C.2       1 CA21360     0.0000 
      3 O1          1.0730   10.5070  -25.9530 O.co2     1 CA21360     0.0000 
      4 C1         -1.0250   11.1400  -25.0380 C.3       1 CA21360     0.0000 
      5 O3         -2.2410   10.4760  -25.1470 O.3       1 CA21360     0.0000 
      6 C2         -1.2470   12.5980  -25.2080 C.3       1 CA21360     0.0000 
      7 C3         -1.9350   13.2330  -24.0460 C.3       1 CA21360     0.0000 
      8 C4         -1.4740   12.7090  -22.6900 C.3       1 CA21360     0.0000 
      9 O4         -2.2730   13.1720  -21.5470 O.3       1 CA21360     0.0000 
     10 C5         -1.3750   11.1990  -22.5830 C.3       1 CA21360     0.0000 
     11 O5         -0.7130   10.9070  -21.3160 O.3       1 CA21360     0.0000 
     12 C6         -0.4690   10.7500  -23.6800 C.3       1 CA21360     0.0000 
     13 C8         -1.5530   14.7220  -24.2130 C.3       1 CA21360     0.0000 
     14 C9         -2.4540   15.4040  -25.2470 C.3       1 CA21360     0.0000 
     15 C10        -1.8380   16.7730  -25.4840 C.3       1 CA21360     0.0000 
     16 O11        -0.8530   16.5050  -26.4490 O.3       1 CA21360     0.0000 
     17 C12        -0.0910   17.5130  -26.9830 C.ar      1 CA21360     0.0000 
     18 C17        -0.5720   18.7720  -26.9460 C.ar      1 CA21360     0.0000 
     19 C16         0.2060   19.7950  -27.5090 C.ar      1 CA21360     0.0000 
     20 C15         1.4370   19.5210  -28.0800 C.ar      1 CA21360     0.0000 
     21 C14         1.9240   18.2350  -28.0720 C.ar      1 CA21360     0.0000 
     22 C13         1.1490   17.2270  -27.5500 C.ar      1 CA21360     0.0000 
     23 H          -1.8446   12.7753  -26.1248 H         1 CA21360     0.0000 
     24 H          -0.2736   13.1022  -25.3732 H         1 CA21360     0.0000 
     25 H          -2.9852   13.1578  -24.1570 H         1 CA21360     0.0000 
     26 H          -0.4250   13.0903  -22.5259 H         1 CA21360     0.0000 
     27 H          -2.3093   10.7670  -22.6582 H         1 CA21360     0.0000 
     28 H           0.5191   11.2043  -23.5578 H         1 CA21360     0.0000 
     29 H          -0.3501    9.6626  -23.6447 H         1 CA21360     0.0000 
     30 H          -0.5179   14.7852  -24.5371 H         1 CA21360     0.0000 
     31 H          -1.6595   15.2219  -23.2542 H         1 CA21360     0.0000 
     32 H          -3.4377   15.5113  -24.8465 H         1 CA21360     0.0000 
     33 H          -2.4470   14.8393  -26.1530 H         1 CA21360     0.0000 
     34 H          -1.4293   17.1209  -24.5556 H         1 CA21360     0.0000 
     35 H          -2.6073   17.4280  -25.8433 H         1 CA21360     0.0000 
     36 H          -1.4739   19.0010  -26.5261 H         1 CA21360     0.0000 
     37 H          -0.1524   20.7647  -27.4931 H         1 CA21360     0.0000 
     38 H           1.9841   20.2820  -28.5091 H         1 CA21360     0.0000 
     39 H           2.8571   18.0302  -28.4522 H         1 CA21360     0.0000 
     40 H           1.4807   16.2487  -27.5743 H         1 CA21360     0.0000 
     41 H          -2.5525   10.6582  -26.0796 H         1 CA21360     0.0000 
     42 H          -2.2197   14.1700  -21.5814 H         1 CA21360     0.0000 
     43 H           0.2338   10.6983  -21.5609 H         1 CA21360     0.0000 
@<TRIPOS>BOND
     1    2    1 ar   
     2    3    2 ar   
     3    4    2 1    
     4    5    4 1    
     5    6    4 1    
     6   12    4 1    
     7   41    5 1    
     8    7    6 1    
     9   23    6 1    
    10   24    6 1    
    11    8    7 1    
    12   13    7 1    
    13   25    7 1    
    14    9    8 1    
    15   10    8 1    
    16   26    8 1    
    17   42    9 1    
    18   11   10 1    
    19   12   10 1    
    20   27   10 1    
    21   43   11 1    
    22   28   12 1    
    23   29   12 1    
    24   14   13 1    
    25   30   13 1    
    26   31   13 1    
    27   15   14 1    
    28   32   14 1    
    29   33   14 1    
    30   16   15 1    
    31   34   15 1    
    32   35   15 1    
    33   17   16 1    
    34   18   17 ar   
    35   22   17 ar   
    36   19   18 ar   
    37   36   18 1    
    38   20   19 ar   
    39   37   19 1    
    40   21   20 ar   
    41   38   20 1    
    42   22   21 ar   
    43   39   21 1    
    44   40   22 1    
@<TRIPOS>SUBSTRUCTURE
     1 CA21360     1 GROUP   
@<TRIPOS>SET

