#    Name: 4ael_4HN_1_INTS_M
#    Modification time : Tue Mar 25 05:31:12 2014

@<TRIPOS>MOLECULE
4ael_4HN_1_INTS_M
   61     0     6     0     0
SMALL
NO_CHARGES


@<TRIPOS>ATOM
      1 CA         21.3230   14.3750   41.3340 C.3       2 GLC5        0.0000 
      2 CA         22.7220   15.3450   40.6380 C.3       6 GLL5        0.0000 
      3 CA         19.9240   13.4050   42.0300 C.3       4 GLP5        0.0000 
      4 CA         24.1520   14.8475   39.1970 C.3       2 GLC5        0.0000 
      5 CA         25.5820   14.3500   37.7560 C.3       4 GLP5        0.0000 
      6 CA         18.4090   15.9520   35.6310 C.3       2 GLC5        0.0000 
      7 CA         20.0180   15.9820   36.6550 C.3       6 GLL5        0.0000 
      8 CA         16.8000   15.9220   34.6070 C.3       4 GLP5        0.0000 
      9 CA         19.3800   15.2570   39.3650 C.3       2 GLC5        0.0000 
     10 CA         20.0930   16.5930   37.8900 C.3       6 GLL5        0.0000 
     11 CA         18.6670   13.9210   40.8400 C.3       4 GLP5        0.0000 
     12 CA         24.0250   17.5035   37.6690 C.3       2 GLC5        0.0000 
     13 CA         22.4300   16.2610   37.8800 C.3       6 GLL5        0.0000 
     14 CA         25.6200   18.7460   37.4580 C.3       4 GLP5        0.0000 
     15 CA         19.9875   19.8590   44.8340 C.3       2 GLC5        0.0000 
     16 CA         20.4770   20.8010   42.8720 C.3       6 GLL5        0.0000 
     17 CA         19.4980   18.9170   46.7960 C.3       4 GLP5        0.0000 
     18 CA         21.7210   22.0060   43.8820 C.3       2 GLC5        0.0000 
     19 CA         22.9650   23.2110   44.8920 C.3       4 GLP5        0.0000 
     20 CA         20.6035   18.9845   45.1985 C.3       2 GLC5        0.0000 
     21 CA         21.7090   19.0520   43.6010 C.3       6 GLL5        0.0000 
     22 CA         19.7520   18.3335   43.1170 C.3       2 GLC5        0.0000 
     23 CA         17.7950   17.6150   42.6330 C.3       4 GLP5        0.0000 
     24 CA         19.3890   12.9890   39.2015 C.3       2 GLC5        0.0000 
     25 CA         20.1110   12.0570   37.5630 C.3       6 GLL5        0.0000 
     26 CA         20.7375    9.8875   36.2155 C.3       2 GLC5        0.0000 
     27 CA         20.1120   11.9400   36.0520 C.3       6 GLL5        0.0000 
     28 CA         21.3630    7.8350   36.3790 C.3       4 GLP5        0.0000 
     29 N          20.7655   19.1575   39.0080 N.am      1 SEC2        0.0000 
     30 N          20.8330   18.4780   40.1020 N.am      5 SEL2        0.0000 
     31 N          20.6980   19.8370   37.9140 N.am      3 SEP2        0.0000 
     32 CA         20.0618   15.0222   32.1818 C.3       2 GLC5        0.0000 
     33 CA         21.9600   14.6330   32.4610 C.3       6 GLL5        0.0000 
     34 CA         18.5360   15.9830   32.0080 C.3       4 GLP5        0.0000 
     35 CA         21.4458   11.2578   32.5705 C.3       2 GLC5        0.0000 
     36 CA         21.2150   13.4900   32.2500 C.3       6 GLL5        0.0000 
     37 CA         22.0730    9.2680   32.3800 C.3       4 GLP5        0.0000 
     38 CA         23.4211   14.7149   31.8336 C.3       2 GLC5        0.0000 
     39 CA         25.0950   14.7610   30.6470 C.3       4 GLP5        0.0000 
     40 CA         20.0250   15.5107   33.1075 C.3       2 GLC5        0.0000 
     41 CA         21.9070   15.2760   33.6850 C.3       6 GLL5        0.0000 
     42 CA         23.9875   15.1525   37.5117 C.3       2 GLC5        0.0000 
     43 CA         22.3560   15.6490   36.6550 C.3       6 GLL5        0.0000 
     44 CA         19.4712   14.6532   32.9483 C.3       2 GLC5        0.0000 
     45 CA         20.3910   13.6420   34.5050 C.3       6 GLL5        0.0000 
     46 CA         19.1043   19.0737   42.4360 C.3       2 GLC5        0.0000 
     47 CA         20.3500   20.2640   41.6060 C.3       6 GLL5        0.0000 
     48 CA         19.8860   17.6238   41.8303 C.3       2 GLC5        0.0000 
     49 CA         20.9250   19.0410   41.3220 C.3       6 GLL5        0.0000 
     50 CA         18.5050   16.5090   41.8170 C.3       4 GLP5        0.0000 
     51 CA         20.0239   16.6791   40.6384 C.3       2 GLC5        0.0000 
     52 CA         22.1170   16.6280   40.8820 C.3       6 GLL5        0.0000 
     53 CA         21.4806   21.4134   40.8997 C.3       2 GLC5        0.0000 
     54 CA         22.2920   23.0400   40.0190 C.3       4 GLP5        0.0000 
     55 CA         23.1245   18.9648   41.6723 C.3       2 GLC5        0.0000 
     56 CA         24.9570   19.0370   41.1920 C.3       4 GLP5        0.0000 
     57 CA         23.4419   17.8399   40.7567 C.3       2 GLC5        0.0000 
     58 CA         18.1833   12.6977   37.1328 C.3       2 GLC5        0.0000 
     59 CA         16.2550   13.3970   37.4580 C.3       4 GLP5        0.0000 
     60 CA         21.8687   11.6472   36.6868 C.3       2 GLC5        0.0000 
     61 CA         23.6260   11.2960   36.5660 C.3       4 GLP5        0.0000 
@<TRIPOS>BOND
@<TRIPOS>SUBSTRUCTURE
     1 SEC2       29 GROUP        1 X    SEC  0     ROOT SEC X 2
     2 GLC5        1 GROUP        1 X    GLC  0     **** GLC X 6
     3 SEP2       31 GROUP        1 Y    SEP  0     ROOT SEP Y 9
     4 GLP5        3 GROUP        1 Y    GLP  0     **** GLP Y 13
     5 SEL2       30 GROUP        1 Z    SEL  0     ROOT SEL Z 16
     6 GLL5        2 GROUP        1 Z    GLL  0     **** GLL Z 20
@<TRIPOS>SET

