#    Name: 4ael_4HN_1_ligand
#    Modification time : Tue Mar 25 05:31:12 2014

@<TRIPOS>MOLECULE
4ael_4HN_1_ligand
   44    47     1     0     0
SMALL
NO_CHARGES


@<TRIPOS>ATOM
      1 C1         22.7220   15.3450   40.6380 C.1       1 4HN1769     0.0000 
      2 C2         21.9600   14.6330   32.4610 C.ar      1 4HN1769     0.0000 
      3 C3         21.2150   13.4900   32.2500 C.ar      1 4HN1769     0.0000 
      4 C4         21.9070   15.2760   33.6850 C.ar      1 4HN1769     0.0000 
      5 C5         20.0180   15.9820   36.6550 C.ar      1 4HN1769     0.0000 
      6 C6         22.3560   15.6490   36.6550 C.ar      1 4HN1769     0.0000 
      7 C7         20.0930   16.5930   37.8900 C.ar      1 4HN1769     0.0000 
      8 C8         22.4300   16.2610   37.8800 C.ar      1 4HN1769     0.0000 
      9 C9         20.4220   13.0050   33.2720 C.ar      1 4HN1769     0.0000 
     10 C10        20.3500   20.2640   41.6060 C.ar      1 4HN1769     0.0000 
     11 C11        20.4770   20.8010   42.8720 C.ar      1 4HN1769     0.0000 
     12 C12        21.7090   19.0520   43.6010 C.ar      1 4HN1769     0.0000 
     13 C13        22.1170   16.6280   40.8820 C.ar      1 4HN1769     0.0000 
     14 C14        21.6090   18.4360   42.3650 C.ar      1 4HN1769     0.0000 
     15 C15        21.1440   15.4870   36.0220 C.ar      1 4HN1769     0.0000 
     16 C16        21.3100   16.7350   38.5370 C.ar      1 4HN1769     0.0000 
     17 C17        21.1210   14.8010   34.7290 C.ar      1 4HN1769     0.0000 
     18 C18        20.9250   19.0410   41.3220 C.ar      1 4HN1769     0.0000 
     19 C19        20.3910   13.6420   34.5050 C.ar      1 4HN1769     0.0000 
     20 C20        22.1880   17.2100   42.1330 C.ar      1 4HN1769     0.0000 
     21 C21        21.4340   17.2990   39.8830 C.ar      1 4HN1769     0.0000 
     22 C22        20.1110   12.0570   37.5630 C.3       1 4HN1769     0.0000 
     23 C23        20.1120   11.9400   36.0520 C.3       1 4HN1769     0.0000 
     24 N24        23.2020   14.3090   40.4230 N.1       1 4HN1769     0.0000 
     25 N25        21.1500   20.2340   43.8830 N.ar      1 4HN1769     0.0000 
     26 N26        20.8330   18.4780   40.1020 N.ar      1 4HN1769     0.0000 
     27 O27        22.8500   16.5950   43.1800 O.co2     1 4HN1769     0.0000 
     28 O28        19.5650   13.1340   35.5040 O.3       1 4HN1769     0.0000 
     29 H          22.5557   15.0082   31.7081 H         1 4HN1769     0.0000 
     30 H          21.2495   13.0067   31.3460 H         1 4HN1769     0.0000 
     31 H          22.4706   16.1403   33.8314 H         1 4HN1769     0.0000 
     32 H          19.0913   15.8905   36.1866 H         1 4HN1769     0.0000 
     33 H          23.2221   15.3031   36.1978 H         1 4HN1769     0.0000 
     34 H          19.2312   16.9503   38.3405 H         1 4HN1769     0.0000 
     35 H          23.3664   16.3756   38.3380 H         1 4HN1769     0.0000 
     36 H          19.8452   12.1600   33.1201 H         1 4HN1769     0.0000 
     37 H          19.8297   20.7725   40.8783 H         1 4HN1769     0.0000 
     38 H          19.9946   21.7439   43.0430 H         1 4HN1769     0.0000 
     39 H          22.2626   18.5437   44.3515 H         1 4HN1769     0.0000 
     40 H          19.5229   11.0603   35.7793 H         1 4HN1769     0.0000 
     41 H          21.1424   11.7773   35.7248 H         1 4HN1769     0.0000 
     42 H          20.4894   11.2404   37.9990 H         1 4HN1769     0.0000 
     43 H          20.6557   12.8352   37.8756 H         1 4HN1769     0.0000 
     44 H          19.1873   12.1814   37.9253 H         1 4HN1769     0.0000 
@<TRIPOS>BOND
     1   13    1 1    
     2   24    1 3    
     3    3    2 ar   
     4    4    2 ar   
     5   29    2 1    
     6    9    3 ar   
     7   30    3 1    
     8   17    4 ar   
     9   31    4 1    
    10    7    5 ar   
    11   15    5 ar   
    12   32    5 1    
    13    8    6 ar   
    14   15    6 ar   
    15   33    6 1    
    16   16    7 ar   
    17   34    7 1    
    18   16    8 ar   
    19   35    8 1    
    20   19    9 ar   
    21   36    9 1    
    22   11   10 ar   
    23   18   10 ar   
    24   37   10 1    
    25   25   11 ar   
    26   38   11 1    
    27   14   12 ar   
    28   25   12 ar   
    29   39   12 1    
    30   20   13 ar   
    31   21   13 ar   
    32   18   14 ar   
    33   20   14 ar   
    34   17   15 1    
    35   21   16 1    
    36   19   17 ar   
    37   26   18 ar   
    38   28   19 1    
    39   27   20 ar   
    40   26   21 ar   
    41   23   22 1    
    42   42   22 1    
    43   43   22 1    
    44   44   22 1    
    45   28   23 1    
    46   40   23 1    
    47   41   23 1    
@<TRIPOS>SUBSTRUCTURE
     1 4HN1769     1 GROUP   
@<TRIPOS>SET

