#    Name: 1hwl_FBI_4_INTS_M
#    Modification time : Tue Mar 25 06:25:25 2014

@<TRIPOS>MOLECULE
1hwl_FBI_4_INTS_M
   84     0    12     0     0
SMALL
NO_CHARGES


@<TRIPOS>ATOM
      1 N         -14.1565  -33.9365   19.7365 N.am      2 SEC2        0.0000 
      2 N         -14.9200  -32.9440   20.2760 N.am     10 SEL2        0.0000 
      3 N         -13.3930  -34.9290   19.1970 N.am      6 SEP2        0.0000 
      4 CA        -17.3790  -30.3680   19.9120 C.3       4 GLC5        0.0000 
      5 CA        -17.3620  -30.2190   21.8980 C.3      12 GLL5        0.0000 
      6 CA        -17.3960  -30.5170   17.9260 C.3       8 GLP5        0.0000 
      7 CA        -15.2220  -34.4480   24.1355 C.3       4 GLC5        0.0000 
      8 CA        -15.8790  -33.6950   22.7060 C.3      12 GLL5        0.0000 
      9 CA        -14.5650  -35.2010   25.5650 C.3       8 GLP5        0.0000 
     10 CA        -14.5570  -34.7410   21.5100 C.3       4 GLC5        0.0000 
     11 CA        -13.2350  -35.7870   20.3140 C.3       8 GLP5        0.0000 
     12 CA        -13.7935  -29.8925   20.6845 C.3       4 GLC5        0.0000 
     13 CA        -14.7950  -30.3660   22.2420 C.3      12 GLL5        0.0000 
     14 CA        -12.7920  -29.4190   19.1270 C.3       8 GLP5        0.0000 
     15 CA        -14.7125  -23.5990   24.9480 C.3       4 GLC5        0.0000 
     16 CA        -14.3930  -24.8620   23.1190 C.3      12 GLL5        0.0000 
     17 CA        -15.0320  -22.3360   26.7770 C.3       8 GLP5        0.0000 
     18 CA        -12.4755  -21.6005   22.7370 C.3       4 GLC5        0.0000 
     19 CA        -13.4280  -22.8990   22.1630 C.3      12 GLL5        0.0000 
     20 CA        -11.5230  -20.3020   23.3110 C.3       8 GLP5        0.0000 
     21 NZ         -8.9730  -23.5335   18.3480 N.4       3 LYC4        0.0000 
     22 NZ         -8.1780  -23.5730   19.8490 N.4      11 LYL4        0.0000 
     23 NZ         -9.7680  -23.4940   16.8470 N.4       7 LYP4        0.0000 
     24 NZ         -6.8745  -23.8605   19.0230 N.4       3 LYC4        0.0000 
     25 NZ         -5.5710  -24.1480   18.1970 N.4       7 LYP4        0.0000 
     26 N          -9.0585  -22.6460   19.5895 N.am      2 SEC2        0.0000 
     27 N          -8.1780  -23.5730   19.8490 N.am     10 SEL2        0.0000 
     28 N          -9.9390  -21.7190   19.3300 N.am      6 SEP2        0.0000 
     29 NZ         -9.6955  -24.3195   17.9660 N.4       3 LYC4        0.0000 
     30 NZ         -9.6230  -25.1450   19.0850 N.4      11 LYL4        0.0000 
     31 N          -9.6955  -24.3195   17.9660 N.am      2 SEC2        0.0000 
     32 N          -9.6230  -25.1450   19.0850 N.am     10 SEL2        0.0000 
     33 N          -9.7680  -23.4940   16.8470 N.am      6 SEP2        0.0000 
     34 N          -9.2975  -23.9755   22.7525 N.am      2 SEC2        0.0000 
     35 N          -8.7810  -25.4050   22.5980 N.am     10 SEL2        0.0000 
     36 N          -9.8140  -22.5460   22.9070 N.am      6 SEP2        0.0000 
     37 N          -9.9130  -24.5905   23.5055 N.am      2 SEC2        0.0000 
     38 N         -11.0450  -23.7760   24.4130 N.am      6 SEP2        0.0000 
     39 O          -7.5695  -25.3170   23.3680 O.2       1 ALC1        0.0000 
     40 O          -8.7810  -25.4050   22.5980 O.2       9 ALL1        0.0000 
     41 O          -6.3580  -25.2290   24.1380 O.2       5 ALP1        0.0000 
     42 CA         -7.1435  -27.7790   19.8290 C.3       4 GLC5        0.0000 
     43 CA         -7.8240  -25.8960   20.4710 C.3      12 GLL5        0.0000 
     44 CA         -6.4630  -29.6620   19.1870 C.3       8 GLP5        0.0000 
     45 CA         -6.7670  -24.5150   21.8140 C.3       4 GLC5        0.0000 
     46 CA         -5.7100  -23.1340   23.1570 C.3       8 GLP5        0.0000 
     47 CA         -7.1790  -28.6465   20.7605 C.3       4 GLC5        0.0000 
     48 CA         -7.8950  -27.6310   22.3340 C.3      12 GLL5        0.0000 
     49 CA         -5.9395  -27.8605   23.0250 C.3       4 GLC5        0.0000 
     50 CA         -3.9840  -28.0900   23.7160 C.3       8 GLP5        0.0000 
     51 CA        -10.1430  -29.0110   20.8120 C.3       4 GLC5        0.0000 
     52 CA         -9.9210  -28.9460   23.0300 C.3      12 GLL5        0.0000 
     53 CA        -10.3650  -29.0760   18.5940 C.3       8 GLP5        0.0000 
     54 CA        -10.3495  -32.7280   25.9505 C.3       4 GLC5        0.0000 
     55 CA        -11.9180  -32.7330   24.4480 C.3      12 GLL5        0.0000 
     56 CA         -8.7810  -32.7230   27.4530 C.3       8 GLP5        0.0000 
     57 CA        -13.2415  -33.9670   25.0065 C.3       4 GLC5        0.0000 
     58 CA        -11.1165  -34.5075   24.1275 C.3       4 GLC5        0.0000 
     59 CA        -10.3150  -36.2820   23.8070 C.3       8 GLP5        0.0000 
     60 CA         -9.5560  -33.8740   22.1230 C.3       4 GLC5        0.0000 
     61 CA        -11.1130  -32.5560   22.0960 C.3      12 GLL5        0.0000 
     62 CA         -7.9990  -35.1920   22.1500 C.3       8 GLP5        0.0000 
     63 CA        -12.1740  -34.1715   21.2050 C.3       4 GLC5        0.0000 
     64 N          -7.2180  -30.1795   23.3690 N.am      2 SEC2        0.0000 
     65 N          -7.8530  -29.1770   24.1780 N.am     10 SEL2        0.0000 
     66 N          -6.5830  -31.1820   22.5600 N.am      6 SEP2        0.0000 
     67 N          -6.6365  -29.2655   24.7780 N.am      2 SEC2        0.0000 
     68 N          -5.4200  -29.3540   25.3780 N.am      6 SEP2        0.0000 
     69 O          -8.4080  -30.0200   25.0795 O.2       1 ALC1        0.0000 
     70 O          -7.8530  -29.1770   24.1780 O.2       9 ALL1        0.0000 
     71 O          -8.9630  -30.8630   25.9810 O.2       5 ALP1        0.0000 
     72 CA        -12.8082  -29.5938   21.0001 C.3       4 GLC5        0.0000 
     73 CA        -12.4520  -29.2470   22.9830 C.3      12 GLL5        0.0000 
     74 CA        -12.9378  -28.0778   20.6085 C.3       4 GLC5        0.0000 
     75 CA        -13.5520  -27.0590   22.5130 C.3      12 GLL5        0.0000 
     76 CA        -13.8970  -25.1049   20.1571 C.3       4 GLC5        0.0000 
     77 CA        -13.4630  -24.2590   22.2790 C.3      12 GLL5        0.0000 
     78 CA        -14.7650  -25.2190   18.3690 C.3       8 GLP5        0.0000 
     79 CA        -14.7617  -22.1605   22.2380 C.3       4 GLC5        0.0000 
     80 CA        -16.0780  -20.7420   22.2550 C.3       8 GLP5        0.0000 
     81 CA        -12.2832  -22.8365   20.8161 C.3       4 GLC5        0.0000 
     82 CA        -11.3430  -21.9010   19.5920 C.3       8 GLP5        0.0000 
     83 CA         -9.2927  -27.6255   19.8290 C.3       4 GLC5        0.0000 
     84 CA         -8.6170  -26.4540   21.6570 C.3      12 GLL5        0.0000 
@<TRIPOS>BOND
@<TRIPOS>SUBSTRUCTURE
     1 ALC1       39 GROUP        1 X    ALC  0     ROOT ALC X 1
     2 SEC2        1 GROUP        1 X    SEC  0     **** SEC X 2
     3 LYC4       21 GROUP        1 X    LYC  0     **** LYC X 4
     4 GLC5        4 GROUP        1 X    GLC  0     **** GLC X 6
     5 ALP1       41 GROUP        1 Y    ALP  0     ROOT ALP Y 8
     6 SEP2        3 GROUP        1 Y    SEP  0     **** SEP Y 9
     7 LYP4       23 GROUP        1 Y    LYP  0     **** LYP Y 11
     8 GLP5        6 GROUP        1 Y    GLP  0     **** GLP Y 13
     9 ALL1       40 GROUP        1 Z    ALL  0     ROOT ALL Z 15
    10 SEL2        2 GROUP        1 Z    SEL  0     **** SEL Z 16
    11 LYL4       22 GROUP        1 Z    LYL  0     **** LYL Z 18
    12 GLL5        5 GROUP        1 Z    GLL  0     **** GLL Z 20
@<TRIPOS>SET

