#    Name: 1hwl_FBI_4_ligand
#    Modification time : Tue Mar 25 06:25:25 2014

@<TRIPOS>MOLECULE
1hwl_FBI_4_ligand
   62    63     1     0     0
SMALL
NO_CHARGES


@<TRIPOS>ATOM
      1 O1S       -14.9200  -32.9440   20.2760 O.2       1 FBI3        0.0000 
      2 O2S       -17.4760  -32.9330   20.6250 O.2       1 FBI3        0.0000 
      3 N3        -16.0600  -30.9470   21.8500 N.pl3     1 FBI3        0.0000 
      4 C12       -17.3620  -30.2190   21.8980 C.3       1 FBI3        0.0000 
      5 S1        -16.0780  -32.6030   21.3140 S.o2      1 FBI3        0.0000 
      6 C13       -15.8790  -33.6950   22.7060 C.3       1 FBI3        0.0000 
      7 C8        -13.5740  -28.4470   22.5780 C.ar      1 FBI3        0.0000 
      8 C10       -12.4520  -29.2470   22.9830 C.ar      1 FBI3        0.0000 
      9 C9        -12.6360  -30.6900   22.9660 C.ar      1 FBI3        0.0000 
     10 N2        -13.8130  -31.1840   22.5890 N.ar      1 FBI3        0.0000 
     11 C11       -14.7950  -30.3660   22.2420 C.ar      1 FBI3        0.0000 
     12 N1        -14.7150  -29.0600   22.2200 N.ar      1 FBI3        0.0000 
     13 C83       -14.3930  -24.8620   23.1190 C.ar      1 FBI3        0.0000 
     14 C82       -14.4390  -26.2500   23.2360 C.ar      1 FBI3        0.0000 
     15 C81       -13.5520  -27.0590   22.5130 C.ar      1 FBI3        0.0000 
     16 C86       -12.6150  -26.4140   21.6670 C.ar      1 FBI3        0.0000 
     17 C85       -12.5750  -25.0310   21.5560 C.ar      1 FBI3        0.0000 
     18 C84       -13.4630  -24.2590   22.2790 C.ar      1 FBI3        0.0000 
     19 F1        -13.4280  -22.8990   22.1630 F         1 FBI3        0.0000 
     20 O1B        -8.1780  -23.5730   19.8490 O.co2     1 FBI3        0.0000 
     21 O1A        -9.6230  -25.1450   19.0850 O.co2     1 FBI3        0.0000 
     22 O3         -8.7810  -25.4050   22.5980 O.3       1 FBI3        0.0000 
     23 C1         -8.5350  -24.7400   19.7780 C.2       1 FBI3        0.0000 
     24 C2         -7.8240  -25.8960   20.4710 C.3       1 FBI3        0.0000 
     25 C3         -8.6170  -26.4540   21.6570 C.3       1 FBI3        0.0000 
     26 C4         -7.8950  -27.6310   22.3340 C.3       1 FBI3        0.0000 
     27 C5         -8.6850  -28.2510   23.5070 C.3       1 FBI3        0.0000 
     28 C6         -9.9210  -28.9460   23.0300 C.3       1 FBI3        0.0000 
     29 C7        -11.1380  -28.5800   23.4050 C.3       1 FBI3        0.0000 
     30 C91       -11.5300  -31.7410   23.3370 C.3       1 FBI3        0.0000 
     31 C92       -11.9180  -32.7330   24.4480 C.3       1 FBI3        0.0000 
     32 C93       -11.1130  -32.5560   22.0960 C.3       1 FBI3        0.0000 
     33 O5         -7.8530  -29.1770   24.1780 O.3       1 FBI3        0.0000 
     34 H         -15.0513  -24.2813   23.6576 H         1 FBI3        0.0000 
     35 H         -15.1318  -26.6896   23.8603 H         1 FBI3        0.0000 
     36 H         -11.9535  -26.9968   21.1271 H         1 FBI3        0.0000 
     37 H         -11.8851  -24.5856   20.9364 H         1 FBI3        0.0000 
     38 H          -6.8440  -25.5555   20.8276 H         1 FBI3        0.0000 
     39 H          -7.6542  -26.7020   19.7464 H         1 FBI3        0.0000 
     40 H          -9.5690  -26.8009   21.2937 H         1 FBI3        0.0000 
     41 H          -6.9217  -27.2858   22.7077 H         1 FBI3        0.0000 
     42 H          -7.7046  -28.4116   21.5853 H         1 FBI3        0.0000 
     43 H          -8.9700  -27.4398   24.1677 H         1 FBI3        0.0000 
     44 H          -9.7312  -30.0799   23.2440 H         1 FBI3        0.0000 
     45 H          -9.8226  -28.9709   21.8650 H         1 FBI3        0.0000 
     46 H         -11.2231  -28.5195   24.5832 H         1 FBI3        0.0000 
     47 H         -11.3264  -27.4328   23.1873 H         1 FBI3        0.0000 
     48 H         -10.6417  -31.1921   23.6673 H         1 FBI3        0.0000 
     49 H         -17.2499  -29.2782   22.2179 H         1 FBI3        0.0000 
     50 H         -17.7951  -30.1729   20.9978 H         1 FBI3        0.0000 
     51 H         -18.0130  -30.6625   22.5141 H         1 FBI3        0.0000 
     52 H         -14.9910  -33.5734   23.1495 H         1 FBI3        0.0000 
     53 H         -16.5787  -33.5392   23.4033 H         1 FBI3        0.0000 
     54 H         -15.9428  -34.6558   22.4364 H         1 FBI3        0.0000 
     55 H         -11.1809  -33.3803   24.6419 H         1 FBI3        0.0000 
     56 H         -12.1306  -32.2653   25.3059 H         1 FBI3        0.0000 
     57 H         -12.7234  -33.2715   24.2004 H         1 FBI3        0.0000 
     58 H         -10.7484  -31.9701   21.3722 H         1 FBI3        0.0000 
     59 H         -10.4051  -33.2279   22.3136 H         1 FBI3        0.0000 
     60 H         -11.8842  -33.0588   21.7055 H         1 FBI3        0.0000 
     61 H          -7.9166  -25.3700   23.0996 H         1 FBI3        0.0000 
     62 H          -8.4644  -29.6767   24.7916 H         1 FBI3        0.0000 
@<TRIPOS>BOND
     1    5    1 2    
     2    5    2 2    
     3    4    3 1    
     4    5    3 1    
     5   11    3 1    
     6   49    4 1    
     7   50    4 1    
     8   51    4 1    
     9    6    5 1    
    10   52    6 1    
    11   53    6 1    
    12   54    6 1    
    13    8    7 ar   
    14   12    7 ar   
    15   15    7 1    
    16    9    8 ar   
    17   29    8 1    
    18   10    9 ar   
    19   30    9 1    
    20   11   10 ar   
    21   12   11 ar   
    22   14   13 ar   
    23   18   13 ar   
    24   34   13 1    
    25   15   14 ar   
    26   35   14 1    
    27   16   15 ar   
    28   17   16 ar   
    29   36   16 1    
    30   18   17 ar   
    31   37   17 1    
    32   19   18 1    
    33   23   20 ar   
    34   23   21 ar   
    35   25   22 1    
    36   61   22 1    
    37   24   23 1    
    38   25   24 1    
    39   38   24 1    
    40   39   24 1    
    41   26   25 1    
    42   40   25 1    
    43   27   26 1    
    44   41   26 1    
    45   42   26 1    
    46   28   27 1    
    47   33   27 1    
    48   43   27 1    
    49   29   28 1    
    50   44   28 1    
    51   45   28 1    
    52   46   29 1    
    53   47   29 1    
    54   31   30 1    
    55   32   30 1    
    56   48   30 1    
    57   55   31 1    
    58   56   31 1    
    59   57   31 1    
    60   58   32 1    
    61   59   32 1    
    62   60   32 1    
    63   62   33 1    
@<TRIPOS>SUBSTRUCTURE
     1 FBI3        1 GROUP   
@<TRIPOS>SET

