#    Name: 1hlk_113_2_INTS_M
#    Modification time : Tue Mar 25 05:34:58 2014

@<TRIPOS>MOLECULE
1hlk_113_2_INTS_M
   31     0    12     0     0
SMALL
NO_CHARGES


@<TRIPOS>ATOM
      1 CA          3.4640   15.4435    1.1310 C.3       4 GLC5        0.0000 
      2 CA          2.9630   13.9570    2.5560 C.3      12 GLL5        0.0000 
      3 CA          3.9650   16.9300   -0.2940 C.3       8 GLP5        0.0000 
      4 CA          1.9675   11.3315    2.7420 C.3       4 GLC5        0.0000 
      5 CA          1.6970   13.4870    2.6540 C.3      12 GLL5        0.0000 
      6 CA          2.2380    9.1760    2.8300 C.3       8 GLP5        0.0000 
      7 Zn          0.6980    9.2390   -1.2230 Zn        3 ZIC7        0.0000 
      8 Zn         -0.0280   10.1720   -1.2730 Zn       11 ZIL7        0.0000 
      9 Zn          1.4240    8.3060   -1.1730 Zn        7 ZIP7        0.0000 
     10 CA         -3.0895   13.0645    4.1190 C.3       4 GLC5        0.0000 
     11 CA         -1.5080   14.4420    4.2070 C.3      12 GLL5        0.0000 
     12 CA         -4.6710   11.6870    4.0310 C.3       8 GLP5        0.0000 
     13 CA         -2.7150   14.0485    5.9525 C.3       4 GLC5        0.0000 
     14 CA         -3.9220   13.6550    7.6980 C.3       8 GLP5        0.0000 
     15 CA         -1.9605   16.2855    4.0530 C.3       4 GLC5        0.0000 
     16 CA         -2.4130   18.1290    3.8990 C.3       8 GLP5        0.0000 
     17 NZ         -1.7900   12.1265    0.3195 N.4       2 LYC4        0.0000 
     18 NZ         -0.7970   12.2700   -1.1740 N.4      10 LYL4        0.0000 
     19 NZ         -2.7830   11.9830    1.8130 N.4       6 LYP4        0.0000 
     20 N          -0.7650   13.7495   -1.7400 N.am      1 SEC2        0.0000 
     21 N          -0.7970   12.2700   -1.1740 N.am      9 SEL2        0.0000 
     22 N          -0.7330   15.2290   -2.3060 N.am      5 SEP2        0.0000 
     23 N          -2.0490   12.2895   -1.7285 N.am      1 SEC2        0.0000 
     24 N          -3.3010   12.3090   -2.2830 N.am      5 SEP2        0.0000 
     25 CA          1.5866   13.2692   -2.7198 C.3       4 GLC5        0.0000 
     26 CA          1.5210   11.9470   -0.9270 C.3      12 GLL5        0.0000 
     27 CA          0.8740   14.5560   -4.0050 C.3       8 GLP5        0.0000 
     28 CA          1.8132   10.8063    0.6737 C.3       4 GLC5        0.0000 
     29 CA          1.5550    9.2170    1.6620 C.3       8 GLP5        0.0000 
     30 CA          5.3407   14.2242    2.7382 C.3       4 GLC5        0.0000 
     31 CA          7.3610   14.1520    2.3490 C.3       8 GLP5        0.0000 
@<TRIPOS>BOND
@<TRIPOS>SUBSTRUCTURE
     1 SEC2       20 GROUP        1 X    SEC  0     ROOT SEC X 2
     2 LYC4       17 GROUP        1 X    LYC  0     **** LYC X 4
     3 ZIC7        7 GROUP        1 X    ZIC  0     **** ZIC X 5
     4 GLC5        1 GROUP        1 X    GLC  0     **** GLC X 6
     5 SEP2       22 GROUP        1 Y    SEP  0     ROOT SEP Y 9
     6 LYP4       19 GROUP        1 Y    LYP  0     **** LYP Y 11
     7 ZIP7        9 GROUP        1 Y    ZIP  0     **** ZIP Y 12
     8 GLP5        3 GROUP        1 Y    GLP  0     **** GLP Y 13
     9 SEL2       21 GROUP        1 Z    SEL  0     ROOT SEL Z 16
    10 LYL4       18 GROUP        1 Z    LYL  0     **** LYL Z 18
    11 ZIL7        8 GROUP        1 Z    ZIL  0     **** ZIL Z 19
    12 GLL5        2 GROUP        1 Z    GLL  0     **** GLL Z 20
@<TRIPOS>SET

