#    Name: 1hlk_113_2_ligand
#    Modification time : Tue Mar 25 05:34:58 2014

@<TRIPOS>MOLECULE
1hlk_113_2_ligand
   36    38     1     0     0
SMALL
NO_CHARGES


@<TRIPOS>ATOM
      1 C1          3.7240   12.2670   -1.8910 C.ar      1 1132003     0.0000 
      2 C2          4.1470   12.9570   -0.7550 C.ar      1 1132003     0.0000 
      3 C3          3.2700   13.1270    0.3150 C.ar      1 1132003     0.0000 
      4 C4          1.9740   12.5610    0.2810 C.ar      1 1132003     0.0000 
      5 C5          1.5210   11.9470   -0.9270 C.ar      1 1132003     0.0000 
      6 C6          2.4310   11.7690   -1.9930 C.ar      1 1132003     0.0000 
      7 O8          3.7010   13.8610    1.3990 O.3       1 1132003     0.0000 
      8 C9          2.9630   13.9570    2.5560 C.2       1 1132003     0.0000 
      9 C10         1.6970   13.4870    2.6540 C.2       1 1132003     0.0000 
     10 C11         1.1610   12.6520    1.5210 C.2       1 1132003     0.0000 
     11 C12         3.6780   14.6360    3.6990 C.3       1 1132003     0.0000 
     12 C13         2.6750   15.2770    4.6690 C.3       1 1132003     0.0000 
     13 O14         1.6220   14.3610    4.9530 O.3       1 1132003     0.0000 
     14 C15         0.8500   13.8190    3.8800 C.3       1 1132003     0.0000 
     15 O16         2.1340   11.1200   -3.1810 O.3       1 1132003     0.0000 
     16 O17         4.5570   12.0470   -2.9690 O.3       1 1132003     0.0000 
     17 C18         0.1310   11.4980   -1.1320 C.2       1 1132003     0.0000 
     18 O19        -0.0280   10.1720   -1.2730 O.co2     1 1132003     0.0000 
     19 O20        -0.2660   14.6480    3.5770 O.3       1 1132003     0.0000 
     20 C22        -1.5080   14.4420    4.2070 C.3       1 1132003     0.0000 
     21 C26         3.3110   15.7020    5.9960 C.3       1 1132003     0.0000 
     22 O30        -0.7970   12.2700   -1.1740 O.co2     1 1132003     0.0000 
     23 O31         0.1000   12.0970    1.6780 O.2       1 1132003     0.0000 
     24 H           5.0974   13.3367   -0.7077 H         1 1132003     0.0000 
     25 H           4.3381   15.4129    3.3127 H         1 1132003     0.0000 
     26 H           4.2776   13.9073    4.2450 H         1 1132003     0.0000 
     27 H           2.2740   16.1723    4.1938 H         1 1132003     0.0000 
     28 H           0.4436   12.8172    4.2321 H         1 1132003     0.0000 
     29 H          -1.4400   14.5325    5.2006 H         1 1132003     0.0000 
     30 H          -2.1945   15.1007    3.8990 H         1 1132003     0.0000 
     31 H          -1.8725   13.5298    4.0200 H         1 1132003     0.0000 
     32 H           3.7148   14.9256    6.4798 H         1 1132003     0.0000 
     33 H           4.0392   16.3738    5.8605 H         1 1132003     0.0000 
     34 H           2.6416   16.1158    6.6130 H         1 1132003     0.0000 
     35 H           1.3980   10.4832   -2.9510 H         1 1132003     0.0000 
     36 H           3.9711   11.6402   -3.6699 H         1 1132003     0.0000 
@<TRIPOS>BOND
     1    2    1 ar   
     2    6    1 ar   
     3   16    1 1    
     4    3    2 ar   
     5   24    2 1    
     6    4    3 ar   
     7    7    3 1    
     8    5    4 ar   
     9   10    4 1    
    10    6    5 ar   
    11   17    5 1    
    12   15    6 1    
    13    8    7 1    
    14    9    8 2    
    15   11    8 1    
    16   10    9 1    
    17   14    9 1    
    18   23   10 2    
    19   12   11 1    
    20   25   11 1    
    21   26   11 1    
    22   13   12 1    
    23   21   12 1    
    24   27   12 1    
    25   14   13 1    
    26   19   14 1    
    27   28   14 1    
    28   35   15 1    
    29   36   16 1    
    30   18   17 ar   
    31   22   17 ar   
    32   20   19 1    
    33   29   20 1    
    34   30   20 1    
    35   31   20 1    
    36   32   21 1    
    37   33   21 1    
    38   34   21 1    
@<TRIPOS>SUBSTRUCTURE
     1 1132003     1 GROUP   
@<TRIPOS>SET

