#    Name: 3w2k_KRO_2_INTS_M
#    Modification time : Tue Mar 25 02:04:35 2014

@<TRIPOS>MOLECULE
3w2k_KRO_2_INTS_M
   39     0    12     0     0
SMALL
NO_CHARGES


@<TRIPOS>ATOM
      1 NZ         -7.4300  -16.0750   14.6915 N.4       3 LYC4        0.0000 
      2 NZ         -5.9910  -15.7680   14.1090 N.4      11 LYL4        0.0000 
      3 NZ         -8.8690  -16.3820   15.2740 N.4       7 LYP4        0.0000 
      4 N          -5.6585  -16.9835   13.3960 N.am      2 SEC2        0.0000 
      5 N          -5.9910  -15.7680   14.1090 N.am     10 SEL2        0.0000 
      6 N          -5.3260  -18.1990   12.6830 N.am      6 SEP2        0.0000 
      7 N          -7.4300  -16.0750   14.6915 N.am      2 SEC2        0.0000 
      8 N          -8.8690  -16.3820   15.2740 N.am      6 SEP2        0.0000 
      9 N          -3.4180  -16.3075   14.0680 N.am      2 SEC2        0.0000 
     10 N          -3.9890  -14.8630   14.1550 N.am     10 SEL2        0.0000 
     11 N          -2.8470  -17.7520   13.9810 N.am      6 SEP2        0.0000 
     12 CA         -7.0090  -13.2395   15.7200 C.3       4 GLC5        0.0000 
     13 CA         -5.8000  -13.4450   14.0220 C.3      12 GLL5        0.0000 
     14 CA         -8.2180  -13.0340   17.4180 C.3       8 GLP5        0.0000 
     15 O          -4.4395  -12.9260   16.1215 O.2       1 ALC1        0.0000 
     16 O          -5.3180  -12.5520   15.0730 O.2       9 ALL1        0.0000 
     17 O          -3.5610  -13.3000   17.1700 O.2       5 ALP1        0.0000 
     18 N          -4.6250  -10.9595   17.1640 N.am      2 SEC2        0.0000 
     19 N          -5.3210  -10.4710   15.9600 N.am     10 SEL2        0.0000 
     20 N          -3.9290  -11.4480   18.3680 N.am      6 SEP2        0.0000 
     21 N          -4.7620   -9.2430   15.8020 N.am      2 SEC2        0.0000 
     22 N          -4.2030   -8.0150   15.6440 N.am      6 SEP2        0.0000 
     23 O          -6.9090   -9.4455   14.0415 O.2       1 ALC1        0.0000 
     24 O          -6.5320  -10.7910   14.0680 O.2       9 ALL1        0.0000 
     25 O          -7.2860   -8.1000   14.0150 O.2       5 ALP1        0.0000 
     26 N          -8.9130  -11.3280   11.3115 N.am      2 SEC2        0.0000 
     27 N          -7.7780  -11.0740   12.2030 N.am     10 SEL2        0.0000 
     28 N         -10.0480  -11.5820   10.4200 N.am      6 SEP2        0.0000 
     29 N          -8.1645   -9.6750   12.1780 N.am      2 SEC2        0.0000 
     30 N          -8.5510   -8.2760   12.1530 N.am      6 SEP2        0.0000 
     31 CA         -5.5885  -16.3270   10.7340 C.3       4 GLC5        0.0000 
     32 CA         -4.2970  -14.5760   10.6370 C.3      12 GLL5        0.0000 
     33 CA         -6.8800  -18.0780   10.8310 C.3       8 GLP5        0.0000 
     34 CA         -7.8377  -15.1788   11.1465 C.3       4 GLC5        0.0000 
     35 CA         -6.3670  -13.4020   10.6060 C.3      12 GLL5        0.0000 
     36 CA         -8.9820  -16.7410   11.0450 C.3       8 GLP5        0.0000 
     37 CA         -2.7092  -16.7615   11.7050 C.3       4 GLC5        0.0000 
     38 CA         -2.8880  -14.4810   10.6840 C.3      12 GLL5        0.0000 
     39 CA         -2.9210  -18.4700   12.7440 C.3       8 GLP5        0.0000 
@<TRIPOS>BOND
@<TRIPOS>SUBSTRUCTURE
     1 ALC1       15 GROUP        1 X    ALC  0     ROOT ALC X 1
     2 SEC2        4 GROUP        1 X    SEC  0     **** SEC X 2
     3 LYC4        1 GROUP        1 X    LYC  0     **** LYC X 4
     4 GLC5       12 GROUP        1 X    GLC  0     **** GLC X 6
     5 ALP1       17 GROUP        1 Y    ALP  0     ROOT ALP Y 8
     6 SEP2        6 GROUP        1 Y    SEP  0     **** SEP Y 9
     7 LYP4        3 GROUP        1 Y    LYP  0     **** LYP Y 11
     8 GLP5       14 GROUP        1 Y    GLP  0     **** GLP Y 13
     9 ALL1       16 GROUP        1 Z    ALL  0     ROOT ALL Z 15
    10 SEL2        5 GROUP        1 Z    SEL  0     **** SEL Z 16
    11 LYL4        2 GROUP        1 Z    LYL  0     **** LYL Z 18
    12 GLL5       13 GROUP        1 Z    GLL  0     **** GLL Z 20
@<TRIPOS>SET

