#    Name: 3w2k_KRO_2_ligand
#    Modification time : Tue Mar 25 02:04:35 2014

@<TRIPOS>MOLECULE
3w2k_KRO_2_ligand
   33    34     1     0     0
SMALL
NO_CHARGES


@<TRIPOS>ATOM
      1 OAB        -5.9910  -15.7680   14.1090 O.co2     1 KRO401      0.0000 
      2 CAN        -5.2190  -14.7900   14.0900 C.2       1 KRO401      0.0000 
      3 OAE        -3.9890  -14.8630   14.1550 O.co2     1 KRO401      0.0000 
      4 CAR        -5.8000  -13.4450   14.0220 C.2       1 KRO401      0.0000 
      5 NAL        -5.3180  -12.5520   15.0730 N.am      1 KRO401      0.0000 
      6 CAT        -5.7170  -11.2340   15.0440 C.2       1 KRO401      0.0000 
      7 OAC        -5.3210  -10.4710   15.9600 O.2       1 KRO401      0.0000 
      8 NAM        -6.5320  -10.7910   14.0680 N.am      1 KRO401      0.0000 
      9 CAU        -7.0250  -11.6110   13.0800 C.2       1 KRO401      0.0000 
     10 OAD        -7.7780  -11.0740   12.2030 O.2       1 KRO401      0.0000 
     11 CAS        -6.5960  -12.9440   13.0460 C.2       1 KRO401      0.0000 
     12 CAK        -7.0200  -13.8310   11.8900 C.3       1 KRO401      0.0000 
     13 CAJ        -6.3670  -13.4020   10.6060 C.3       1 KRO401      0.0000 
     14 CAP        -5.0850  -13.3960   10.6240 C.ar      1 KRO401      0.0000 
     15 CAI        -4.2970  -14.5760   10.6370 C.ar      1 KRO401      0.0000 
     16 CAO        -2.8880  -14.4810   10.6840 C.ar      1 KRO401      0.0000 
     17 CAA        -2.1070  -15.6250   10.6480 C.3       1 KRO401      0.0000 
     18 CAQ        -2.2350  -13.2330   10.6840 C.ar      1 KRO401      0.0000 
     19 FAF        -0.9260  -13.1660   10.7360 F         1 KRO401      0.0000 
     20 CAH        -2.9840  -12.0830   10.6300 C.ar      1 KRO401      0.0000 
     21 CAG        -4.4030  -12.1700   10.6320 C.ar      1 KRO401      0.0000 
     22 H          -4.7107  -12.9277   15.7836 H         1 KRO401      0.0000 
     23 H          -6.8120   -9.7714   14.0497 H         1 KRO401      0.0000 
     24 H          -8.1082  -13.7833   11.7832 H         1 KRO401      0.0000 
     25 H          -6.7454  -14.8664   12.1144 H         1 KRO401      0.0000 
     26 H          -6.8324  -12.3910   10.3555 H         1 KRO401      0.0000 
     27 H          -6.8167  -14.0740    9.8012 H         1 KRO401      0.0000 
     28 H          -4.7489  -15.4889   10.6124 H         1 KRO401      0.0000 
     29 H          -2.5446  -11.1602   10.5881 H         1 KRO401      0.0000 
     30 H          -4.9498  -11.2858   10.6397 H         1 KRO401      0.0000 
     31 H          -1.1313  -15.4101   10.6912 H         1 KRO401      0.0000 
     32 H          -2.3069  -16.2354   11.4145 H         1 KRO401      0.0000 
     33 H          -2.2548  -16.1494    9.8094 H         1 KRO401      0.0000 
@<TRIPOS>BOND
     1    2    1 ar   
     2    3    2 ar   
     3    4    2 1    
     4    5    4 1    
     5   11    4 2    
     6    6    5 am   
     7   22    5 1    
     8    7    6 2    
     9    8    6 am   
    10    9    8 am   
    11   23    8 1    
    12   10    9 2    
    13   11    9 1    
    14   12   11 1    
    15   13   12 1    
    16   24   12 1    
    17   25   12 1    
    18   14   13 1    
    19   26   13 1    
    20   27   13 1    
    21   15   14 ar   
    22   21   14 ar   
    23   16   15 ar   
    24   28   15 1    
    25   17   16 1    
    26   18   16 ar   
    27   31   17 1    
    28   32   17 1    
    29   33   17 1    
    30   19   18 1    
    31   20   18 ar   
    32   21   20 ar   
    33   29   20 1    
    34   30   21 1    
@<TRIPOS>SUBSTRUCTURE
     1 KRO401      1 GROUP   
@<TRIPOS>SET

