#    Name: 1g3l_TRH_8_INTS_M
#    Modification time : Tue Mar 25 02:31:11 2014

@<TRIPOS>MOLECULE
1g3l_TRH_8_INTS_M
   53     0     9     0     0
SMALL
NO_CHARGES


@<TRIPOS>ATOM
      1 N          14.1555   63.0685   50.9830 N.am      2 SEC2        0.0000 
      2 N          14.7150   62.7730   52.2300 N.am      8 SEL2        0.0000 
      3 N          13.5960   63.3640   49.7360 N.am      5 SEP2        0.0000 
      4 CA         15.9200   63.3790   54.4645 C.3       3 GLC5        0.0000 
      5 CA         17.7000   62.1150   54.3830 C.3       9 GLL5        0.0000 
      6 CA         14.1400   64.6430   54.5460 C.3       6 GLP5        0.0000 
      7 N          15.9065   64.0245   56.0185 N.am      2 SEC2        0.0000 
      8 N          16.9890   62.9910   56.3790 N.am      8 SEL2        0.0000 
      9 N          14.8240   65.0580   55.6580 N.am      5 SEP2        0.0000 
     10 O          15.8140   62.6090   57.0160 O.2       1 ALC1        0.0000 
     11 O          16.9890   62.9910   56.3790 O.2       7 ALL1        0.0000 
     12 O          14.6390   62.2270   57.6530 O.2       4 ALP1        0.0000 
     13 CA         21.1820   64.9400   52.3305 C.3       3 GLC5        0.0000 
     14 CA         20.6750   63.6840   53.4890 C.3       9 GLL5        0.0000 
     15 CA         21.6890   66.1960   51.1720 C.3       6 GLP5        0.0000 
     16 CA         22.1235   62.9915   52.2090 C.3       3 GLC5        0.0000 
     17 CA         23.5720   62.2990   50.9290 C.3       6 GLP5        0.0000 
     18 N          13.4155   61.2850   54.7495 N.am      2 SEC2        0.0000 
     19 N          14.6210   60.8560   53.9500 N.am      8 SEL2        0.0000 
     20 N          12.2100   61.7140   55.5490 N.am      5 SEP2        0.0000 
     21 N          12.2945   58.1705   55.3920 N.am      2 SEC2        0.0000 
     22 N          12.9370   59.1540   54.5050 N.am      8 SEL2        0.0000 
     23 N          11.6520   57.1870   56.2790 N.am      5 SEP2        0.0000 
     24 CA         14.2395   60.4030   50.0535 C.3       3 GLC5        0.0000 
     25 CA         12.8960   60.0160   51.6740 C.3       9 GLL5        0.0000 
     26 CA         15.5830   60.7900   48.4330 C.3       6 GLP5        0.0000 
     27 CA         12.1215   61.5910   52.7480 C.3       3 GLC5        0.0000 
     28 CA         11.3470   63.1660   53.8220 C.3       6 GLP5        0.0000 
     29 CA         10.1325   58.1105   53.0500 C.3       3 GLC5        0.0000 
     30 CA         11.2540   57.9740   51.4750 C.3       9 GLL5        0.0000 
     31 CA          9.0110   58.2470   54.6250 C.3       6 GLP5        0.0000 
     32 N           8.9780   59.2995   51.1085 N.am      2 SEC2        0.0000 
     33 N           9.9140   57.9270   51.0180 N.am      8 SEL2        0.0000 
     34 N           8.0420   60.6720   51.1990 N.am      5 SEP2        0.0000 
     35 CA         11.8985   54.9490   51.3040 C.3       3 GLC5        0.0000 
     36 CA         11.9800   56.7470   50.9260 C.3       9 GLL5        0.0000 
     37 CA         11.8170   53.1510   51.6820 C.3       6 GLP5        0.0000 
     38 CA         11.4570   58.2415   48.5030 C.3       3 GLC5        0.0000 
     39 CA         12.5760   57.1730   49.6040 C.3       9 GLL5        0.0000 
     40 CA         10.3380   59.3100   47.4020 C.3       6 GLP5        0.0000 
     41 N          11.7720   54.6895   46.2705 N.am      2 SEC2        0.0000 
     42 N          12.3370   55.3980   47.5670 N.am      8 SEL2        0.0000 
     43 N          11.2070   53.9810   44.9740 N.am      5 SEP2        0.0000 
     44 CA         18.7015   54.8330   49.5350 C.3       3 GLC5        0.0000 
     45 CA         17.2880   55.7140   50.0130 C.3       9 GLL5        0.0000 
     46 CA         20.1150   53.9520   49.0570 C.3       6 GLP5        0.0000 
     47 CA         12.3338   61.4890   50.7617 C.3       3 GLC5        0.0000 
     48 CA         11.9590   59.1340   50.8550 C.3       9 GLL5        0.0000 
     49 CA         12.2400   63.4030   50.2590 C.3       6 GLP5        0.0000 
     50 CA         10.9722   58.9320   49.2835 C.3       3 GLC5        0.0000 
     51 CA         16.1449   57.8444   48.9995 C.3       3 GLC5        0.0000 
     52 CA         15.9170   55.6730   49.3810 C.3       9 GLL5        0.0000 
     53 CA         16.5510   59.6190   48.2350 C.3       6 GLP5        0.0000 
@<TRIPOS>BOND
@<TRIPOS>SUBSTRUCTURE
     1 ALC1       10 GROUP        1 X    ALC  0     ROOT ALC X 1
     2 SEC2        1 GROUP        1 X    SEC  0     **** SEC X 2
     3 GLC5        4 GROUP        1 X    GLC  0     **** GLC X 6
     4 ALP1       12 GROUP        1 Y    ALP  0     ROOT ALP Y 8
     5 SEP2        3 GROUP        1 Y    SEP  0     **** SEP Y 9
     6 GLP5        6 GROUP        1 Y    GLP  0     **** GLP Y 13
     7 ALL1       11 GROUP        1 Z    ALL  0     ROOT ALL Z 15
     8 SEL2        2 GROUP        1 Z    SEL  0     **** SEL Z 16
     9 GLL5        5 GROUP        1 Z    GLL  0     **** GLL Z 20
@<TRIPOS>SET

