#    Name: 1g3l_TRH_8_ligand
#    Modification time : Tue Mar 25 02:31:11 2014

@<TRIPOS>MOLECULE
1g3l_TRH_8_ligand
   59    61     1     0     0
SMALL
NO_CHARGES


@<TRIPOS>ATOM
      1 O4P        14.7150   62.7730   52.2300 O.co2     1 TRH507      0.0000 
      2 P2         15.5850   61.7130   53.0060 P.3       1 TRH507      0.0000 
      3 O3P        16.4780   60.6040   52.2380 O.co2     1 TRH507      0.0000 
      4 O1         16.4120   62.5440   54.0700 O.3       1 TRH507      0.0000 
      5 C1         17.7000   62.1150   54.3830 C.3       1 TRH507      0.0000 
      6 C2         17.6720   61.8650   55.8460 C.3       1 TRH507      0.0000 
      7 O2         16.9890   62.9910   56.3790 O.3       1 TRH507      0.0000 
      8 C3         19.1020   61.7710   56.4030 C.3       1 TRH507      0.0000 
      9 O3         19.0980   61.8290   57.8210 O.3       1 TRH507      0.0000 
     10 C4         19.9380   62.8670   55.7970 C.3       1 TRH507      0.0000 
     11 O4         21.2580   62.4740   56.1240 O.3       1 TRH507      0.0000 
     12 C5         19.6230   62.9000   54.2770 C.3       1 TRH507      0.0000 
     13 O5         18.2510   63.3580   54.0570 O.3       1 TRH507      0.0000 
     14 C6         20.6750   63.6840   53.4890 C.3       1 TRH507      0.0000 
     15 OPP        14.6210   60.8560   53.9500 O.3       1 TRH507      0.0000 
     16 P          14.2830   59.2940   53.6880 P.3       1 TRH507      0.0000 
     17 O1P        12.9370   59.1540   54.5050 O.co2     1 TRH507      0.0000 
     18 O2P        15.5390   58.3210   53.9470 O.co2     1 TRH507      0.0000 
     19 O5'        13.9780   59.2170   52.1410 O.3       1 TRH507      0.0000 
     20 C5'        12.8960   60.0160   51.6740 C.3       1 TRH507      0.0000 
     21 C4'        11.9590   59.1340   50.8550 C.3       1 TRH507      0.0000 
     22 O4'        12.9330   58.4030   50.1680 O.3       1 TRH507      0.0000 
     23 C3'        11.2540   57.9740   51.4750 C.3       1 TRH507      0.0000 
     24 O3'         9.9140   57.9270   51.0180 O.3       1 TRH507      0.0000 
     25 C2'        11.9800   56.7470   50.9260 C.3       1 TRH507      0.0000 
     26 C1'        12.5760   57.1730   49.6040 C.3       1 TRH507      0.0000 
     27 N11        13.6970   56.3280   49.2130 N.am      1 TRH507      0.0000 
     28 C21        13.5180   55.4980   48.1590 C.2       1 TRH507      0.0000 
     29 O21        12.3370   55.3980   47.5670 O.2       1 TRH507      0.0000 
     30 N31        14.5140   54.7430   47.7430 N.am      1 TRH507      0.0000 
     31 C41        15.7020   54.8230   48.3300 C.2       1 TRH507      0.0000 
     32 O41        16.6860   54.0680   47.8830 O.2       1 TRH507      0.0000 
     33 C51        15.9170   55.6730   49.3810 C.2       1 TRH507      0.0000 
     34 C5A        17.2880   55.7140   50.0130 C.3       1 TRH507      0.0000 
     35 C61        14.8750   56.4460   49.8310 C.2       1 TRH507      0.0000 
     36 H          18.0079   61.3509   53.8213 H         1 TRH507      0.0000 
     37 H          17.1533   60.9603   56.0414 H         1 TRH507      0.0000 
     38 H          19.5077   60.8131   56.0531 H         1 TRH507      0.0000 
     39 H          19.6523   63.7818   56.2411 H         1 TRH507      0.0000 
     40 H          19.6947   61.8346   53.9399 H         1 TRH507      0.0000 
     41 H          13.2370   60.8302   51.0309 H         1 TRH507      0.0000 
     42 H          12.3192   60.4440   52.4967 H         1 TRH507      0.0000 
     43 H          11.3837   59.6670   50.2024 H         1 TRH507      0.0000 
     44 H          11.3560   57.9926   52.5120 H         1 TRH507      0.0000 
     45 H          11.2756   55.9551   50.7736 H         1 TRH507      0.0000 
     46 H          12.7572   56.4601   51.6043 H         1 TRH507      0.0000 
     47 H          11.8056   57.2657   48.9292 H         1 TRH507      0.0000 
     48 H          14.3724   54.0734   46.9439 H         1 TRH507      0.0000 
     49 H          15.0153   57.0887   50.6187 H         1 TRH507      0.0000 
     50 H          21.5870   63.2863   53.5896 H         1 TRH507      0.0000 
     51 H          20.4692   63.7017   52.5106 H         1 TRH507      0.0000 
     52 H          20.7346   64.6347   53.7932 H         1 TRH507      0.0000 
     53 H          17.9923   55.9809   49.3552 H         1 TRH507      0.0000 
     54 H          17.3294   56.3681   50.7683 H         1 TRH507      0.0000 
     55 H          17.5538   54.8233   50.3817 H         1 TRH507      0.0000 
     56 H          16.1597   62.6176   56.7947 H         1 TRH507      0.0000 
     57 H          18.1931   62.1791   58.0630 H         1 TRH507      0.0000 
     58 H          21.8354   62.9041   55.4300 H         1 TRH507      0.0000 
     59 H           9.9712   58.0854   50.0323 H         1 TRH507      0.0000 
@<TRIPOS>BOND
     1    2    1 ar   
     2    3    2 ar   
     3    4    2 1    
     4   15    2 1    
     5    5    4 1    
     6    6    5 1    
     7   13    5 1    
     8   36    5 1    
     9    7    6 1    
    10    8    6 1    
    11   37    6 1    
    12   56    7 1    
    13    9    8 1    
    14   10    8 1    
    15   38    8 1    
    16   57    9 1    
    17   11   10 1    
    18   12   10 1    
    19   39   10 1    
    20   58   11 1    
    21   13   12 1    
    22   14   12 1    
    23   40   12 1    
    24   50   14 1    
    25   51   14 1    
    26   52   14 1    
    27   16   15 1    
    28   17   16 ar   
    29   18   16 ar   
    30   19   16 1    
    31   20   19 1    
    32   21   20 1    
    33   41   20 1    
    34   42   20 1    
    35   22   21 1    
    36   23   21 1    
    37   43   21 1    
    38   26   22 1    
    39   24   23 1    
    40   25   23 1    
    41   44   23 1    
    42   59   24 1    
    43   26   25 1    
    44   45   25 1    
    45   46   25 1    
    46   27   26 1    
    47   47   26 1    
    48   28   27 1    
    49   35   27 1    
    50   29   28 2    
    51   30   28 1    
    52   31   30 1    
    53   48   30 1    
    54   32   31 2    
    55   33   31 1    
    56   34   33 1    
    57   35   33 2    
    58   53   34 1    
    59   54   34 1    
    60   55   34 1    
    61   49   35 1    
@<TRIPOS>SUBSTRUCTURE
     1 TRH507      1 GROUP   
@<TRIPOS>SET

