#    Name: 3o23_MQY_1_INTS_M
#    Modification time : Tue Mar 25 03:09:03 2014

@<TRIPOS>MOLECULE
3o23_MQY_1_INTS_M
   83     0     6     0     0
SMALL
NO_CHARGES


@<TRIPOS>ATOM
      1 N           7.8655    0.6320   19.9120 N.am      1 SEC2        0.0000 
      2 N           7.9050    1.3980   21.1760 N.am      5 SEL2        0.0000 
      3 N           7.8260   -0.1340   18.6480 N.am      3 SEP2        0.0000 
      4 CA          5.6785    0.9400   25.4045 C.3       2 GLC5        0.0000 
      5 CA          5.3510    1.4100   23.6000 C.3       6 GLL5        0.0000 
      6 CA          6.0060    0.4700   27.2090 C.3       4 GLP5        0.0000 
      7 N           4.2390   -1.8965   24.3300 N.am      1 SEC2        0.0000 
      8 N           5.4740   -0.9500   24.2690 N.am      5 SEL2        0.0000 
      9 N           3.0040   -2.8430   24.3910 N.am      3 SEP2        0.0000 
     10 CA          5.2455    3.0810   20.3780 C.3       2 GLC5        0.0000 
     11 CA          6.0790    3.4540   22.2280 C.3       6 GLL5        0.0000 
     12 CA          4.4120    2.7080   18.5280 C.3       4 GLP5        0.0000 
     13 CA          4.3560    4.6510   22.1400 C.3       2 GLC5        0.0000 
     14 CA          2.6330    5.8480   22.0520 C.3       4 GLP5        0.0000 
     15 CA          3.0295   -0.1815   24.1365 C.3       2 GLC5        0.0000 
     16 CA          3.8560    1.4080   23.2220 C.3       6 GLL5        0.0000 
     17 CA          2.2030   -1.7710   25.0510 C.3       4 GLP5        0.0000 
     18 CA         10.0145    5.7290   25.9140 C.3       2 GLC5        0.0000 
     19 CA          8.8070    4.9450   24.5560 C.3       6 GLL5        0.0000 
     20 CA         11.2220    6.5130   27.2720 C.3       4 GLP5        0.0000 
     21 CA         10.6065    5.2685   23.6490 C.3       2 GLC5        0.0000 
     22 CA         12.4060    5.5920   22.7420 C.3       4 GLP5        0.0000 
     23 CA         11.4180   -7.4385   20.5895 C.3       2 GLC5        0.0000 
     24 CA         10.9360   -5.9690   19.1440 C.3       6 GLL5        0.0000 
     25 CA         11.9000   -8.9080   22.0350 C.3       4 GLP5        0.0000 
     26 CA         12.4185   -6.7645   18.9315 C.3       2 GLC5        0.0000 
     27 CA         13.9010   -7.5600   18.7190 C.3       4 GLP5        0.0000 
     28 CA         10.4935   -7.2285   18.0420 C.3       2 GLC5        0.0000 
     29 CA         10.0510   -8.4880   16.9400 C.3       4 GLP5        0.0000 
     30 CA         12.4370   -4.8770   18.1145 C.3       2 GLC5        0.0000 
     31 CA         11.1030   -3.8290   19.4240 C.3       6 GLL5        0.0000 
     32 CA         13.7710   -5.9250   16.8050 C.3       4 GLP5        0.0000 
     33 CA         11.9295   -3.1720   17.8630 C.3       2 GLC5        0.0000 
     34 CA         12.7560   -2.5150   16.3020 C.3       4 GLP5        0.0000 
     35 CA         10.6525   -2.0335   19.1785 C.3       2 GLC5        0.0000 
     36 CA         10.2020   -0.2380   18.9330 C.3       4 GLP5        0.0000 
     37 CA          9.5430   -4.5690   16.8860 C.3       2 GLC5        0.0000 
     38 CA          9.1880   -4.6980   18.8260 C.3       6 GLL5        0.0000 
     39 CA          9.8980   -4.4400   14.9460 C.3       4 GLP5        0.0000 
     40 CA          7.6535   -3.2770   18.5385 C.3       2 GLC5        0.0000 
     41 CA          6.1190   -1.8560   18.2510 C.3       4 GLP5        0.0000 
     42 N          10.1335    6.7750   24.6295 N.am      1 SEC2        0.0000 
     43 N           8.7380    6.2770   24.2800 N.am      5 SEL2        0.0000 
     44 N          11.5290    7.2730   24.9790 N.am      3 SEP2        0.0000 
     45 CA          7.8257   -0.9185   24.5307 C.3       2 GLC5        0.0000 
     46 CA          7.6070   -1.2230   22.3330 C.3       6 GLL5        0.0000 
     47 CA          7.3450   -0.5630   26.5920 C.3       4 GLP5        0.0000 
     48 CA          9.1498   -3.3085   23.8250 C.3       2 GLC5        0.0000 
     49 CA          9.0060   -1.3250   22.6060 C.3       6 GLL5        0.0000 
     50 CA          8.9410   -4.7000   25.2040 C.3       4 GLP5        0.0000 
     51 CA         10.7763   -0.6285   22.7025 C.3       2 GLC5        0.0000 
     52 CA          9.7110   -2.5090   22.2860 C.3       6 GLL5        0.0000 
     53 CA         12.1940    0.6600   22.9590 C.3       4 GLP5        0.0000 
     54 CA          8.6335   -4.1255   23.3790 C.3       2 GLC5        0.0000 
     55 CA          9.0170   -3.5960   21.6890 C.3       6 GLL5        0.0000 
     56 CA          6.7862   -2.2486   19.9889 C.3       2 GLC5        0.0000 
     57 CA          7.6350   -3.5060   21.4190 C.3       6 GLL5        0.0000 
     58 CA          9.6054   -1.0648   20.6554 C.3       2 GLC5        0.0000 
     59 CA          7.9808    5.8275   21.3540 C.3       2 GLC5        0.0000 
     60 CA          7.0130    4.4330   22.9520 C.3       6 GLL5        0.0000 
     61 CA          8.9840    6.5110   19.9030 C.3       4 GLP5        0.0000 
     62 CA          7.6108    4.6155   25.9810 C.3       2 GLC5        0.0000 
     63 CA          7.9740    3.9970   23.9220 C.3       6 GLL5        0.0000 
     64 CA          6.8310    4.7600   27.7230 C.3       4 GLP5        0.0000 
     65 CA          9.3933   -6.7408   18.5257 C.3       2 GLC5        0.0000 
     66 CA         10.3010   -4.8830   19.5310 C.3       6 GLL5        0.0000 
     67 CA          9.0420   -8.6910   17.8730 C.3       4 GLP5        0.0000 
     68 CA          6.2095    7.8070   24.6290 C.3       2 GLC5        0.0000 
     69 CA          7.8310    6.7860   23.3510 C.3       6 GLL5        0.0000 
     70 CA          4.6270    8.1290   26.0550 C.3       4 GLP5        0.0000 
     71 CA          8.2160    7.8430   25.1415 C.3       2 GLC5        0.0000 
     72 CA          7.7530    8.1840   23.0550 C.3       6 GLL5        0.0000 
     73 CA          8.6400    8.2010   27.0800 C.3       4 GLP5        0.0000 
     74 CA          9.8970    7.2715   22.8970 C.3       2 GLC5        0.0000 
     75 CA         12.0020    7.0580   22.5910 C.3       4 GLP5        0.0000 
     76 CA         12.6014   -4.1738   20.2059 C.3       2 GLC5        0.0000 
     77 CA         14.3420   -3.7200   21.0310 C.3       4 GLP5        0.0000 
     78 CA          7.8856    9.1699   20.8659 C.3       2 GLC5        0.0000 
     79 CA          9.1550   10.2370   19.7310 C.3       4 GLP5        0.0000 
     80 CA          4.4211    6.3976   21.9261 C.3       2 GLC5        0.0000 
     81 CA          5.9470    7.7760   21.4240 C.3       6 GLL5        0.0000 
     82 CA          7.8117    7.0453   21.0042 C.3       2 GLC5        0.0000 
     83 CA          6.8180    8.6750   22.1000 C.3       6 GLL5        0.0000 
@<TRIPOS>BOND
@<TRIPOS>SUBSTRUCTURE
     1 SEC2        1 GROUP        1 X    SEC  0     ROOT SEC X 2
     2 GLC5        4 GROUP        1 X    GLC  0     **** GLC X 6
     3 SEP2        3 GROUP        1 Y    SEP  0     ROOT SEP Y 9
     4 GLP5        6 GROUP        1 Y    GLP  0     **** GLP Y 13
     5 SEL2        2 GROUP        1 Z    SEL  0     ROOT SEL Z 16
     6 GLL5        5 GROUP        1 Z    GLL  0     **** GLL Z 20
@<TRIPOS>SET

