#    Name: 3o23_MQY_1_ligand
#    Modification time : Tue Mar 25 03:09:03 2014

@<TRIPOS>MOLECULE
3o23_MQY_1_ligand
   48    51     1     0     0
SMALL
NO_CHARGES


@<TRIPOS>ATOM
      1 N1          6.8930   -0.0770   22.6320 N.am      1 MQY1        0.0000 
      2 C2          7.6070   -1.2230   22.3330 C.ar      1 MQY1        0.0000 
      3 C3          7.0820    1.1360   22.0510 C.2       1 MQY1        0.0000 
      4 C4          5.8990   -0.0280   23.5630 C.2       1 MQY1        0.0000 
      5 C5          6.9370   -2.3300   21.7360 C.ar      1 MQY1        0.0000 
      6 C6          9.0060   -1.3250   22.6060 C.ar      1 MQY1        0.0000 
      7 N7          6.2050    2.0270   22.5860 N.am      1 MQY1        0.0000 
      8 O8          7.9050    1.3980   21.1760 O.2       1 MQY1        0.0000 
      9 C9          5.3510    1.4100   23.6000 C.3       1 MQY1        0.0000 
     10 O10         5.4740   -0.9500   24.2690 O.2       1 MQY1        0.0000 
     11 C11         7.6350   -3.5060   21.4190 C.ar      1 MQY1        0.0000 
     12 C12         9.7110   -2.5090   22.2860 C.ar      1 MQY1        0.0000 
     13 C13         6.0790    3.4540   22.2280 C.3       1 MQY1        0.0000 
     14 C14         3.8560    1.4080   23.2220 C.3       1 MQY1        0.0000 
     15 C15         9.0170   -3.5960   21.6890 C.ar      1 MQY1        0.0000 
     16 C16         7.0130    4.4330   22.9520 C.ar      1 MQY1        0.0000 
     17 S17         9.8760   -5.0880   21.2630 S.o2      1 MQY1        0.0000 
     18 C18         6.9420    5.8550   22.6580 C.ar      1 MQY1        0.0000 
     19 C19         7.9740    3.9970   23.9220 C.ar      1 MQY1        0.0000 
     20 C20        10.3010   -4.8830   19.5310 C.3       1 MQY1        0.0000 
     21 O21        11.1000   -5.1500   21.9980 O.2       1 MQY1        0.0000 
     22 O22         8.9650   -6.1920   21.3540 O.2       1 MQY1        0.0000 
     23 C23         7.8310    6.7860   23.3510 C.ar      1 MQY1        0.0000 
     24 C24         6.0010    6.3820   21.6950 C.ar      1 MQY1        0.0000 
     25 C25         8.8070    4.9450   24.5560 C.ar      1 MQY1        0.0000 
     26 F26        10.9360   -5.9690   19.1440 F         1 MQY1        0.0000 
     27 F27        11.1030   -3.8290   19.4240 F         1 MQY1        0.0000 
     28 F28         9.1880   -4.6980   18.8260 F         1 MQY1        0.0000 
     29 N29         8.7380    6.2770   24.2800 N.ar      1 MQY1        0.0000 
     30 C30         7.7530    8.1840   23.0550 C.ar      1 MQY1        0.0000 
     31 C31         5.9470    7.7760   21.4240 C.ar      1 MQY1        0.0000 
     32 C32         6.8180    8.6750   22.1000 C.ar      1 MQY1        0.0000 
     33 H           5.9328   -2.2576   21.5392 H         1 MQY1        0.0000 
     34 H           9.4927   -0.5372   23.0336 H         1 MQY1        0.0000 
     35 H           5.5192    1.8034   24.5452 H         1 MQY1        0.0000 
     36 H           7.1468   -4.2961   20.9940 H         1 MQY1        0.0000 
     37 H          10.7047   -2.5844   22.4801 H         1 MQY1        0.0000 
     38 H           5.0276    3.7981   22.4026 H         1 MQY1        0.0000 
     39 H           6.2393    3.5851   21.1274 H         1 MQY1        0.0000 
     40 H           8.0482    3.0095   24.1457 H         1 MQY1        0.0000 
     41 H           5.3756    5.7394   21.2121 H         1 MQY1        0.0000 
     42 H           9.4951    4.5901   25.2600 H         1 MQY1        0.0000 
     43 H           8.3766    8.8345   23.5360 H         1 MQY1        0.0000 
     44 H           5.2795    8.1350   20.7403 H         1 MQY1        0.0000 
     45 H           6.7730    9.6730   21.9006 H         1 MQY1        0.0000 
     46 H           3.7056    1.0423   22.3035 H         1 MQY1        0.0000 
     47 H           3.3145    0.8509   23.8516 H         1 MQY1        0.0000 
     48 H           3.4677    2.3294   23.2378 H         1 MQY1        0.0000 
@<TRIPOS>BOND
     1    2    1 1    
     2    3    1 am   
     3    4    1 am   
     4    5    2 ar   
     5    6    2 ar   
     6    7    3 am   
     7    8    3 2    
     8    9    4 1    
     9   10    4 2    
    10   11    5 ar   
    11   33    5 1    
    12   12    6 ar   
    13   34    6 1    
    14    9    7 1    
    15   13    7 1    
    16   14    9 1    
    17   35    9 1    
    18   15   11 ar   
    19   36   11 1    
    20   15   12 ar   
    21   37   12 1    
    22   16   13 1    
    23   38   13 1    
    24   39   13 1    
    25   46   14 1    
    26   47   14 1    
    27   48   14 1    
    28   17   15 1    
    29   18   16 ar   
    30   19   16 ar   
    31   20   17 1    
    32   21   17 2    
    33   22   17 2    
    34   23   18 ar   
    35   24   18 ar   
    36   25   19 ar   
    37   40   19 1    
    38   26   20 1    
    39   27   20 1    
    40   28   20 1    
    41   29   23 ar   
    42   30   23 ar   
    43   31   24 ar   
    44   41   24 1    
    45   29   25 ar   
    46   42   25 1    
    47   32   30 ar   
    48   43   30 1    
    49   32   31 ar   
    50   44   31 1    
    51   45   32 1    
@<TRIPOS>SUBSTRUCTURE
     1 MQY1        1 GROUP   
@<TRIPOS>SET

