#    Name: 4l7u_1VC_1_INTS_M
#    Modification time : Tue Mar 25 09:53:21 2014

@<TRIPOS>MOLECULE
4l7u_1VC_1_INTS_M
   45     0     9     0     0
SMALL
NO_CHARGES


@<TRIPOS>ATOM
      1 CA         22.3175   -0.3230   17.4300 C.3       3 GLC5        0.0000 
      2 CA         20.6260   -0.2930   16.6780 C.3       9 GLL5        0.0000 
      3 CA         24.0090   -0.3530   18.1820 C.3       6 GLP5        0.0000 
      4 CA         18.9555    0.1125   15.5795 C.3       3 GLC5        0.0000 
      5 CA         17.2850    0.5180   14.4810 C.3       6 GLP5        0.0000 
      6 CA         19.4010    0.0125   18.3295 C.3       3 GLC5        0.0000 
      7 CA         18.1760    0.3180   19.9810 C.3       6 GLP5        0.0000 
      8 CA         20.3205    1.1085   15.9145 C.3       3 GLC5        0.0000 
      9 CA         20.0150    2.5100   15.1510 C.3       6 GLP5        0.0000 
     10 CA         17.6615   -5.9170   14.5490 C.3       3 GLC5        0.0000 
     11 CA         18.4240   -5.2360   13.1260 C.3       9 GLL5        0.0000 
     12 CA         16.8990   -6.5980   15.9720 C.3       6 GLP5        0.0000 
     13 CA         15.2350   -7.7390    8.3200 C.3       3 GLC5        0.0000 
     14 CA         15.4960   -8.6050   10.2600 C.3       9 GLL5        0.0000 
     15 CA         14.9740   -6.8730    6.3800 C.3       6 GLP5        0.0000 
     16 N          14.3305   -4.4810   11.3960 N.am      2 SEC2        0.0000 
     17 N          14.5580   -5.9910   10.7610 N.am      8 SEL2        0.0000 
     18 N          14.1030   -2.9710   12.0310 N.am      5 SEP2        0.0000 
     19 N          13.3155   -6.1210   10.8710 N.am      2 SEC2        0.0000 
     20 N          12.0730   -6.2510   10.9810 N.am      5 SEP2        0.0000 
     21 O          16.3955   -4.2480   12.8630 O.2       1 ALC1        0.0000 
     22 O          16.4180   -5.5260   11.9470 O.2       7 ALL1        0.0000 
     23 O          16.3730   -2.9700   13.7790 O.2       4 ALP1        0.0000 
     24 CA         25.6232   -0.8040   14.4657 C.3       3 GLC5        0.0000 
     25 CA         23.3970   -1.0180   14.7250 C.3       9 GLL5        0.0000 
     26 CA         27.7420   -1.2130   14.4940 C.3       6 GLP5        0.0000 
     27 CA         23.7567   -0.3740   16.3098 C.3       3 GLC5        0.0000 
     28 CA         22.8371    1.4660   14.8931 C.3       3 GLC5        0.0000 
     29 CA         22.2610    2.9210   16.1580 C.3       6 GLP5        0.0000 
     30 CA         18.4750   -8.0820    9.9292 C.3       3 GLC5        0.0000 
     31 CA         17.4850   -8.0310   11.4640 C.3       9 GLL5        0.0000 
     32 CA         19.2000   -7.5090    8.5000 C.3       6 GLP5        0.0000 
     33 CA         16.5365  -10.9360   11.9038 C.3       3 GLC5        0.0000 
     34 CA         18.0150   -9.2790   11.2530 C.3       9 GLL5        0.0000 
     35 CA         15.4390  -12.1360   12.9110 C.3       6 GLP5        0.0000 
     36 CA         17.9098   -8.7710    9.3990 C.3       3 GLC5        0.0000 
     37 CA         17.2530  -10.1930   10.5400 C.3       9 GLL5        0.0000 
     38 CA         16.4898  -11.6020    9.5465 C.3       3 GLC5        0.0000 
     39 CA         16.3600  -13.1710    8.7950 C.3       6 GLP5        0.0000 
     40 CA         13.8370   -9.1990    9.6800 C.3       3 GLC5        0.0000 
     41 CA         15.9860   -9.8730   10.0560 C.3       9 GLL5        0.0000 
     42 CA         11.9330   -9.1590    9.2020 C.3       6 GLP5        0.0000 
     43 CA         14.4915  -10.2075   11.1325 C.3       3 GLC5        0.0000 
     44 CA         13.2420  -11.1760   12.1070 C.3       6 GLP5        0.0000 
     45 CA         17.5232   -7.8243    9.5555 C.3       3 GLC5        0.0000 
@<TRIPOS>BOND
@<TRIPOS>SUBSTRUCTURE
     1 ALC1       21 GROUP        1 X    ALC  0     ROOT ALC X 1
     2 SEC2       16 GROUP        1 X    SEC  0     **** SEC X 2
     3 GLC5        1 GROUP        1 X    GLC  0     **** GLC X 6
     4 ALP1       23 GROUP        1 Y    ALP  0     ROOT ALP Y 8
     5 SEP2       18 GROUP        1 Y    SEP  0     **** SEP Y 9
     6 GLP5        3 GROUP        1 Y    GLP  0     **** GLP Y 13
     7 ALL1       22 GROUP        1 Z    ALL  0     ROOT ALL Z 15
     8 SEL2       17 GROUP        1 Z    SEL  0     **** SEL Z 16
     9 GLL5        2 GROUP        1 Z    GLL  0     **** GLL Z 20
@<TRIPOS>SET

