#    Name: 4l7u_1VC_1_ligand
#    Modification time : Tue Mar 25 09:53:21 2014

@<TRIPOS>MOLECULE
4l7u_1VC_1_ligand
   49    51     1     0     0
SMALL
NO_CHARGES


@<TRIPOS>ATOM
      1 CD1        23.3970   -1.0180   14.7250 C.ar      1 1VC601      0.0000 
      2 CE1        23.6120    0.2280   14.1500 C.ar      1 1VC601      0.0000 
      3 CZ         23.3220    0.4170   12.8190 C.ar      1 1VC601      0.0000 
      4 CE2        22.8210   -0.6440   12.0580 C.ar      1 1VC601      0.0000 
      5 CD2        22.6420   -1.8890   12.6280 C.ar      1 1VC601      0.0000 
      6 CG         22.9230   -2.0470   13.9690 C.ar      1 1VC601      0.0000 
      7 CB         22.7410   -3.1680   14.5960 C.3       1 1VC601      0.0000 
      8 CA         21.2540   -3.2400   15.0240 C.3       1 1VC601      0.0000 
      9 C          20.1860   -2.2620   15.6520 C.2       1 1VC601      0.0000 
     10 O          19.2640   -2.7710   16.3690 O.2       1 1VC601      0.0000 
     11 OAT        20.2670   -0.9120   15.4300 O.3       1 1VC601      0.0000 
     12 CAA        20.6260   -0.2930   16.6780 C.3       1 1VC601      0.0000 
     13 N          20.5650   -3.9680   14.0080 N.am      1 1VC601      0.0000 
     14 CAU        19.8550   -3.4980   12.9920 C.2       1 1VC601      0.0000 
     15 OAB        19.6070   -2.3560   12.6400 O.2       1 1VC601      0.0000 
     16 CAN        19.3000   -4.5220   12.1800 C.3       1 1VC601      0.0000 
     17 CAO        18.4240   -5.2360   13.1260 C.3       1 1VC601      0.0000 
     18 CAX        17.6960   -5.9990   12.4000 C.2       1 1VC601      0.0000 
     19 NAQ        18.2310   -7.2050   12.1620 N.2       1 1VC601      0.0000 
     20 CAZ        17.4850   -8.0310   11.4640 C.ar      1 1VC601      0.0000 
     21 CAL        18.0150   -9.2790   11.2530 C.ar      1 1VC601      0.0000 
     22 CAH        17.2530  -10.1930   10.5400 C.ar      1 1VC601      0.0000 
     23 CAI        15.9860   -9.8730   10.0560 C.ar      1 1VC601      0.0000 
     24 CAM        15.4960   -8.6050   10.2600 C.ar      1 1VC601      0.0000 
     25 CBA        16.1970   -7.6740   10.9620 C.ar      1 1VC601      0.0000 
     26 CAY        15.6490   -6.3840   11.1900 C.2       1 1VC601      0.0000 
     27 OAD        14.5580   -5.9910   10.7610 O.2       1 1VC601      0.0000 
     28 NAS        16.4180   -5.5260   11.9470 N.am      1 1VC601      0.0000 
     29 H          23.6009   -1.1524   15.7300 H         1 1VC601      0.0000 
     30 H          23.9845    0.9975   14.7192 H         1 1VC601      0.0000 
     31 H          23.4696    1.3328   12.3745 H         1 1VC601      0.0000 
     32 H          22.5862   -0.4878   11.0660 H         1 1VC601      0.0000 
     33 H          22.3085   -2.6758   12.0677 H         1 1VC601      0.0000 
     34 H          23.3190   -3.2898   15.5311 H         1 1VC601      0.0000 
     35 H          22.9161   -4.0819   13.9980 H         1 1VC601      0.0000 
     36 H          21.2805   -4.1375   15.8814 H         1 1VC601      0.0000 
     37 H          20.6570   -5.0534   14.1137 H         1 1VC601      0.0000 
     38 H          20.0538   -5.1920   11.8109 H         1 1VC601      0.0000 
     39 H          18.7113   -4.1201   11.3767 H         1 1VC601      0.0000 
     40 H          17.8730   -4.4698   13.6994 H         1 1VC601      0.0000 
     41 H          19.0800   -5.7590   13.8440 H         1 1VC601      0.0000 
     42 H          18.9346   -9.5322   11.6045 H         1 1VC601      0.0000 
     43 H          17.6355  -11.1442   10.3603 H         1 1VC601      0.0000 
     44 H          15.4357  -10.5772    9.5575 H         1 1VC601      0.0000 
     45 H          14.5598   -8.3555    9.8629 H         1 1VC601      0.0000 
     46 H          16.1183   -4.5957   12.1882 H         1 1VC601      0.0000 
     47 H          21.5030   -0.6296   17.0208 H         1 1VC601      0.0000 
     48 H          20.7072    0.6998   16.5903 H         1 1VC601      0.0000 
     49 H          19.9459   -0.4698   17.3894 H         1 1VC601      0.0000 
@<TRIPOS>BOND
     1    2    1 ar   
     2    6    1 ar   
     3   29    1 1    
     4    3    2 ar   
     5   30    2 1    
     6    4    3 ar   
     7   31    3 1    
     8    5    4 ar   
     9   32    4 1    
    10    6    5 ar   
    11   33    5 1    
    12    7    6 1    
    13    8    7 1    
    14   34    7 1    
    15   35    7 1    
    16    9    8 1    
    17   13    8 1    
    18   36    8 1    
    19   10    9 2    
    20   11    9 1    
    21   12   11 1    
    22   47   12 1    
    23   48   12 1    
    24   49   12 1    
    25   14   13 am   
    26   37   13 1    
    27   15   14 2    
    28   16   14 1    
    29   17   16 1    
    30   38   16 1    
    31   39   16 1    
    32   18   17 1    
    33   40   17 1    
    34   41   17 1    
    35   19   18 2    
    36   28   18 1    
    37   20   19 1    
    38   21   20 ar   
    39   25   20 ar   
    40   22   21 ar   
    41   42   21 1    
    42   23   22 ar   
    43   43   22 1    
    44   24   23 ar   
    45   44   23 1    
    46   25   24 ar   
    47   45   24 1    
    48   26   25 1    
    49   27   26 2    
    50   28   26 am   
    51   46   28 1    
@<TRIPOS>SUBSTRUCTURE
     1 1VC601      1 GROUP   
@<TRIPOS>SET

