#    Name: 4cox_IMN_1_INTS_M
#    Modification time : Mon Apr  7 22:24:53 2014

@<TRIPOS>MOLECULE
4cox_IMN_1_INTS_M
   72     0     9     0     0
SMALL
NO_CHARGES


@<TRIPOS>ATOM
      1 CA         19.1720   19.0290   17.8695 C.3       3 GLC5        0.0000 
      2 CA         19.7380   21.0300   17.1770 C.3       9 GLL5        0.0000 
      3 CA         18.6060   17.0280   18.5620 C.3       6 GLP5        0.0000 
      4 CA         20.4540   21.9810   18.3805 C.3       3 GLC5        0.0000 
      5 CA         21.1700   22.9320   19.5840 C.3       6 GLP5        0.0000 
      6 CA         20.6195   20.0055   18.8895 C.3       3 GLC5        0.0000 
      7 CA         21.5010   18.9810   20.6020 C.3       6 GLP5        0.0000 
      8 CA         20.3135   20.4130   15.4830 C.3       3 GLC5        0.0000 
      9 CA         20.8890   19.7960   13.7890 C.3       6 GLP5        0.0000 
     10 CA         23.6725   21.0260   11.5325 C.3       3 GLC5        0.0000 
     11 CA         24.8410   22.8530   11.0520 C.3       9 GLL5        0.0000 
     12 CA         22.5040   19.1990   12.0130 C.3       6 GLP5        0.0000 
     13 CA         28.8830   23.4800   14.2120 C.3       3 GLC5        0.0000 
     14 CA         28.1450   22.6380   16.0440 C.3       9 GLL5        0.0000 
     15 CA         29.6210   24.3220   12.3800 C.3       6 GLP5        0.0000 
     16 CA         29.8240   22.1785   16.1720 C.3       3 GLC5        0.0000 
     17 CA         31.5030   21.7190   16.3000 C.3       6 GLP5        0.0000 
     18 CA         26.8335   22.7890   18.2950 C.3       3 GLC5        0.0000 
     19 CA         26.8760   20.7210   18.0620 C.3       9 GLL5        0.0000 
     20 CA         26.7910   24.8570   18.5280 C.3       6 GLP5        0.0000 
     21 CA         25.3760   19.9065   19.4615 C.3       3 GLC5        0.0000 
     22 CA         23.8760   19.0920   20.8610 C.3       6 GLP5        0.0000 
     23 CA         27.0930   20.1665   16.0030 C.3       3 GLC5        0.0000 
     24 CA         27.3100   19.6120   13.9440 C.3       6 GLP5        0.0000 
     25 CA         29.0125   20.5720   17.5225 C.3       3 GLC5        0.0000 
     26 CA         31.1490   20.4230   16.9830 C.3       6 GLP5        0.0000 
     27 NZ         26.3950   18.2935   16.8395 N.4       2 LYC4        0.0000 
     28 NZ         25.5030   18.8650   17.4260 N.4       8 LYL4        0.0000 
     29 NZ         27.2240   16.6300   15.5150 N.4       5 LYP4        0.0000 
     30 N          26.3950   18.2935   16.8395 N.am      1 SEC2        0.0000 
     31 N          25.5030   18.8650   17.4260 N.am      7 SEL2        0.0000 
     32 N          27.2870   17.7220   16.2530 N.am      4 SEP2        0.0000 
     33 N          24.1870   18.5225   18.1485 N.am      1 SEC2        0.0000 
     34 N          22.8710   18.1800   18.8710 N.am      4 SEP2        0.0000 
     35 CA         26.4760   24.2090    8.4940 C.3       3 GLC5        0.0000 
     36 CA         24.4880   24.0690    8.6490 C.3       9 GLL5        0.0000 
     37 CA         28.4640   24.3490    8.3390 C.3       6 GLP5        0.0000 
     38 CA         24.4725   23.6130    6.9005 C.3       3 GLC5        0.0000 
     39 CA         24.4570   23.1570    5.1520 C.3       6 GLP5        0.0000 
     40 CA         25.6525   25.8240    8.2505 C.3       3 GLC5        0.0000 
     41 CA         26.8170   27.5790    7.8520 C.3       6 GLP5        0.0000 
     42 CA         23.3195   25.5650    9.4390 C.3       3 GLC5        0.0000 
     43 CA         22.1510   27.0610   10.2290 C.3       6 GLP5        0.0000 
     44 CA         22.6555   23.6605    8.0690 C.3       3 GLC5        0.0000 
     45 CA         20.8230   23.2520    7.4890 C.3       6 GLP5        0.0000 
     46 CA         25.6910   22.5585    8.9850 C.3       3 GLC5        0.0000 
     47 CA         26.8940   21.0480    9.3210 C.3       6 GLP5        0.0000 
     48 CA         25.6562   23.4757   17.3877 C.3       3 GLC5        0.0000 
     49 CA         24.4300   22.5620   15.7290 C.3       9 GLL5        0.0000 
     50 CA         25.9157   20.8532   15.0958 C.3       3 GLC5        0.0000 
     51 CA         24.6130   21.6270   16.7660 C.3       9 GLL5        0.0000 
     52 CA         23.2598   21.8857   18.6510 C.3       3 GLC5        0.0000 
     53 CA         22.4710   22.4700   20.2450 C.3       6 GLP5        0.0000 
     54 CA         23.4537   19.8953   15.7340 C.3       3 GLC5        0.0000 
     55 CA         23.4840   20.9760   17.3480 C.3       9 GLL5        0.0000 
     56 CA         22.8590   18.4890   14.4110 C.3       6 GLP5        0.0000 
     57 CA         21.6165   22.3337   17.9763 C.3       3 GLC5        0.0000 
     58 CA         22.1610   21.2580   16.9000 C.3       9 GLL5        0.0000 
     59 CA         22.1562   24.5095   16.1595 C.3       3 GLC5        0.0000 
     60 CA         21.9650   22.2130   15.8370 C.3       9 GLL5        0.0000 
     61 CA         21.7800   26.4810   16.7730 C.3       6 GLP5        0.0000 
     62 CA         21.7353   21.0476   14.8004 C.3       3 GLC5        0.0000 
     63 CA         23.1000   22.8630   15.2550 C.3       9 GLL5        0.0000 
     64 CA         27.6145   24.4537   12.5328 C.3       3 GLC5        0.0000 
     65 CA         25.6030   23.9870   13.0580 C.3       9 GLL5        0.0000 
     66 CA         26.5433   21.8064   12.3945 C.3       3 GLC5        0.0000 
     67 CA         27.9610   20.4840   12.8900 C.3       6 GLP5        0.0000 
     68 CA         25.9644   22.0921   10.4417 C.3       3 GLC5        0.0000 
     69 CA         25.2170   22.8220   12.4340 C.3       9 GLL5        0.0000 
     70 CA         27.0312   23.5846   17.4163 C.3       3 GLC5        0.0000 
     71 CA         27.2907   20.9621   15.1242 C.3       3 GLC5        0.0000 
     72 CA         26.6830   22.4120   16.1370 C.3       9 GLL5        0.0000 
@<TRIPOS>BOND
@<TRIPOS>SUBSTRUCTURE
     1 SEC2       30 GROUP        1 X    SEC  0     ROOT SEC X 2
     2 LYC4       27 GROUP        1 X    LYC  0     **** LYC X 4
     3 GLC5        1 GROUP        1 X    GLC  0     **** GLC X 6
     4 SEP2       32 GROUP        1 Y    SEP  0     ROOT SEP Y 9
     5 LYP4       29 GROUP        1 Y    LYP  0     **** LYP Y 11
     6 GLP5        3 GROUP        1 Y    GLP  0     **** GLP Y 13
     7 SEL2       31 GROUP        1 Z    SEL  0     ROOT SEL Z 16
     8 LYL4       28 GROUP        1 Z    LYL  0     **** LYL Z 18
     9 GLL5        2 GROUP        1 Z    GLL  0     **** GLL Z 20
@<TRIPOS>SET

