#    Name: 4cox_IMN_1_ligand
#    Modification time : Mon Apr  7 22:24:53 2014

@<TRIPOS>MOLECULE
4cox_IMN_1_ligand
   40    42     1     0     0
SMALL
NO_CHARGES


@<TRIPOS>ATOM
      1 C          24.4300   22.5620   15.7290 C.ar      1 IMN701      0.0000 
      2 C1         24.6130   21.6270   16.7660 C.ar      1 IMN701      0.0000 
      3 C2         23.4840   20.9760   17.3480 C.ar      1 IMN701      0.0000 
      4 C3         22.1610   21.2580   16.9000 C.ar      1 IMN701      0.0000 
      5 C4         21.9650   22.2130   15.8370 C.ar      1 IMN701      0.0000 
      6 C5         23.1000   22.8630   15.2550 C.ar      1 IMN701      0.0000 
      7 C6         19.7380   21.0300   17.1770 C.3       1 IMN701      0.0000 
      8 C7         26.1130   21.5610   16.9930 C.2       1 IMN701      0.0000 
      9 C8         26.6830   22.4120   16.1370 C.2       1 IMN701      0.0000 
     10 C9         26.0230   24.0190   14.5170 C.2       1 IMN701      0.0000 
     11 C10        25.6030   23.9870   13.0580 C.ar      1 IMN701      0.0000 
     12 C11        25.6130   25.1840   12.3130 C.ar      1 IMN701      0.0000 
     13 C12        25.2400   25.1990   10.9540 C.ar      1 IMN701      0.0000 
     14 C13        24.8640   24.0480   10.3300 C.ar      1 IMN701      0.0000 
     15 C14        24.8410   22.8530   11.0520 C.ar      1 IMN701      0.0000 
     16 C15        25.2170   22.8220   12.4340 C.ar      1 IMN701      0.0000 
     17 C16        28.1450   22.6380   16.0440 C.3       1 IMN701      0.0000 
     18 C17        26.8760   20.7210   18.0620 C.3       1 IMN701      0.0000 
     19 C18        26.3280   19.2970   18.1950 C.2       1 IMN701      0.0000 
     20 N          25.7500   23.0430   15.3710 N.am      1 IMN701      0.0000 
     21 O          21.0600   20.6030   17.5140 O.3       1 IMN701      0.0000 
     22 O1         26.6270   24.9820   14.9450 O.2       1 IMN701      0.0000 
     23 O2         25.5030   18.8650   17.4260 O.co2     1 IMN701      0.0000 
     24 O3         26.7530   18.5340   19.1350 O.co2     1 IMN701      0.0000 
     25 CL         24.4880   24.0690    8.6490 Cl        1 IMN701      0.0000 
     26 H          23.6281   20.2955   18.0996 H         1 IMN701      0.0000 
     27 H          21.0327   22.4182   15.5093 H         1 IMN701      0.0000 
     28 H          22.9751   23.5369   14.5081 H         1 IMN701      0.0000 
     29 H          25.8977   26.0620   12.7698 H         1 IMN701      0.0000 
     30 H          25.2588   26.0983   10.4466 H         1 IMN701      0.0000 
     31 H          24.5533   21.9769   10.6009 H         1 IMN701      0.0000 
     32 H          25.1906   21.9307   12.9301 H         1 IMN701      0.0000 
     33 H          26.7968   21.2334   19.0241 H         1 IMN701      0.0000 
     34 H          27.9312   20.6806   17.7801 H         1 IMN701      0.0000 
     35 H          19.5882   21.9915   17.4076 H         1 IMN701      0.0000 
     36 H          19.5537   20.9309   16.1991 H         1 IMN701      0.0000 
     37 H          19.0418   20.5004   17.6616 H         1 IMN701      0.0000 
     38 H          28.5251   22.9704   16.9072 H         1 IMN701      0.0000 
     39 H          28.6365   21.7988   15.8112 H         1 IMN701      0.0000 
     40 H          28.3724   23.3147   15.3437 H         1 IMN701      0.0000 
@<TRIPOS>BOND
     1    2    1 ar   
     2    6    1 ar   
     3   20    1 1    
     4    3    2 ar   
     5    8    2 1    
     6    4    3 ar   
     7   26    3 1    
     8    5    4 ar   
     9   21    4 1    
    10    6    5 ar   
    11   27    5 1    
    12   28    6 1    
    13   21    7 1    
    14   35    7 1    
    15   36    7 1    
    16   37    7 1    
    17    9    8 2    
    18   18    8 1    
    19   17    9 1    
    20   20    9 1    
    21   11   10 1    
    22   20   10 am   
    23   22   10 2    
    24   12   11 ar   
    25   16   11 ar   
    26   13   12 ar   
    27   29   12 1    
    28   14   13 ar   
    29   30   13 1    
    30   15   14 ar   
    31   25   14 1    
    32   16   15 ar   
    33   31   15 1    
    34   32   16 1    
    35   38   17 1    
    36   39   17 1    
    37   40   17 1    
    38   19   18 1    
    39   33   18 1    
    40   34   18 1    
    41   23   19 ar   
    42   24   19 ar   
@<TRIPOS>SUBSTRUCTURE
     1 IMN701      1 GROUP   
@<TRIPOS>SET

