#    Name: 4f9v_PBD_2_INTS_M
#    Modification time : Mon Mar 24 19:09:47 2014

@<TRIPOS>MOLECULE
4f9v_PBD_2_INTS_M
   50     0     9     0     0
SMALL
NO_CHARGES


@<TRIPOS>ATOM
      1 CA        -13.3905  131.5845   -4.7170 C.3       3 GLC5        0.0000 
      2 CA        -11.5220  132.1740   -4.3950 C.3       9 GLL5        0.0000 
      3 CA        -15.2590  130.9950   -5.0390 C.3       6 GLP5        0.0000 
      4 CA        -12.8820  133.4520   -3.8210 C.3       3 GLC5        0.0000 
      5 CA        -14.2420  134.7300   -3.2470 C.3       6 GLP5        0.0000 
      6 CA         -7.5250  137.5375   -4.1275 C.3       3 GLC5        0.0000 
      7 CA         -9.1820  137.0260   -5.0340 C.3       9 GLL5        0.0000 
      8 CA         -5.8680  138.0490   -3.2210 C.3       6 GLP5        0.0000 
      9 CA         -8.2265  135.4235   -4.7775 C.3       3 GLC5        0.0000 
     10 CA         -7.2710  133.8210   -4.5210 C.3       6 GLP5        0.0000 
     11 CA         -7.6975  137.4010   -6.2480 C.3       3 GLC5        0.0000 
     12 CA         -6.2130  137.7760   -7.4620 C.3       6 GLP5        0.0000 
     13 CA        -11.0190  137.0475   -4.4005 C.3       3 GLC5        0.0000 
     14 CA        -12.8560  137.0690   -3.7670 C.3       6 GLP5        0.0000 
     15 CA         -9.8595  138.7320   -4.2730 C.3       3 GLC5        0.0000 
     16 CA        -10.5370  140.4380   -3.5120 C.3       6 GLP5        0.0000 
     17 CA         -9.8535  138.6685    4.1940 C.3       3 GLC5        0.0000 
     18 CA         -9.7790  137.7910    2.3060 C.3       9 GLL5        0.0000 
     19 CA         -9.9280  139.5460    6.0820 C.3       6 GLP5        0.0000 
     20 CA        -17.1960  139.6010   -1.5115 C.3       3 GLC5        0.0000 
     21 CA        -16.6590  139.5250    0.4390 C.3       9 GLL5        0.0000 
     22 CA        -17.7330  139.6770   -3.4620 C.3       6 GLP5        0.0000 
     23 CA         -7.7720  137.0780   -2.7500 C.3       3 GLC5        0.0000 
     24 CA         -9.6760  136.1070   -2.2790 C.3       9 GLL5        0.0000 
     25 CA        -13.1210  136.9280   -0.3800 C.3       3 GLC5        0.0000 
     26 CA        -13.2410  137.2550    1.6800 C.3       9 GLL5        0.0000 
     27 CA        -13.0010  136.6010   -2.4400 C.3       6 GLP5        0.0000 
     28 CA        -12.5020  138.5930    0.3300 C.3       3 GLC5        0.0000 
     29 CA        -11.7630  139.9310   -1.0200 C.3       6 GLP5        0.0000 
     30 CA        -13.8675  134.5690    1.2170 C.3       3 GLC5        0.0000 
     31 CA        -12.4900  135.9910    2.0820 C.3       9 GLL5        0.0000 
     32 CA        -15.2450  133.1470    0.3520 C.3       6 GLP5        0.0000 
     33 CA        -13.0875  135.7065   -0.0535 C.3       3 GLC5        0.0000 
     34 CA        -13.6850  135.4220   -2.1890 C.3       6 GLP5        0.0000 
     35 CA        -14.8265  137.8715    4.1780 C.3       3 GLC5        0.0000 
     36 CA        -14.5030  137.5050    2.4750 C.3       9 GLL5        0.0000 
     37 CA        -15.1500  138.2380    5.8810 C.3       6 GLP5        0.0000 
     38 Zn        -15.7750  141.4230    0.6040 Zn        2 ZIC7        0.0000 
     39 Zn        -15.7930  140.4330    0.9070 Zn        8 ZIL7        0.0000 
     40 Zn        -15.7570  142.4130    0.3010 Zn        5 ZIP7        0.0000 
     41 O          -8.0690  136.9145   -0.0550 O.2       1 ALC1        0.0000 
     42 O          -9.3770  136.4040    0.0460 O.2       7 ALL1        0.0000 
     43 O          -6.7610  137.4250   -0.1560 O.2       4 ALP1        0.0000 
     44 CA        -11.6145  136.6270   -0.6815 C.3       3 GLC5        0.0000 
     45 CA        -10.2280  136.6530    1.0770 C.3       9 GLL5        0.0000 
     46 CA        -10.2027  138.5570    0.2652 C.3       3 GLC5        0.0000 
     47 CA        -10.4020  139.8920   -1.1610 C.3       6 GLP5        0.0000 
     48 CA         -7.9021  135.1024   -0.9547 C.3       3 GLC5        0.0000 
     49 CA         -9.7230  135.5370   -1.0110 C.3       9 GLL5        0.0000 
     50 CA         -5.9950  134.7130   -0.3030 C.3       6 GLP5        0.0000 
@<TRIPOS>BOND
@<TRIPOS>SUBSTRUCTURE
     1 ALC1       41 GROUP        1 X    ALC  0     ROOT ALC X 1
     2 ZIC7       38 GROUP        1 X    ZIC  0     **** ZIC X 5
     3 GLC5        1 GROUP        1 X    GLC  0     **** GLC X 6
     4 ALP1       43 GROUP        1 Y    ALP  0     ROOT ALP Y 8
     5 ZIP7       40 GROUP        1 Y    ZIP  0     **** ZIP Y 12
     6 GLP5        3 GROUP        1 Y    GLP  0     **** GLP Y 13
     7 ALL1       42 GROUP        1 Z    ALL  0     ROOT ALL Z 15
     8 ZIL7       39 GROUP        1 Z    ZIL  0     **** ZIL Z 19
     9 GLL5        2 GROUP        1 Z    GLL  0     **** GLL Z 20
@<TRIPOS>SET

