#    Name: 4f9v_PBD_2_ligand
#    Modification time : Mon Mar 24 19:09:47 2014

@<TRIPOS>MOLECULE
4f9v_PBD_2_ligand
   42    43     1     0     0
SMALL
NO_CHARGES


@<TRIPOS>ATOM
      1 CAA       -11.5220  132.1740   -4.3950 C.3       1 PBD402      0.0000 
      2 CAB        -9.1820  137.0260   -5.0340 C.3       1 PBD402      0.0000 
      3 SAC        -9.7790  137.7910    2.3060 S.2       1 PBD402      0.0000 
      4 CAD       -16.6590  139.5250    0.4390 C.2       1 PBD402      0.0000 
      5 CAE       -10.1620  134.2160   -0.8570 C.ar      1 PBD402      0.0000 
      6 CAF       -10.5290  133.4900   -1.9830 C.ar      1 PBD402      0.0000 
      7 CAG       -16.2830  138.3240    0.9670 C.2       1 PBD402      0.0000 
      8 CAH       -14.8990  139.8160    1.6970 C.2       1 PBD402      0.0000 
      9 CAI        -9.6760  136.1070   -2.2790 C.ar      1 PBD402      0.0000 
     10 CAJ       -13.2410  137.2550    1.6800 C.3       1 PBD402      0.0000 
     11 CAK       -12.4900  135.9910    2.0820 C.3       1 PBD402      0.0000 
     12 CAL       -14.5030  137.5050    2.4750 C.3       1 PBD402      0.0000 
     13 NAM       -15.7930  140.4330    0.9070 N.2       1 PBD402      0.0000 
     14 NAN       -11.3970  135.9550    1.1060 N.am      1 PBD402      0.0000 
     15 NAO        -9.3770  136.4040    0.0460 N.am      1 PBD402      0.0000 
     16 OAP       -10.7820  133.3960   -4.4210 O.3       1 PBD402      0.0000 
     17 OAQ        -9.9920  135.8960   -4.6700 O.3       1 PBD402      0.0000 
     18 CAR       -10.2280  136.6530    1.0770 C.2       1 PBD402      0.0000 
     19 CAS        -9.7230  135.5370   -1.0110 C.ar      1 PBD402      0.0000 
     20 CAT       -10.4640  134.0660   -3.2590 C.ar      1 PBD402      0.0000 
     21 CAU       -10.0330  135.3720   -3.4040 C.ar      1 PBD402      0.0000 
     22 NAV       -15.2320  138.5310    1.7590 N.pl3     1 PBD402      0.0000 
     23 H         -17.3956  139.6724   -0.1463 H         1 PBD402      0.0000 
     24 H         -10.2098  133.7970    0.0725 H         1 PBD402      0.0000 
     25 H         -10.8538  132.5156   -1.8846 H         1 PBD402      0.0000 
     26 H         -16.7158  137.4817    0.7861 H         1 PBD402      0.0000 
     27 H         -14.1498  140.2388    2.1380 H         1 PBD402      0.0000 
     28 H          -9.3718  137.0894   -2.3860 H         1 PBD402      0.0000 
     29 H         -13.4948  137.1906    0.6061 H         1 PBD402      0.0000 
     30 H         -12.5634  138.1211    1.7920 H         1 PBD402      0.0000 
     31 H         -13.1359  135.1548    1.9727 H         1 PBD402      0.0000 
     32 H         -12.1229  136.1063    3.0721 H         1 PBD402      0.0000 
     33 H         -14.2299  137.8345    3.4671 H         1 PBD402      0.0000 
     34 H         -15.0676  136.5854    2.5301 H         1 PBD402      0.0000 
     35 H         -11.5825  135.2495    0.2911 H         1 PBD402      0.0000 
     36 H          -8.4374  136.8563    0.0164 H         1 PBD402      0.0000 
     37 H         -11.6746  131.8126   -5.3148 H         1 PBD402      0.0000 
     38 H         -11.0472  131.4633   -3.8759 H         1 PBD402      0.0000 
     39 H         -12.4212  132.2932   -3.9740 H         1 PBD402      0.0000 
     40 H          -8.2096  136.8511   -4.8795 H         1 PBD402      0.0000 
     41 H          -9.2874  137.2628   -5.9998 H         1 PBD402      0.0000 
     42 H          -9.4211  137.8402   -4.5049 H         1 PBD402      0.0000 
@<TRIPOS>BOND
     1   16    1 1    
     2   37    1 1    
     3   38    1 1    
     4   39    1 1    
     5   17    2 1    
     6   40    2 1    
     7   41    2 1    
     8   42    2 1    
     9   18    3 2    
    10    7    4 2    
    11   13    4 1    
    12   23    4 1    
    13    6    5 ar   
    14   19    5 ar   
    15   24    5 1    
    16   20    6 ar   
    17   25    6 1    
    18   22    7 1    
    19   26    7 1    
    20   13    8 2    
    21   22    8 1    
    22   27    8 1    
    23   19    9 ar   
    24   21    9 ar   
    25   28    9 1    
    26   11   10 1    
    27   12   10 1    
    28   29   10 1    
    29   30   10 1    
    30   14   11 1    
    31   31   11 1    
    32   32   11 1    
    33   22   12 1    
    34   33   12 1    
    35   34   12 1    
    36   18   14 am   
    37   35   14 1    
    38   18   15 am   
    39   19   15 1    
    40   36   15 1    
    41   20   16 1    
    42   21   17 1    
    43   21   20 ar   
@<TRIPOS>SUBSTRUCTURE
     1 PBD402      1 GROUP   
@<TRIPOS>SET

