#    Name: 2jc6_QPP_1_INTS_M
#    Modification time : Tue Mar 25 19:57:24 2014

@<TRIPOS>MOLECULE
2jc6_QPP_1_INTS_M
   54     0     9     0     0
SMALL
NO_CHARGES


@<TRIPOS>ATOM
      1 CA        -13.0670  -83.1645  -34.3700 C.3       3 GLC5        0.0000 
      2 CA        -13.1830  -84.9030  -35.5500 C.3       9 GLL5        0.0000 
      3 CA        -12.9510  -81.4260  -33.1900 C.3       6 GLP5        0.0000 
      4 CA        -13.2805  -84.0465  -33.2570 C.3       3 GLC5        0.0000 
      5 CA        -13.1730  -85.7240  -34.4260 C.3       9 GLL5        0.0000 
      6 CA        -13.3880  -82.3690  -32.0880 C.3       6 GLP5        0.0000 
      7 CA        -13.9190  -88.3895  -37.2705 C.3       3 GLC5        0.0000 
      8 CA        -14.6710  -86.4430  -36.6420 C.3       9 GLL5        0.0000 
      9 CA        -13.1670  -90.3360  -37.8990 C.3       6 GLP5        0.0000 
     10 CA        -16.8290  -82.2685  -39.0115 C.3       3 GLC5        0.0000 
     11 CA        -16.1980  -83.5340  -40.5440 C.3       9 GLL5        0.0000 
     12 CA        -17.4600  -81.0030  -37.4790 C.3       6 GLP5        0.0000 
     13 CA        -13.3740  -80.0990  -40.3590 C.3       3 GLC5        0.0000 
     14 CA        -14.0620  -81.8880  -41.1310 C.3       9 GLL5        0.0000 
     15 CA        -12.6860  -78.3100  -39.5870 C.3       6 GLP5        0.0000 
     16 CA        -12.7800  -80.5365  -39.3690 C.3       3 GLC5        0.0000 
     17 CA        -12.8740  -82.7630  -39.1510 C.3       9 GLL5        0.0000 
     18 O         -11.4870  -81.6450  -40.8255 O.2       1 ALC1        0.0000 
     19 O         -11.8320  -81.9320  -39.4080 O.2       7 ALL1        0.0000 
     20 O         -11.1420  -81.3580  -42.2430 O.2       4 ALP1        0.0000 
     21 CA         -9.3585  -84.3800  -38.9685 C.3       3 GLC5        0.0000 
     22 CA        -10.2080  -82.7120  -37.7780 C.3       9 GLL5        0.0000 
     23 CA         -8.5090  -86.0480  -40.1590 C.3       6 GLP5        0.0000 
     24 CA         -6.3940  -81.5660  -37.0240 C.3       3 GLC5        0.0000 
     25 CA         -8.0880  -82.7130  -36.3870 C.3       9 GLL5        0.0000 
     26 CA         -4.7000  -80.4190  -37.6610 C.3       6 GLP5        0.0000 
     27 CA         -6.6530  -84.1400  -37.2410 C.3       3 GLC5        0.0000 
     28 CA         -5.2180  -85.5670  -38.0950 C.3       6 GLP5        0.0000 
     29 O          -8.1470  -79.7730  -38.3080 O.2       1 ALC1        0.0000 
     30 O          -8.9040  -80.9790  -38.0310 O.2       7 ALL1        0.0000 
     31 O          -7.3900  -78.5670  -38.5850 O.2       4 ALP1        0.0000 
     32 N          -9.5575  -80.2075  -40.1560 N.am      2 SEC2        0.0000 
     33 N          -9.8760  -80.8290  -38.7800 N.am      8 SEL2        0.0000 
     34 N          -9.2390  -79.5860  -41.5320 N.am      5 SEP2        0.0000 
     35 CA        -14.0020  -88.9667  -35.7590 C.3       3 GLC5        0.0000 
     36 CA        -13.9210  -86.9100  -34.4060 C.3       9 GLL5        0.0000 
     37 CA        -13.7130  -90.8510  -36.5550 C.3       6 GLP5        0.0000 
     38 CA        -14.7470  -88.2812  -33.7665 C.3       3 GLC5        0.0000 
     39 CA        -14.6610  -87.2550  -35.5200 C.3       9 GLL5        0.0000 
     40 CA        -15.2030  -89.4800  -32.5700 C.3       6 GLP5        0.0000 
     41 CA        -15.5935  -86.2930  -33.8095 C.3       3 GLC5        0.0000 
     42 CA        -17.0830  -85.8000  -32.6510 C.3       6 GLP5        0.0000 
     43 CA        -15.2041  -83.7905  -36.3841 C.3       3 GLC5        0.0000 
     44 CA        -13.9330  -84.4230  -37.8200 C.3       9 GLL5        0.0000 
     45 CA        -16.3860  -82.4880  -35.6680 C.3       6 GLP5        0.0000 
     46 CA        -13.3732  -81.6233  -43.1780 C.3       3 GLC5        0.0000 
     47 CA        -12.1260  -81.3700  -44.8030 C.3       6 GLP5        0.0000 
     48 CA        -14.2568  -81.7199  -38.3595 C.3       3 GLC5        0.0000 
     49 CA        -14.9280  -80.8000  -36.8970 C.3       6 GLP5        0.0000 
     50 CA        -10.4183  -80.6833  -36.7283 C.3       3 GLC5        0.0000 
     51 CA        -11.1960  -78.9420  -35.8680 C.3       6 GLP5        0.0000 
     52 CA         -8.6728  -81.4830  -35.1780 C.3       3 GLC5        0.0000 
     53 CA         -9.0730  -82.1370  -37.3990 C.3       9 GLL5        0.0000 
     54 CA         -8.7650  -80.5410  -33.4630 C.3       6 GLP5        0.0000 
@<TRIPOS>BOND
@<TRIPOS>SUBSTRUCTURE
     1 ALC1       18 GROUP        1 X    ALC  0     ROOT ALC X 1
     2 SEC2       32 GROUP        1 X    SEC  0     **** SEC X 2
     3 GLC5        1 GROUP        1 X    GLC  0     **** GLC X 6
     4 ALP1       20 GROUP        1 Y    ALP  0     ROOT ALP Y 8
     5 SEP2       34 GROUP        1 Y    SEP  0     **** SEP Y 9
     6 GLP5        3 GROUP        1 Y    GLP  0     **** GLP Y 13
     7 ALL1       19 GROUP        1 Z    ALL  0     ROOT ALL Z 15
     8 SEL2       33 GROUP        1 Z    SEL  0     **** SEL Z 16
     9 GLL5        2 GROUP        1 Z    GLL  0     **** GLL Z 20
@<TRIPOS>SET

