#    Name: 2jc6_QPP_1_ligand
#    Modification time : Tue Mar 25 19:57:24 2014

@<TRIPOS>MOLECULE
2jc6_QPP_1_ligand
   38    41     1     0     0
SMALL
NO_CHARGES


@<TRIPOS>ATOM
      1 CAK       -13.1830  -84.9030  -35.5500 C.ar      1 QPP1314     0.0000 
      2 CAL       -13.1730  -85.7240  -34.4260 C.ar      1 QPP1314     0.0000 
      3 CAM       -13.9210  -86.9100  -34.4060 C.ar      1 QPP1314     0.0000 
      4 CAN       -14.6610  -87.2550  -35.5200 C.ar      1 QPP1314     0.0000 
      5 CAO       -14.6710  -86.4430  -36.6420 C.ar      1 QPP1314     0.0000 
      6 CAP       -13.9200  -85.2630  -36.6880 C.ar      1 QPP1314     0.0000 
      7 C2        -13.9330  -84.4230  -37.8200 C.ar      1 QPP1314     0.0000 
      8 N1        -12.8910  -83.6030  -38.0760 N.ar      1 QPP1314     0.0000 
      9 N3        -15.0080  -84.3910  -38.6370 N.ar      1 QPP1314     0.0000 
     10 C4        -15.0710  -83.5590  -39.7080 C.ar      1 QPP1314     0.0000 
     11 CAA       -16.1980  -83.5340  -40.5440 C.ar      1 QPP1314     0.0000 
     12 CAB       -16.2660  -82.6960  -41.6700 C.ar      1 QPP1314     0.0000 
     13 CAC       -15.1790  -81.8650  -41.9750 C.ar      1 QPP1314     0.0000 
     14 CAD       -14.0620  -81.8880  -41.1310 C.ar      1 QPP1314     0.0000 
     15 C5        -13.9940  -82.7320  -40.0020 C.ar      1 QPP1314     0.0000 
     16 C6        -12.8740  -82.7630  -39.1510 C.ar      1 QPP1314     0.0000 
     17 NAQ       -11.8320  -81.9320  -39.4080 N.pl3     1 QPP1314     0.0000 
     18 CAR       -10.7080  -81.8510  -38.6740 C.2       1 QPP1314     0.0000 
     19 CAV       -10.2080  -82.7120  -37.7780 C.2       1 QPP1314     0.0000 
     20 CAU        -9.0730  -82.1370  -37.3990 C.2       1 QPP1314     0.0000 
     21 CAW        -8.0880  -82.7130  -36.3870 C.3       1 QPP1314     0.0000 
     22 NAT        -8.9040  -80.9790  -38.0310 N.pl3     1 QPP1314     0.0000 
     23 NAS        -9.8760  -80.8290  -38.7800 N.2       1 QPP1314     0.0000 
     24 H         -12.6470  -84.0240  -35.5509 H         1 QPP1314     0.0000 
     25 H         -12.6145  -85.4630  -33.6019 H         1 QPP1314     0.0000 
     26 H         -13.9123  -87.5036  -33.5750 H         1 QPP1314     0.0000 
     27 H         -15.2151  -88.1301  -35.5180 H         1 QPP1314     0.0000 
     28 H         -15.2421  -86.7082  -37.4644 H         1 QPP1314     0.0000 
     29 H         -17.0024  -84.1500  -40.3257 H         1 QPP1314     0.0000 
     30 H         -17.0985  -82.6935  -42.2584 H         1 QPP1314     0.0000 
     31 H         -15.2019  -81.2605  -42.7894 H         1 QPP1314     0.0000 
     32 H         -13.2568  -81.2669  -41.3381 H         1 QPP1314     0.0000 
     33 H         -11.9166  -81.2895  -40.2678 H         1 QPP1314     0.0000 
     34 H         -10.5786  -83.5277  -37.4910 H         1 QPP1314     0.0000 
     35 H          -8.1275  -80.3907  -37.8885 H         1 QPP1314     0.0000 
     36 H          -7.7352  -83.6026  -36.6770 H         1 QPP1314     0.0000 
     37 H          -7.2986  -82.1136  -36.2545 H         1 QPP1314     0.0000 
     38 H          -8.5107  -82.8435  -35.4902 H         1 QPP1314     0.0000 
@<TRIPOS>BOND
     1    2    1 ar   
     2    6    1 ar   
     3   24    1 1    
     4    3    2 ar   
     5   25    2 1    
     6    4    3 ar   
     7   26    3 1    
     8    5    4 ar   
     9   27    4 1    
    10    6    5 ar   
    11   28    5 1    
    12    7    6 1    
    13    8    7 ar   
    14    9    7 ar   
    15   16    8 ar   
    16   10    9 ar   
    17   11   10 ar   
    18   15   10 ar   
    19   12   11 ar   
    20   29   11 1    
    21   13   12 ar   
    22   30   12 1    
    23   14   13 ar   
    24   31   13 1    
    25   15   14 ar   
    26   32   14 1    
    27   16   15 ar   
    28   17   16 1    
    29   18   17 1    
    30   33   17 1    
    31   19   18 1    
    32   23   18 2    
    33   20   19 2    
    34   34   19 1    
    35   21   20 1    
    36   22   20 1    
    37   36   21 1    
    38   37   21 1    
    39   38   21 1    
    40   23   22 1    
    41   35   22 1    
@<TRIPOS>SUBSTRUCTURE
     1 QPP1314     1 GROUP   
@<TRIPOS>SET

