#    Name: 3vs4_VSF_1_INTS_M
#    Modification time : Tue Mar 25 01:26:08 2014

@<TRIPOS>MOLECULE
3vs4_VSF_1_INTS_M
   83     0     9     0     0
SMALL
NO_CHARGES


@<TRIPOS>ATOM
      1 O           3.7910   -6.1230   12.4805 O.2       1 ALC1        0.0000 
      2 O           3.3770   -7.6390   12.6310 O.2       7 ALL1        0.0000 
      3 O           4.2050   -4.6070   12.3300 O.2       4 ALP1        0.0000 
      4 N           6.4270   -7.0915   11.6500 N.am      2 SEC2        0.0000 
      5 N           5.3980   -8.1840   11.5810 N.am      8 SEL2        0.0000 
      6 N           7.4560   -5.9990   11.7190 N.am      5 SEP2        0.0000 
      7 CA          5.8185  -10.2895    9.3670 C.3       3 GLC5        0.0000 
      8 CA          6.2920   -9.0870   11.1580 C.3       9 GLL5        0.0000 
      9 CA          5.3450  -11.4920    7.5760 C.3       6 GLP5        0.0000 
     10 CA          4.4390   -8.0645   10.4180 C.3       3 GLC5        0.0000 
     11 CA          2.5860   -7.0420    9.6780 C.3       6 GLP5        0.0000 
     12 CA          7.4675   -7.7030   11.8330 C.3       3 GLC5        0.0000 
     13 CA          8.6430   -6.3190   12.5080 C.3       6 GLP5        0.0000 
     14 CA          5.1600  -11.1645    9.7770 C.3       3 GLC5        0.0000 
     15 CA          4.9750  -10.8370   11.9780 C.3       9 GLL5        0.0000 
     16 CA          5.4735  -10.8510   13.7840 C.3       3 GLC5        0.0000 
     17 CA          5.9720  -10.8650   15.5900 C.3       6 GLP5        0.0000 
     18 CA          4.6480  -14.0530    9.1195 C.3       3 GLC5        0.0000 
     19 CA          4.4360  -14.1920   11.0260 C.3       9 GLL5        0.0000 
     20 CA          4.8600  -13.9140    7.2130 C.3       6 GLP5        0.0000 
     21 CA          3.4365  -16.6230    9.9110 C.3       3 GLC5        0.0000 
     22 CA          4.3300  -15.6240   11.5410 C.3       9 GLL5        0.0000 
     23 CA          2.5430  -17.6220    8.2810 C.3       6 GLP5        0.0000 
     24 CA          0.9155  -11.6280   12.3720 C.3       3 GLC5        0.0000 
     25 CA          1.7360  -10.1670   13.6590 C.3       9 GLL5        0.0000 
     26 CA          0.0950  -13.0890   11.0850 C.3       6 GLP5        0.0000 
     27 CA         -1.7435   -9.8120   12.6290 C.3       3 GLC5        0.0000 
     28 CA         -0.3000   -8.8920   13.4100 C.3       9 GLL5        0.0000 
     29 CA         -3.1870  -10.7320   11.8480 C.3       6 GLP5        0.0000 
     30 CA          1.3580  -10.6410   11.2905 C.3       3 GLC5        0.0000 
     31 CA          0.9090   -9.3500   12.8990 C.3       9 GLL5        0.0000 
     32 CA          1.8070  -11.9320    9.6820 C.3       6 GLP5        0.0000 
     33 CA          1.7475   -8.1960   11.2885 C.3       3 GLC5        0.0000 
     34 CA         -3.4205   -7.2870   15.1375 C.3       3 GLC5        0.0000 
     35 CA         -2.1430   -8.3520   16.4020 C.3       9 GLL5        0.0000 
     36 CA         -4.6980   -6.2220   13.8730 C.3       6 GLP5        0.0000 
     37 CA          0.1940   -8.1465   19.1190 C.3       3 GLC5        0.0000 
     38 CA         -1.4790   -7.0350   18.3060 C.3       9 GLL5        0.0000 
     39 CA          1.8670   -9.2580   19.9320 C.3       6 GLP5        0.0000 
     40 CA         -5.2600   -7.4095   19.1675 C.3       3 GLC5        0.0000 
     41 CA         -3.4880   -8.3640   18.3950 C.3       9 GLL5        0.0000 
     42 CA         -7.0320   -6.4550   19.9400 C.3       6 GLP5        0.0000 
     43 CA         -4.8505   -8.7655   15.7810 C.3       3 GLC5        0.0000 
     44 CA         -3.2610   -8.8020   17.0970 C.3       9 GLL5        0.0000 
     45 CA         -6.4400   -8.7290   14.4650 C.3       6 GLP5        0.0000 
     46 CA          3.3665   -8.1445   10.9992 C.3       3 GLC5        0.0000 
     47 CA          4.0300   -9.9230   12.4290 C.3       9 GLL5        0.0000 
     48 CA          4.5000   -8.9535   14.1092 C.3       3 GLC5        0.0000 
     49 CA          4.2640   -8.5710   12.2120 C.3       9 GLL5        0.0000 
     50 CA          4.8530   -8.6600   15.8980 C.3       6 GLP5        0.0000 
     51 CA          3.3270  -12.8518   10.5970 C.3       3 GLC5        0.0000 
     52 CA          5.2580  -13.3510   11.9980 C.3       9 GLL5        0.0000 
     53 CA          5.6615  -12.2993   14.1205 C.3       3 GLC5        0.0000 
     54 CA          6.9350  -15.0100   14.6732 C.3       3 GLC5        0.0000 
     55 CA          5.4440  -14.1160   13.3040 C.3       9 GLL5        0.0000 
     56 CA          8.0810  -15.2310   16.1570 C.3       6 GLP5        0.0000 
     57 CA          4.5798  -11.0922   14.2840 C.3       3 GLC5        0.0000 
     58 CA          3.3660  -11.9880   12.9190 C.3       9 GLL5        0.0000 
     59 CA          3.1877   -9.5135   15.0950 C.3       3 GLC5        0.0000 
     60 CA          1.3090  -10.5670   14.9250 C.3       9 GLL5        0.0000 
     61 CA          1.5630  -10.0348   16.8895 C.3       3 GLC5        0.0000 
     62 CA          2.4270   -9.7310   18.6000 C.3       6 GLP5        0.0000 
     63 CA         -1.0980  -11.1610   14.4915 C.3       3 GLC5        0.0000 
     64 CA          0.0890  -10.1100   15.4330 C.3       9 GLL5        0.0000 
     65 CA         -1.8790  -12.6310   13.9310 C.3       6 GLP5        0.0000 
     66 CA         -0.3316  -11.2447   13.7632 C.3       3 GLC5        0.0000 
     67 CA         -0.3031   -7.3350   13.5869 C.3       3 GLC5        0.0000 
     68 CA         -0.7230   -9.2720   14.6710 C.3       9 GLL5        0.0000 
     69 CA         -0.8050   -5.4540   13.7040 C.3       6 GLP5        0.0000 
     70 CA         -1.2520   -6.6835   15.2043 C.3       3 GLC5        0.0000 
     71 CA         -1.6665   -9.3230   18.3837 C.3       3 GLC5        0.0000 
     72 CA         -1.2550   -7.4740   17.0070 C.3       9 GLL5        0.0000 
     73 CA         -1.6340  -10.7330   20.0630 C.3       6 GLP5        0.0000 
     74 CA          0.2960   -6.6242   17.9273 C.3       3 GLC5        0.0000 
     75 CA          1.9590   -5.9940   18.1980 C.3       6 GLP5        0.0000 
     76 CA         -1.8360   -8.9955   19.3580 C.3       3 GLC5        0.0000 
     77 CA         -2.0940   -5.3349   18.3331 C.3       3 GLC5        0.0000 
     78 CA         -2.5970   -7.4810   19.0000 C.3       9 GLL5        0.0000 
     79 CA         -2.2060   -3.3020   18.3380 C.3       6 GLP5        0.0000 
     80 CA         -2.5042   -9.6580   18.9045 C.3       3 GLC5        0.0000 
     81 CA         -5.0557   -9.7170   17.7395 C.3       3 GLC5        0.0000 
     82 CA         -6.7370  -10.8510   17.7330 C.3       6 GLP5        0.0000 
     83 CA          2.8260  -11.3909   11.1364 C.3       3 GLC5        0.0000 
@<TRIPOS>BOND
@<TRIPOS>SUBSTRUCTURE
     1 ALC1        1 GROUP        1 X    ALC  0     ROOT ALC X 1
     2 SEC2        4 GROUP        1 X    SEC  0     **** SEC X 2
     3 GLC5        7 GROUP        1 X    GLC  0     **** GLC X 6
     4 ALP1        3 GROUP        1 Y    ALP  0     ROOT ALP Y 8
     5 SEP2        6 GROUP        1 Y    SEP  0     **** SEP Y 9
     6 GLP5        9 GROUP        1 Y    GLP  0     **** GLP Y 13
     7 ALL1        2 GROUP        1 Z    ALL  0     ROOT ALL Z 15
     8 SEL2        5 GROUP        1 Z    SEL  0     **** SEL Z 16
     9 GLL5        8 GROUP        1 Z    GLL  0     **** GLL Z 20
@<TRIPOS>SET

