#    Name: 3vs4_VSF_1_ligand
#    Modification time : Tue Mar 25 01:26:08 2014

@<TRIPOS>MOLECULE
3vs4_VSF_1_ligand
   51    55     1     0     0
SMALL
NO_CHARGES


@<TRIPOS>ATOM
      1 NAK         3.3770   -7.6390   12.6310 N.pl3     1 VSF603      0.0000 
      2 C6          4.2640   -8.5710   12.2120 C.ar      1 VSF603      0.0000 
      3 N1          5.3980   -8.1840   11.5810 N.ar      1 VSF603      0.0000 
      4 C2          6.2920   -9.0870   11.1580 C.ar      1 VSF603      0.0000 
      5 N3          6.0900  -10.3900   11.3460 N.ar      1 VSF603      0.0000 
      6 C4          4.9750  -10.8370   11.9780 C.ar      1 VSF603      0.0000 
      7 C5          4.0300   -9.9230   12.4290 C.ar      1 VSF603      0.0000 
      8 NAG         4.5510  -12.0770   12.2980 N.pl3     1 VSF603      0.0000 
      9 CAQ         5.2580  -13.3510   11.9980 C.3       1 VSF603      0.0000 
     10 CAV         4.4360  -14.1920   11.0260 C.3       1 VSF603      0.0000 
     11 CAU         4.3300  -15.6240   11.5410 C.3       1 VSF603      0.0000 
     12 OAT         5.6460  -16.0790   11.8710 O.3       1 VSF603      0.0000 
     13 CAS         6.1340  -15.4620   13.0750 C.3       1 VSF603      0.0000 
     14 CAR         5.4440  -14.1160   13.3040 C.3       1 VSF603      0.0000 
     15 CAH         3.3660  -11.9880   12.9190 C.2       1 VSF603      0.0000 
     16 CAI         3.0090  -10.6510   13.0370 C.2       1 VSF603      0.0000 
     17 CAJ         1.7360  -10.1670   13.6590 C.ar      1 VSF603      0.0000 
     18 CAL         1.3090  -10.5670   14.9250 C.ar      1 VSF603      0.0000 
     19 CAM         0.0890  -10.1100   15.4330 C.ar      1 VSF603      0.0000 
     20 CAN        -0.7230   -9.2720   14.6710 C.ar      1 VSF603      0.0000 
     21 CAO        -0.3000   -8.8920   13.4100 C.ar      1 VSF603      0.0000 
     22 CAP         0.9090   -9.3500   12.8990 C.ar      1 VSF603      0.0000 
     23 OBD        -1.9280   -8.7940   15.1230 O.3       1 VSF603      0.0000 
     24 CBE        -2.1430   -8.3520   16.4020 C.ar      1 VSF603      0.0000 
     25 CBJ        -1.2550   -7.4740   17.0070 C.ar      1 VSF603      0.0000 
     26 CBI        -1.4790   -7.0350   18.3060 C.ar      1 VSF603      0.0000 
     27 CBH        -2.5970   -7.4810   19.0000 C.ar      1 VSF603      0.0000 
     28 CBG        -3.4880   -8.3640   18.3950 C.ar      1 VSF603      0.0000 
     29 CBF        -3.2610   -8.8020   17.0970 C.ar      1 VSF603      0.0000 
     30 H           2.5609   -7.9849   13.0939 H         1 VSF603      0.0000 
     31 H           3.6163   -6.6869   12.4406 H         1 VSF603      0.0000 
     32 H           7.1656   -8.7591   10.6704 H         1 VSF603      0.0000 
     33 H           6.2156  -13.1524   11.5734 H         1 VSF603      0.0000 
     34 H           4.9188  -14.1937   10.0542 H         1 VSF603      0.0000 
     35 H           3.4414  -13.7676   10.9349 H         1 VSF603      0.0000 
     36 H           3.8757  -16.2308   10.7582 H         1 VSF603      0.0000 
     37 H           3.6721  -15.6218   12.4097 H         1 VSF603      0.0000 
     38 H           7.2153  -15.2803   13.0238 H         1 VSF603      0.0000 
     39 H           5.9436  -16.0906   13.9545 H         1 VSF603      0.0000 
     40 H           4.4681  -14.2884   13.7631 H         1 VSF603      0.0000 
     41 H           6.0474  -13.5174   13.9898 H         1 VSF603      0.0000 
     42 H           2.8257  -12.7198   13.2429 H         1 VSF603      0.0000 
     43 H           1.8917  -11.1996   15.4876 H         1 VSF603      0.0000 
     44 H          -0.2094  -10.3955   16.3759 H         1 VSF603      0.0000 
     45 H          -0.8873   -8.2604   12.8388 H         1 VSF603      0.0000 
     46 H           1.1949   -9.0794   11.9434 H         1 VSF603      0.0000 
     47 H          -0.4251   -7.1455   16.4909 H         1 VSF603      0.0000 
     48 H          -0.8216   -6.3842   18.7510 H         1 VSF603      0.0000 
     49 H          -2.7682   -7.1594   19.9621 H         1 VSF603      0.0000 
     50 H          -4.3152   -8.6912   18.9121 H         1 VSF603      0.0000 
     51 H          -3.9152   -9.4556   16.6508 H         1 VSF603      0.0000 
@<TRIPOS>BOND
     1    2    1 1    
     2   30    1 1    
     3   31    1 1    
     4    3    2 ar   
     5    7    2 ar   
     6    4    3 ar   
     7    5    4 ar   
     8   32    4 1    
     9    6    5 ar   
    10    7    6 ar   
    11    8    6 1    
    12   16    7 1    
    13    9    8 1    
    14   15    8 1    
    15   10    9 1    
    16   14    9 1    
    17   33    9 1    
    18   11   10 1    
    19   34   10 1    
    20   35   10 1    
    21   12   11 1    
    22   36   11 1    
    23   37   11 1    
    24   13   12 1    
    25   14   13 1    
    26   38   13 1    
    27   39   13 1    
    28   40   14 1    
    29   41   14 1    
    30   16   15 2    
    31   42   15 1    
    32   17   16 1    
    33   18   17 ar   
    34   22   17 ar   
    35   19   18 ar   
    36   43   18 1    
    37   20   19 ar   
    38   44   19 1    
    39   21   20 ar   
    40   23   20 1    
    41   22   21 ar   
    42   45   21 1    
    43   46   22 1    
    44   24   23 1    
    45   25   24 ar   
    46   29   24 ar   
    47   26   25 ar   
    48   47   25 1    
    49   27   26 ar   
    50   48   26 1    
    51   28   27 ar   
    52   49   27 1    
    53   29   28 ar   
    54   50   28 1    
    55   51   29 1    
@<TRIPOS>SUBSTRUCTURE
     1 VSF603      1 GROUP   
@<TRIPOS>SET

