#    Name: 2pvh_P19_1_INTS_M
#    Modification time : Mon Mar 24 19:24:36 2014

@<TRIPOS>MOLECULE
2pvh_P19_1_INTS_M
   41     0     6     0     0
SMALL
NO_CHARGES


@<TRIPOS>ATOM
      1 CA         20.3445   10.3545   15.5075 C.3       2 GLC5        0.0000 
      2 CA         20.7410    9.9760   17.2870 C.3       6 GLL5        0.0000 
      3 CA         19.9480   10.7330   13.7280 C.3       4 GLP5        0.0000 
      4 O          18.8660    9.9950   21.9015 O.2       1 ALC1        0.0000 
      5 O          19.9680    9.0610   21.7140 O.2       5 ALL1        0.0000 
      6 O          17.7640   10.9290   22.0890 O.2       3 ALP1        0.0000 
      7 CA         18.3420    8.0075   23.3800 C.3       2 GLC5        0.0000 
      8 CA         20.0070    9.2480   24.0730 C.3       6 GLL5        0.0000 
      9 CA         16.6770    6.7670   22.6870 C.3       4 GLP5        0.0000 
     10 CA         20.5740    5.6990   20.6725 C.3       2 GLC5        0.0000 
     11 CA         22.5070    5.2570   21.5200 C.3       6 GLL5        0.0000 
     12 CA         18.6410    6.1410   19.8250 C.3       4 GLP5        0.0000 
     13 CA         21.5998   10.9943   18.7987 C.3       2 GLC5        0.0000 
     14 CA         21.1840    9.0930   18.3460 C.3       6 GLL5        0.0000 
     15 CA         22.2370   12.4540   19.7810 C.3       4 GLP5        0.0000 
     16 CA         19.4423    8.1783   18.0703 C.3       2 GLC5        0.0000 
     17 CA         17.9220    6.8220   18.3240 C.3       4 GLP5        0.0000 
     18 CA         20.0978    8.4008   16.4898 C.3       2 GLC5        0.0000 
     19 CA         19.2330    7.2670   15.1630 C.3       4 GLP5        0.0000 
     20 CA         22.2167    8.2290   23.5095 C.3       2 GLC5        0.0000 
     21 CA         20.0910    8.4590   22.9270 C.3       6 GLL5        0.0000 
     22 CA         24.2560    8.6880   24.0190 C.3       4 GLP5        0.0000 
     23 CA         19.4093    6.9555   21.4125 C.3       2 GLC5        0.0000 
     24 CA         20.2640    7.0810   23.0730 C.3       6 GLL5        0.0000 
     25 CA         22.0598    7.5835   25.1630 C.3       2 GLC5        0.0000 
     26 CA         20.3340    6.4790   24.3290 C.3       6 GLL5        0.0000 
     27 CA         23.8400    8.2900   25.4280 C.3       4 GLP5        0.0000 
     28 CA         18.4664    6.9458   23.1758 C.3       2 GLC5        0.0000 
     29 CA         21.9395    8.6207   25.0658 C.3       2 GLC5        0.0000 
     30 CA         24.3570    4.9313   22.2805 C.3       2 GLC5        0.0000 
     31 CA         25.8690    4.5460   23.6490 C.3       4 GLP5        0.0000 
     32 CA         25.1720    5.7260   19.7400 C.3       2 GLC5        0.0000 
     33 CA         23.1830    5.3760   20.3040 C.3       6 GLL5        0.0000 
     34 CA         26.8350    6.6370   19.4300 C.3       4 GLP5        0.0000 
     35 CA         22.2010    4.9965   18.4330 C.3       2 GLC5        0.0000 
     36 CA         23.8350    4.2540   19.7960 C.3       6 GLL5        0.0000 
     37 CA         20.8930    5.1780   16.8160 C.3       4 GLP5        0.0000 
     38 CA         24.3250    4.0222   22.8057 C.3       2 GLC5        0.0000 
     39 CA         22.4580    4.0560   22.2260 C.3       6 GLL5        0.0000 
     40 CA         24.8420    4.0980   21.8965 C.3       2 GLC5        0.0000 
     41 CA         23.7950    3.0460   20.4920 C.3       6 GLL5        0.0000 
@<TRIPOS>BOND
@<TRIPOS>SUBSTRUCTURE
     1 ALC1        4 GROUP        1 X    ALC  0     ROOT ALC X 1
     2 GLC5        1 GROUP        1 X    GLC  0     **** GLC X 6
     3 ALP1        6 GROUP        1 Y    ALP  0     ROOT ALP Y 8
     4 GLP5        3 GROUP        1 Y    GLP  0     **** GLP Y 13
     5 ALL1        5 GROUP        1 Z    ALL  0     ROOT ALL Z 15
     6 GLL5        2 GROUP        1 Z    GLL  0     **** GLL Z 20
@<TRIPOS>SET

