#    Name: 2pvh_P19_1_ligand
#    Modification time : Mon Mar 24 19:24:36 2014

@<TRIPOS>MOLECULE
2pvh_P19_1_ligand
   37    40     1     0     0
SMALL
NO_CHARGES


@<TRIPOS>ATOM
      1 N01        19.6130   10.4240   19.1490 N.2       1 P19501      0.0000 
      2 C02        19.7530   10.7890   17.8550 C.2       1 P19501      0.0000 
      3 C03        20.7410    9.9760   17.2870 C.2       1 P19501      0.0000 
      4 C04        21.1840    9.0930   18.3460 C.2       1 P19501      0.0000 
      5 N05        20.4670    9.4040   19.4660 N.pl3     1 P19501      0.0000 
      6 N06        22.1120    8.1230   18.3910 N.2       1 P19501      0.0000 
      7 C07        22.2920    7.5010   19.5510 C.2       1 P19501      0.0000 
      8 N08        21.6020    7.7910   20.6520 N.2       1 P19501      0.0000 
      9 C09        20.6820    8.7520   20.6000 C.2       1 P19501      0.0000 
     10 N10        19.9680    9.0610   21.7140 N.pl3     1 P19501      0.0000 
     11 C11        20.0910    8.4590   22.9270 C.ar      1 P19501      0.0000 
     12 C12        20.2640    7.0810   23.0730 C.ar      1 P19501      0.0000 
     13 C13        20.3340    6.4790   24.3290 C.ar      1 P19501      0.0000 
     14 C14        20.2250    7.2750   25.4670 C.ar      1 P19501      0.0000 
     15 C15        20.0710    8.6550   25.3340 C.ar      1 P19501      0.0000 
     16 C16        20.0070    9.2480   24.0730 C.ar      1 P19501      0.0000 
     17 N17        23.2470    6.5330   19.5930 N.pl3     1 P19501      0.0000 
     18 C18        23.1830    5.3760   20.3040 C.ar      1 P19501      0.0000 
     19 C19        22.5070    5.2570   21.5200 C.ar      1 P19501      0.0000 
     20 C20        22.4580    4.0560   22.2260 C.ar      1 P19501      0.0000 
     21 C21        23.1040    2.9410   21.6990 C.ar      1 P19501      0.0000 
     22 C22        23.7950    3.0460   20.4920 C.ar      1 P19501      0.0000 
     23 C23        23.8350    4.2540   19.7960 C.ar      1 P19501      0.0000 
     24 H          19.2801   11.4702   17.3889 H         1 P19501      0.0000 
     25 H          21.0620    9.9792   16.4250 H         1 P19501      0.0000 
     26 H          19.2406    9.8522   21.6292 H         1 P19501      0.0000 
     27 H          20.3426    6.4891   22.2226 H         1 P19501      0.0000 
     28 H          20.4632    5.4703   24.4125 H         1 P19501      0.0000 
     29 H          20.2577    6.8490   26.3991 H         1 P19501      0.0000 
     30 H          20.0036    9.2445   26.1788 H         1 P19501      0.0000 
     31 H          19.8980   10.2657   23.9895 H         1 P19501      0.0000 
     32 H          24.1393    6.6996   19.0065 H         1 P19501      0.0000 
     33 H          22.0242    6.0929   21.9113 H         1 P19501      0.0000 
     34 H          21.9580    3.9961   23.1120 H         1 P19501      0.0000 
     35 H          23.0725    2.0441   22.1962 H         1 P19501      0.0000 
     36 H          24.2823    2.2204   20.1095 H         1 P19501      0.0000 
     37 H          24.3466    4.3163   18.9065 H         1 P19501      0.0000 
@<TRIPOS>BOND
     1    2    1 2    
     2    5    1 1    
     3    3    2 1    
     4   24    2 1    
     5    4    3 2    
     6   25    3 1    
     7    5    4 1    
     8    6    4 1    
     9    9    5 1    
    10    7    6 2    
    11    8    7 1    
    12   17    7 1    
    13    9    8 2    
    14   10    9 1    
    15   11   10 1    
    16   26   10 1    
    17   12   11 ar   
    18   16   11 ar   
    19   13   12 ar   
    20   27   12 1    
    21   14   13 ar   
    22   28   13 1    
    23   15   14 ar   
    24   29   14 1    
    25   16   15 ar   
    26   30   15 1    
    27   31   16 1    
    28   18   17 1    
    29   32   17 1    
    30   19   18 ar   
    31   23   18 ar   
    32   20   19 ar   
    33   33   19 1    
    34   21   20 ar   
    35   34   20 1    
    36   22   21 ar   
    37   35   21 1    
    38   23   22 ar   
    39   36   22 1    
    40   37   23 1    
@<TRIPOS>SUBSTRUCTURE
     1 P19501      1 GROUP   
@<TRIPOS>SET

