#    Name: 3lt1_FT2_2_INTS_M
#    Modification time : Mon Mar 24 22:15:06 2014

@<TRIPOS>MOLECULE
3lt1_FT2_2_INTS_M
   68     0     9     0     0
SMALL
NO_CHARGES


@<TRIPOS>ATOM
      1 CA         15.9875   96.8270   24.7750 C.3       3 GLC5        0.0000 
      2 CA         14.0510   96.5490   24.8950 C.3       9 GLL5        0.0000 
      3 CA         17.9240   97.1050   24.6550 C.3       6 GLP5        0.0000 
      4 CA         10.2040   94.6010   25.6970 C.3       3 GLC5        0.0000 
      5 CA         11.9770   95.2640   25.1090 C.3       9 GLL5        0.0000 
      6 CA          8.4310   93.9380   26.2850 C.3       6 GLP5        0.0000 
      7 CA         11.2740   93.1505   25.0295 C.3       3 GLC5        0.0000 
      8 CA         10.5710   91.0370   24.9500 C.3       6 GLP5        0.0000 
      9 CA          9.5855   95.7455   25.7165 C.3       3 GLC5        0.0000 
     10 CA         11.4050   96.3430   25.7780 C.3       9 GLL5        0.0000 
     11 CA          7.7660   95.1480   25.6550 C.3       6 GLP5        0.0000 
     12 CA          9.5580  103.7180   25.9605 C.3       3 GLC5        0.0000 
     13 CA          9.6990  101.5520   25.9380 C.3       9 GLL5        0.0000 
     14 CA          9.4170  105.8840   25.9830 C.3       6 GLP5        0.0000 
     15 CA          9.8555  100.7435   21.9515 C.3       3 GLC5        0.0000 
     16 CA         10.2470  100.4080   23.8540 C.3       9 GLL5        0.0000 
     17 CA          9.4640  101.0790   20.0490 C.3       6 GLP5        0.0000 
     18 CA         15.4860   93.9710   23.0985 C.3       3 GLC5        0.0000 
     19 CA         14.0210   94.3120   23.9300 C.3       9 GLL5        0.0000 
     20 CA         16.9510   93.6300   22.2670 C.3       6 GLP5        0.0000 
     21 CA         14.1170   96.3290   23.0900 C.3       3 GLC5        0.0000 
     22 CA         14.2130   98.3460   22.2500 C.3       6 GLP5        0.0000 
     23 CA         15.4240   93.1275   24.0600 C.3       3 GLC5        0.0000 
     24 CA         13.4110   92.7930   24.5400 C.3       9 GLL5        0.0000 
     25 CA         17.4370   93.4620   23.5800 C.3       6 GLP5        0.0000 
     26 CA         13.8270   91.4735   25.6240 C.3       3 GLC5        0.0000 
     27 CA         14.2430   90.1540   26.7080 C.3       6 GLP5        0.0000 
     28 CA         11.9910   91.9150   24.7450 C.3       3 GLC5        0.0000 
     29 CA          9.0855  104.3105   24.8465 C.3       3 GLC5        0.0000 
     30 CA          8.7540  102.7370   23.7100 C.3       9 GLL5        0.0000 
     31 CA          9.3640  104.2210   22.6495 C.3       3 GLC5        0.0000 
     32 CA          9.9740  105.7050   21.5890 C.3       6 GLP5        0.0000 
     33 CA          8.5870  102.4755   21.8110 C.3       3 GLC5        0.0000 
     34 CA          8.4200  102.2140   19.9120 C.3       6 GLP5        0.0000 
     35 CA         10.6235  102.8600   22.7315 C.3       3 GLC5        0.0000 
     36 CA         12.4930  102.9830   21.7530 C.3       6 GLP5        0.0000 
     37 CA         11.5190  102.0410   28.0210 C.3       3 GLC5        0.0000 
     38 CA         10.4300  100.7430   28.4100 C.3       9 GLL5        0.0000 
     39 CA         12.6080  103.3390   27.6320 C.3       6 GLP5        0.0000 
     40 CA          8.9225   99.8330   28.2205 C.3       3 GLC5        0.0000 
     41 CA          7.4150   98.9230   28.0310 C.3       6 GLP5        0.0000 
     42 CA         12.0190  100.5380   29.1910 C.3       3 GLC5        0.0000 
     43 CA         13.6080  100.3330   29.9720 C.3       6 GLP5        0.0000 
     44 N          14.3410   99.3715   26.7285 N.am      2 SEC2        0.0000 
     45 N          14.2350   98.7400   25.7280 N.am      8 SEL2        0.0000 
     46 N          14.4470  100.0030   27.7290 N.am      5 SEP2        0.0000 
     47 O          14.8145   99.2215   24.7565 O.2       1 ALC1        0.0000 
     48 O          14.2350   98.7400   25.7280 O.2       7 ALL1        0.0000 
     49 O          15.3940   99.7030   23.7850 O.2       4 ALP1        0.0000 
     50 CA         10.8760   96.8700   24.0205 C.3       3 GLC5        0.0000 
     51 CA         12.1730   97.5050   25.9880 C.3       9 GLL5        0.0000 
     52 CA          9.9630   96.8160   22.1580 C.3       6 GLP5        0.0000 
     53 CA         13.3417   98.4565   27.3105 C.3       3 GLC5        0.0000 
     54 CA         13.8520   99.3540   28.8530 C.3       6 GLP5        0.0000 
     55 CA         11.3025   96.0727   23.5265 C.3       3 GLC5        0.0000 
     56 CA         13.3070   95.3950   24.6810 C.3       9 GLL5        0.0000 
     57 CA         12.2658   99.7057   27.5673 C.3       3 GLC5        0.0000 
     58 CA         10.3760  100.5800   26.6250 C.3       9 GLL5        0.0000 
     59 CA         11.3986  102.0719   26.8709 C.3       3 GLC5        0.0000 
     60 CA         10.9830   99.5350   25.9380 C.3       9 GLL5        0.0000 
     61 CA          8.8021   99.8639   27.0704 C.3       3 GLC5        0.0000 
     62 CA         11.2205  101.9567   22.9797 C.3       3 GLC5        0.0000 
     63 CA          9.6490  101.4530   24.5590 C.3       9 GLL5        0.0000 
     64 CA         10.2755   98.3700   23.1818 C.3       3 GLC5        0.0000 
     65 CA         12.7215   93.5942   22.5170 C.3       3 GLC5        0.0000 
     66 CA         11.7270   93.6360   20.7990 C.3       6 GLP5        0.0000 
     67 CA         14.4710   94.0652   25.8490 C.3       3 GLC5        0.0000 
     68 CA         15.2260   94.5780   27.4630 C.3       6 GLP5        0.0000 
@<TRIPOS>BOND
@<TRIPOS>SUBSTRUCTURE
     1 ALC1       47 GROUP        1 X    ALC  0     ROOT ALC X 1
     2 SEC2       44 GROUP        1 X    SEC  0     **** SEC X 2
     3 GLC5        1 GROUP        1 X    GLC  0     **** GLC X 6
     4 ALP1       49 GROUP        1 Y    ALP  0     ROOT ALP Y 8
     5 SEP2       46 GROUP        1 Y    SEP  0     **** SEP Y 9
     6 GLP5        3 GROUP        1 Y    GLP  0     **** GLP Y 13
     7 ALL1       48 GROUP        1 Z    ALL  0     ROOT ALL Z 15
     8 SEL2       45 GROUP        1 Z    SEL  0     **** SEL Z 16
     9 GLL5        2 GROUP        1 Z    GLL  0     **** GLL Z 20
@<TRIPOS>SET

