#    Name: 3lt1_FT2_2_ligand
#    Modification time : Mon Mar 24 22:15:06 2014

@<TRIPOS>MOLECULE
3lt1_FT2_2_ligand
   27    28     1     0     0
SMALL
NO_CHARGES


@<TRIPOS>ATOM
      1 C1         12.1730   97.5050   25.9880 C.ar      1 FT2602      0.0000 
      2 C2         13.4900   97.6130   25.5480 C.ar      1 FT2602      0.0000 
      3 C3         14.0510   96.5490   24.8950 C.ar      1 FT2602      0.0000 
      4 C4         13.3070   95.3950   24.6810 C.ar      1 FT2602      0.0000 
      5 C5         11.9770   95.2640   25.1090 C.ar      1 FT2602      0.0000 
      6 C6         11.4050   96.3430   25.7780 C.ar      1 FT2602      0.0000 
      7 O7         11.6380   98.5770   26.6390 O.3       1 FT2602      0.0000 
      8 C8         10.9830   99.5350   25.9380 C.ar      1 FT2602      0.0000 
      9 C9         10.3760  100.5800   26.6250 C.ar      1 FT2602      0.0000 
     10 C10         9.6990  101.5520   25.9380 C.ar      1 FT2602      0.0000 
     11 C11         9.6490  101.4530   24.5590 C.ar      1 FT2602      0.0000 
     12 C12        10.2470  100.4080   23.8540 C.ar      1 FT2602      0.0000 
     13 C13        10.9290   99.4400   24.5570 C.ar      1 FT2602      0.0000 
     14 C14        14.0210   94.3120   23.9300 C.3       1 FT2602      0.0000 
     15 CL15       13.4110   92.7930   24.5400 Cl        1 FT2602      0.0000 
     16 CL16        8.7540  102.7370   23.7100 Cl        1 FT2602      0.0000 
     17 CL17       10.4300  100.7430   28.4100 Cl        1 FT2602      0.0000 
     18 O18        14.2350   98.7400   25.7280 O.3       1 FT2602      0.0000 
     19 H          15.0253   96.5944   24.5581 H         1 FT2602      0.0000 
     20 H          11.4580   94.4161   24.9357 H         1 FT2602      0.0000 
     21 H          10.4441   96.2998   26.1141 H         1 FT2602      0.0000 
     22 H           9.2449  102.3252   26.4203 H         1 FT2602      0.0000 
     23 H          10.1756  100.3692   22.8362 H         1 FT2602      0.0000 
     24 H          11.3876   98.6652   24.0729 H         1 FT2602      0.0000 
     25 H          15.0559   94.2664   24.1346 H         1 FT2602      0.0000 
     26 H          13.7833   94.2824   22.9016 H         1 FT2602      0.0000 
     27 H          14.9367   98.7026   25.0165 H         1 FT2602      0.0000 
@<TRIPOS>BOND
     1    2    1 ar   
     2    6    1 ar   
     3    7    1 1    
     4    3    2 ar   
     5   18    2 1    
     6    4    3 ar   
     7   19    3 1    
     8    5    4 ar   
     9   14    4 1    
    10    6    5 ar   
    11   20    5 1    
    12   21    6 1    
    13    8    7 1    
    14    9    8 ar   
    15   13    8 ar   
    16   10    9 ar   
    17   17    9 1    
    18   11   10 ar   
    19   22   10 1    
    20   12   11 ar   
    21   16   11 1    
    22   13   12 ar   
    23   23   12 1    
    24   24   13 1    
    25   15   14 1    
    26   25   14 1    
    27   26   14 1    
    28   27   18 1    
@<TRIPOS>SUBSTRUCTURE
     1 FT2602      1 GROUP   
@<TRIPOS>SET

