#    Name: 3f88_3HT_3_INTS_M
#    Modification time : Tue Mar 25 03:20:44 2014

@<TRIPOS>MOLECULE
3f88_3HT_3_INTS_M
   54     0     6     0     0
SMALL
NO_CHARGES


@<TRIPOS>ATOM
      1 CA         33.9425  105.0245   13.9790 C.3       2 GLC5        0.0000 
      2 CA         32.6910  104.5250   12.3930 C.3       6 GLL5        0.0000 
      3 CA         35.1940  105.5240   15.5650 C.3       4 GLP5        0.0000 
      4 CA         39.0905  101.4950   13.8135 C.3       2 GLC5        0.0000 
      5 CA         37.2340  101.5960   12.8540 C.3       6 GLL5        0.0000 
      6 CA         40.9470  101.3940   14.7730 C.3       4 GLP5        0.0000 
      7 CA         34.4960   99.5595   14.6330 C.3       2 GLC5        0.0000 
      8 CA         35.5650  101.3930   14.5600 C.3       6 GLL5        0.0000 
      9 CA         33.4270   97.7260   14.7060 C.3       4 GLP5        0.0000 
     10 CA         35.4565  101.2920   19.1950 C.3       2 GLC5        0.0000 
     11 CA         34.2060  100.7610   17.7720 C.3       6 GLL5        0.0000 
     12 CA         36.7070  101.8230   20.6180 C.3       4 GLP5        0.0000 
     13 CA         33.8165   99.2435   16.2390 C.3       2 GLC5        0.0000 
     14 CA         32.0495  101.6550   20.3465 C.3       2 GLC5        0.0000 
     15 CA         33.1210  101.0820   19.0730 C.3       6 GLL5        0.0000 
     16 CA         30.9780  102.2280   21.6200 C.3       4 GLP5        0.0000 
     17 CA         34.4205  101.2010   20.3440 C.3       2 GLC5        0.0000 
     18 CA         35.7200  101.3200   21.6150 C.3       4 GLP5        0.0000 
     19 CA         37.8750  102.6540   10.5640 C.3       2 GLC5        0.0000 
     20 CA         36.3050  102.2830   12.0610 C.3       6 GLL5        0.0000 
     21 CA         39.4450  103.0250    9.0670 C.3       4 GLP5        0.0000 
     22 N          36.9450  102.3550    9.5305 N.am      1 SEC2        0.0000 
     23 N          36.4220  102.8080   10.8140 N.am      5 SEL2        0.0000 
     24 N          37.4680  101.9020    8.2470 N.am      3 SEP2        0.0000 
     25 CA         27.6515  104.4405    9.2515 C.3       2 GLC5        0.0000 
     26 CA         28.6030  105.6560   10.1850 C.3       6 GLL5        0.0000 
     27 CA         26.7000  103.2250    8.3180 C.3       4 GLP5        0.0000 
     28 CA         32.6497  101.6340   10.9638 C.3       2 GLC5        0.0000 
     29 CA         32.2430  103.4030   10.3580 C.3       6 GLL5        0.0000 
     30 CA         32.6020   99.7500   11.0380 C.3       4 GLP5        0.0000 
     31 CA         33.2811  105.8937   12.0312 C.3       2 GLC5        0.0000 
     32 CA         33.1520  103.6330   11.4210 C.3       6 GLL5        0.0000 
     33 CA         34.3840  107.1890   11.9360 C.3       4 GLP5        0.0000 
     34 CA         37.7995  102.9935   13.2822 C.3       2 GLC5        0.0000 
     35 CA         38.5500  104.6120   13.0800 C.3       4 GLP5        0.0000 
     36 CA         38.3820   99.8295   13.6013 C.3       2 GLC5        0.0000 
     37 CA         39.7150   98.2840   13.7180 C.3       4 GLP5        0.0000 
     38 CA         36.0200  100.2940   12.4618 C.3       2 GLC5        0.0000 
     39 CA         36.8640  101.1540   14.1150 C.3       6 GLL5        0.0000 
     40 CA         34.9910   99.2130   11.4390 C.3       4 GLP5        0.0000 
     41 CA         37.8057  101.4677   15.4897 C.3       2 GLC5        0.0000 
     42 CA         39.3970  101.6620   16.6420 C.3       4 GLP5        0.0000 
     43 CA         35.0455  100.4730   12.8035 C.3       2 GLC5        0.0000 
     44 CA         35.1240  103.8250   14.4537 C.3       2 GLC5        0.0000 
     45 CA         37.1032  103.5065   12.6845 C.3       2 GLC5        0.0000 
     46 CA         35.0080  102.5190   12.5170 C.3       6 GLL5        0.0000 
     47 CA         35.3237  100.8070   11.8640 C.3       2 GLC5        0.0000 
     48 CA         33.9162  102.8757   18.0492 C.3       2 GLC5        0.0000 
     49 CA         34.1690  104.8300   17.6760 C.3       4 GLP5        0.0000 
     50 CA         33.2912   99.2022   18.5922 C.3       2 GLC5        0.0000 
     51 CA         32.9190   97.4830   18.7620 C.3       4 GLP5        0.0000 
     52 CA         30.1212  102.5419   10.5236 C.3       2 GLC5        0.0000 
     53 CA         30.5600  104.8560   11.2960 C.3       6 GLL5        0.0000 
     54 CA         29.1620  100.8090   10.2430 C.3       4 GLP5        0.0000 
@<TRIPOS>BOND
@<TRIPOS>SUBSTRUCTURE
     1 SEC2       22 GROUP        1 X    SEC  0     ROOT SEC X 2
     2 GLC5        1 GROUP        1 X    GLC  0     **** GLC X 6
     3 SEP2       24 GROUP        1 Y    SEP  0     ROOT SEP Y 9
     4 GLP5        3 GROUP        1 Y    GLP  0     **** GLP Y 13
     5 SEL2       23 GROUP        1 Z    SEL  0     ROOT SEL Z 16
     6 GLL5        2 GROUP        1 Z    GLL  0     **** GLL Z 20
@<TRIPOS>SET

