#    Name: 3f88_3HT_3_ligand
#    Modification time : Tue Mar 25 03:20:44 2014

@<TRIPOS>MOLECULE
3f88_3HT_3_ligand
   35    38     1     0     0
SMALL
NO_CHARGES


@<TRIPOS>ATOM
      1 C4         30.9590  103.9840   10.2670 C.ar      1 3HT999      0.0000 
      2 C5         32.2430  103.4030   10.3580 C.ar      1 3HT999      0.0000 
      3 C6         33.1520  103.6330   11.4210 C.ar      1 3HT999      0.0000 
      4 C7         32.6910  104.5250   12.3930 C.ar      1 3HT999      0.0000 
      5 C8         31.4350  105.1180   12.3460 C.ar      1 3HT999      0.0000 
      6 C10        35.2450  103.3590   10.4720 C.2       1 3HT999      0.0000 
      7 C13        37.2340  101.5960   12.8540 C.ar      1 3HT999      0.0000 
      8 C15        35.5650  101.3930   14.5600 C.ar      1 3HT999      0.0000 
      9 C17        35.0080  102.5190   12.5170 C.ar      1 3HT999      0.0000 
     10 C21        34.2060  100.7610   17.7720 C.2       1 3HT999      0.0000 
     11 S22        33.1210  101.0820   19.0730 S.2       1 3HT999      0.0000 
     12 N20        35.0970   99.7640   17.8080 N.am      1 3HT999      0.0000 
     13 N19        35.7300   99.8790   16.5690 N.2       1 3HT999      0.0000 
     14 O32        34.1960  101.5100   16.6540 O.3       1 3HT999      0.0000 
     15 C18        35.1730  100.9300   15.8980 C.2       1 3HT999      0.0000 
     16 C14        36.8640  101.1540   14.1150 C.ar      1 3HT999      0.0000 
     17 C16        34.6350  102.0730   13.7760 C.ar      1 3HT999      0.0000 
     18 C12        36.3050  102.2830   12.0610 C.ar      1 3HT999      0.0000 
     19 N11        36.4220  102.8080   10.8140 N.2       1 3HT999      0.0000 
     20 N9         34.4090  103.1230   11.4910 N.pl3     1 3HT999      0.0000 
     21 C3         30.5600  104.8560   11.2960 C.ar      1 3HT999      0.0000 
     22 O2         29.3440  105.4860   11.3570 O.3       1 3HT999      0.0000 
     23 C1         28.6030  105.6560   10.1850 C.3       1 3HT999      0.0000 
     24 H          30.3520  103.7793    9.4911 H         1 3HT999      0.0000 
     25 H          32.5470  102.7561    9.5865 H         1 3HT999      0.0000 
     26 H          33.3263  104.7562   13.1959 H         1 3HT999      0.0000 
     27 H          31.1458  105.7630   13.1013 H         1 3HT999      0.0000 
     28 H          35.0470  103.8258    9.6620 H         1 3HT999      0.0000 
     29 H          38.1792  101.4247   12.4980 H         1 3HT999      0.0000 
     30 H          35.2766   99.1410   18.4635 H         1 3HT999      0.0000 
     31 H          37.5305  100.6606   14.7111 H         1 3HT999      0.0000 
     32 H          33.6890  102.2397   14.1278 H         1 3HT999      0.0000 
     33 H          29.1002  106.1966    9.5064 H         1 3HT999      0.0000 
     34 H          28.3802  104.7805    9.7562 H         1 3HT999      0.0000 
     35 H          27.7376  106.1264   10.3577 H         1 3HT999      0.0000 
@<TRIPOS>BOND
     1    2    1 ar   
     2   21    1 ar   
     3   24    1 1    
     4    3    2 ar   
     5   25    2 1    
     6    4    3 ar   
     7   20    3 1    
     8    5    4 ar   
     9   26    4 1    
    10   21    5 ar   
    11   27    5 1    
    12   19    6 2    
    13   20    6 1    
    14   28    6 1    
    15   16    7 ar   
    16   18    7 ar   
    17   29    7 1    
    18   15    8 1    
    19   16    8 ar   
    20   17    8 ar   
    21   17    9 ar   
    22   18    9 ar   
    23   20    9 1    
    24   11   10 2    
    25   12   10 am   
    26   14   10 1    
    27   13   12 1    
    28   30   12 1    
    29   15   13 2    
    30   15   14 1    
    31   31   16 1    
    32   32   17 1    
    33   19   18 1    
    34   22   21 1    
    35   23   22 1    
    36   33   23 1    
    37   34   23 1    
    38   35   23 1    
@<TRIPOS>SUBSTRUCTURE
     1 3HT999      1 GROUP   
@<TRIPOS>SET

