#    Name: 1grr_CLC_1_INTS_M
#    Modification time : Tue Mar 25 03:41:09 2014

@<TRIPOS>MOLECULE
1grr_CLC_1_INTS_M
   45     0     9     0     0
SMALL
NO_CHARGES


@<TRIPOS>ATOM
      1 O          11.1910   50.0640   34.0370 O.2       1 ALC1        0.0000 
      2 O          12.5400   49.4520   33.6560 O.2       7 ALL1        0.0000 
      3 O           9.8420   50.6760   34.4180 O.2       4 ALP1        0.0000 
      4 N          17.4960   51.6295   34.2795 N.am      2 SEC2        0.0000 
      5 N          16.1650   51.7220   33.7590 N.am      8 SEL2        0.0000 
      6 N          18.8270   51.5370   34.8000 N.am      5 SEP2        0.0000 
      7 CA          9.6015   53.9245   34.8555 C.3       3 GLC5        0.0000 
      8 CA         10.4040   53.2620   32.8710 C.3       9 GLL5        0.0000 
      9 CA          8.7990   54.5870   36.8400 C.3       6 GLP5        0.0000 
     10 CA         11.3445   55.1260   33.1225 C.3       3 GLC5        0.0000 
     11 CA         12.2850   56.9900   33.3740 C.3       6 GLP5        0.0000 
     12 CA         15.1050   49.1455   33.0915 C.3       3 GLC5        0.0000 
     13 CA         13.6790   50.1850   34.2300 C.3       9 GLL5        0.0000 
     14 CA         16.5310   48.1060   31.9530 C.3       6 GLP5        0.0000 
     15 CA         14.3530   49.1290   35.9495 C.3       3 GLC5        0.0000 
     16 CA         15.0270   48.0730   37.6690 C.3       6 GLP5        0.0000 
     17 CA         14.1920   54.3635   33.5015 C.3       3 GLC5        0.0000 
     18 CA         14.9680   52.4560   33.9870 C.3       9 GLL5        0.0000 
     19 CA         13.4160   56.2710   33.0160 C.3       6 GLP5        0.0000 
     20 CA         15.3710   51.8870   32.3235 C.3       3 GLC5        0.0000 
     21 CA         15.7740   51.3180   30.6600 C.3       6 GLP5        0.0000 
     22 CA         11.7080   54.7340   37.5110 C.3       3 GLC5        0.0000 
     23 CA         13.7640   53.9610   37.3740 C.3       9 GLL5        0.0000 
     24 CA          9.6520   55.5070   37.6480 C.3       6 GLP5        0.0000 
     25 CA         15.8405   50.5855   38.2170 C.3       3 GLC5        0.0000 
     26 CA         15.6740   52.4090   37.8330 C.3       9 GLL5        0.0000 
     27 CA         16.0070   48.7620   38.6010 C.3       6 GLP5        0.0000 
     28 CA         16.5835   50.4895   37.1935 C.3       3 GLC5        0.0000 
     29 CA         15.7890   52.1110   36.4590 C.3       9 GLL5        0.0000 
     30 CA         17.3780   48.8680   37.9280 C.3       6 GLP5        0.0000 
     31 CA         14.7557   51.0858   32.2560 C.3       3 GLC5        0.0000 
     32 CA         13.7960   51.5220   33.4740 C.3       9 GLL5        0.0000 
     33 CA         16.1807   54.0238   34.4168 C.3       3 GLC5        0.0000 
     34 CA         17.4220   55.4620   34.0840 C.3       6 GLP5        0.0000 
     35 CA         13.3957   55.6748   36.8242 C.3       3 GLC5        0.0000 
     36 CA         13.8730   53.6680   36.0030 C.3       9 GLL5        0.0000 
     37 CA         12.9730   57.5350   36.9600 C.3       6 GLP5        0.0000 
     38 CA         15.3492   55.0733   36.5258 C.3       3 GLC5        0.0000 
     39 CA         16.8800   56.3320   36.3630 C.3       6 GLP5        0.0000 
     40 CA         12.7980   52.8743   38.6620 C.3       3 GLC5        0.0000 
     41 CA         11.3980   52.0940   39.5120 C.3       6 GLP5        0.0000 
     42 CA         16.1755   54.4134   36.8066 C.3       3 GLC5        0.0000 
     43 CA         14.6320   53.3480   38.2500 C.3       9 GLL5        0.0000 
     44 CA         16.9480   53.3489   38.2346 C.3       3 GLC5        0.0000 
     45 CA         18.4250   54.2030   39.2190 C.3       6 GLP5        0.0000 
@<TRIPOS>BOND
@<TRIPOS>SUBSTRUCTURE
     1 ALC1        1 GROUP        1 X    ALC  0     ROOT ALC X 1
     2 SEC2        4 GROUP        1 X    SEC  0     **** SEC X 2
     3 GLC5        7 GROUP        1 X    GLC  0     **** GLC X 6
     4 ALP1        3 GROUP        1 Y    ALP  0     ROOT ALP Y 8
     5 SEP2        6 GROUP        1 Y    SEP  0     **** SEP Y 9
     6 GLP5        9 GROUP        1 Y    GLP  0     **** GLP Y 13
     7 ALL1        2 GROUP        1 Z    ALL  0     ROOT ALL Z 15
     8 SEL2        5 GROUP        1 Z    SEL  0     **** SEL Z 16
     9 GLL5        8 GROUP        1 Z    GLL  0     **** GLL Z 20
@<TRIPOS>SET

