#    Name: 1grr_CLC_1_ligand
#    Modification time : Tue Mar 25 03:41:09 2014

@<TRIPOS>MOLECULE
1grr_CLC_1_ligand
   32    32     1     0     0
SMALL
NO_CHARGES


@<TRIPOS>ATOM
      1 O1         12.0850   52.5450   31.2660 O.2       1 CLC999      0.0000 
      2 O2         12.5400   49.4520   33.6560 O.3       1 CLC999      0.0000 
      3 N2         12.4870   52.1740   33.5300 N.am      1 CLC999      0.0000 
      4 O4         16.1650   51.7220   33.7590 O.3       1 CLC999      0.0000 
      5 C11        11.7920   52.6000   32.4460 C.2       1 CLC999      0.0000 
      6 C12        10.4040   53.2620   32.8710 C.3       1 CLC999      0.0000 
      7 C21        13.6790   50.1850   34.2300 C.3       1 CLC999      0.0000 
      8 C50        14.9680   52.4560   33.9870 C.3       1 CLC999      0.0000 
      9 C22        13.7960   51.5220   33.4740 C.3       1 CLC999      0.0000 
     10 C1         14.9110   52.7150   35.5120 C.ar      1 CLC999      0.0000 
     11 C2         13.8730   53.6680   36.0030 C.ar      1 CLC999      0.0000 
     12 C3         13.7640   53.9610   37.3740 C.ar      1 CLC999      0.0000 
     13 C4         14.6320   53.3480   38.2500 C.ar      1 CLC999      0.0000 
     14 C5         15.6740   52.4090   37.8330 C.ar      1 CLC999      0.0000 
     15 C6         15.7890   52.1110   36.4590 C.ar      1 CLC999      0.0000 
     16 N4         14.6170   53.5780   39.7260 N.pl3     1 CLC999      0.0000 
     17 O5         14.9710   52.6380   40.4490 O.2       1 CLC999      0.0000 
     18 O6         14.2700   54.6460   40.1360 O.2       1 CLC999      0.0000 
     19 H          12.0924   52.3022   34.5009 H         1 CLC999      0.0000 
     20 H          14.6010   49.6381   34.0983 H         1 CLC999      0.0000 
     21 H          13.5177   50.3989   35.2763 H         1 CLC999      0.0000 
     22 H          14.9440   53.3569   33.4610 H         1 CLC999      0.0000 
     23 H          14.0214   51.2741   32.4224 H         1 CLC999      0.0000 
     24 H          13.2601   54.0876   35.3138 H         1 CLC999      0.0000 
     25 H          13.0539   54.6144   37.6988 H         1 CLC999      0.0000 
     26 H          16.2750   52.0033   38.5208 H         1 CLC999      0.0000 
     27 H          16.5052   51.4578   36.1333 H         1 CLC999      0.0000 
     28 H          10.2759   53.2518   33.8627 H         1 CLC999      0.0000 
     29 H          10.3421   54.2159   32.5773 H         1 CLC999      0.0000 
     30 H           9.6247   52.7806   32.4698 H         1 CLC999      0.0000 
     31 H          11.7307   49.9618   33.9479 H         1 CLC999      0.0000 
     32 H          16.4348   51.9511   32.8237 H         1 CLC999      0.0000 
@<TRIPOS>BOND
     1    5    1 2    
     2    7    2 1    
     3   31    2 1    
     4    5    3 am   
     5    9    3 1    
     6   19    3 1    
     7    8    4 1    
     8   32    4 1    
     9    6    5 1    
    10   28    6 1    
    11   29    6 1    
    12   30    6 1    
    13    9    7 1    
    14   20    7 1    
    15   21    7 1    
    16    9    8 1    
    17   10    8 1    
    18   22    8 1    
    19   23    9 1    
    20   11   10 ar   
    21   15   10 ar   
    22   12   11 ar   
    23   24   11 1    
    24   13   12 ar   
    25   25   12 1    
    26   14   13 ar   
    27   16   13 1    
    28   15   14 ar   
    29   26   14 1    
    30   27   15 1    
    31   17   16 2    
    32   18   16 2    
@<TRIPOS>SUBSTRUCTURE
     1 CLC999      1 GROUP   
@<TRIPOS>SET

