#    Name: 4i9u_1E7_6_INTS_M
#    Modification time : Tue Mar 25 02:45:39 2014

@<TRIPOS>MOLECULE
4i9u_1E7_6_INTS_M
   58     0     9     0     0
SMALL
NO_CHARGES


@<TRIPOS>ATOM
      1 CA         48.5690    5.7495  122.7700 C.3       3 GLC5        0.0000 
      2 CA         47.8060    4.1200  122.6040 C.3       9 GLL5        0.0000 
      3 CA         49.3320    7.3790  122.9360 C.3       6 GLP5        0.0000 
      4 CA         44.7500    2.6040  121.7865 C.3       3 GLC5        0.0000 
      5 CA         46.8450    2.5760  122.4910 C.3       9 GLL5        0.0000 
      6 CA         42.6550    2.6320  121.0820 C.3       6 GLP5        0.0000 
      7 NZ         47.9120    3.8010  114.3115 N.4       2 LYC4        0.0000 
      8 NZ         47.3890    2.3920  115.5370 N.4       8 LYL4        0.0000 
      9 NZ         48.4350    5.2100  113.0860 N.4       5 LYP4        0.0000 
     10 NZ         47.0575    2.4645  114.1615 N.4       2 LYC4        0.0000 
     11 NZ         45.9590    1.5760  112.2960 N.4       5 LYP4        0.0000 
     12 N          47.0575    2.4645  114.1615 N.am      1 SEC2        0.0000 
     13 N          47.3890    2.3920  115.5370 N.am      7 SEL2        0.0000 
     14 N          46.7260    2.5370  112.7860 N.am      4 SEP2        0.0000 
     15 NZ         45.9790    0.4800  114.4630 N.4       2 LYC4        0.0000 
     16 NZ         46.3000    0.4410  115.8800 N.4       8 LYL4        0.0000 
     17 N          45.9790    0.4800  114.4630 N.am      1 SEC2        0.0000 
     18 N          46.3000    0.4410  115.8800 N.am      7 SEL2        0.0000 
     19 N          45.6580    0.5190  113.0460 N.am      4 SEP2        0.0000 
     20 CA         47.5655    7.7950  122.2140 C.3       3 GLC5        0.0000 
     21 CA         45.7990    8.2110  121.4920 C.3       9 GLL5        0.0000 
     22 CA         43.9955    7.5520  122.3250 C.3       3 GLC5        0.0000 
     23 CA         42.1920    6.8930  123.1580 C.3       6 GLP5        0.0000 
     24 CA         44.9160    5.8995  118.4515 C.3       3 GLC5        0.0000 
     25 CA         46.1230    7.3550  119.1220 C.3       9 GLL5        0.0000 
     26 CA         43.7090    4.4440  117.7810 C.3       6 GLP5        0.0000 
     27 CA         43.2845   10.8060  123.1805 C.3       3 GLC5        0.0000 
     28 CA         44.7420   10.7340  122.1040 C.3       9 GLL5        0.0000 
     29 CA         41.8270   10.8780  124.2570 C.3       6 GLP5        0.0000 
     30 CA         44.1690   12.1875  121.5415 C.3       3 GLC5        0.0000 
     31 CA         43.5960   13.6410  120.9790 C.3       6 GLP5        0.0000 
     32 CA         43.2975   10.0110  121.2185 C.3       3 GLC5        0.0000 
     33 CA         41.8530    9.2880  120.3330 C.3       6 GLP5        0.0000 
     34 CA         48.7245    7.5170  119.0485 C.3       3 GLC5        0.0000 
     35 CA         47.6580    6.5350  117.3420 C.3       9 GLL5        0.0000 
     36 CA         49.7910    8.4990  120.7550 C.3       6 GLP5        0.0000 
     37 CA         45.6835    5.4895  117.5615 C.3       3 GLC5        0.0000 
     38 CA         47.9867    7.8695  120.3077 C.3       3 GLC5        0.0000 
     39 CA         44.5222    6.3800  120.8353 C.3       3 GLC5        0.0000 
     40 CA         46.2420    7.1250  120.5990 C.3       9 GLL5        0.0000 
     41 CA         43.0240    5.0920  120.6250 C.3       6 GLP5        0.0000 
     42 CA         46.7493    3.5865  124.2592 C.3       3 GLC5        0.0000 
     43 CA         46.1730    3.8250  125.9710 C.3       6 GLP5        0.0000 
     44 CA         45.0287    2.5340  119.6690 C.3       3 GLC5        0.0000 
     45 CA         46.8240    2.2250  120.7040 C.3       9 GLL5        0.0000 
     46 CA         43.6140    3.4020  118.8740 C.3       6 GLP5        0.0000 
     47 CA         44.4513   -0.3423  119.5815 C.3       3 GLC5        0.0000 
     48 CA         46.0630    1.1070  120.2240 C.3       9 GLL5        0.0000 
     49 CA         42.8410   -1.6610  119.6590 C.3       6 GLP5        0.0000 
     50 CA         45.2974    2.7154  118.6385 C.3       3 GLC5        0.0000 
     51 CA         46.0600    0.8460  118.7840 C.3       9 GLL5        0.0000 
     52 CA         43.6912    9.0668  120.7870 C.3       3 GLC5        0.0000 
     53 CA         44.4017   11.6120  120.6315 C.3       3 GLC5        0.0000 
     54 CA         45.2600    9.4800  120.9900 C.3       9 GLL5        0.0000 
     55 CA         46.3620   11.2055  122.4205 C.3       3 GLC5        0.0000 
     56 CA         47.7230   12.3040  123.2940 C.3       6 GLP5        0.0000 
     57 CA         43.6098    9.2265  119.7270 C.3       3 GLC5        0.0000 
     58 CA         45.1550    9.6860  119.5780 C.3       9 GLL5        0.0000 
@<TRIPOS>BOND
@<TRIPOS>SUBSTRUCTURE
     1 SEC2       12 GROUP        1 X    SEC  0     ROOT SEC X 2
     2 LYC4        7 GROUP        1 X    LYC  0     **** LYC X 4
     3 GLC5        1 GROUP        1 X    GLC  0     **** GLC X 6
     4 SEP2       14 GROUP        1 Y    SEP  0     ROOT SEP Y 9
     5 LYP4        9 GROUP        1 Y    LYP  0     **** LYP Y 11
     6 GLP5        3 GROUP        1 Y    GLP  0     **** GLP Y 13
     7 SEL2       13 GROUP        1 Z    SEL  0     ROOT SEL Z 16
     8 LYL4        8 GROUP        1 Z    LYL  0     **** LYL Z 18
     9 GLL5        2 GROUP        1 Z    GLL  0     **** GLL Z 20
@<TRIPOS>SET

