#    Name: 4i9u_1E7_6_ligand
#    Modification time : Tue Mar 25 02:45:39 2014

@<TRIPOS>MOLECULE
4i9u_1E7_6_ligand
   35    36     1     0     0
SMALL
NO_CHARGES


@<TRIPOS>ATOM
      1 C1         46.8710    5.3340  122.3560 C.2       1 1E7401      0.0000 
      2 N2         46.7830    5.8450  121.0680 N.am      1 1E7401      0.0000 
      3 C3         46.2420    7.1250  120.5990 C.ar      1 1E7401      0.0000 
      4 O4         46.2010    5.8570  123.3220 O.2       1 1E7401      0.0000 
      5 C6         47.8060    4.1200  122.6040 C.3       1 1E7401      0.0000 
      6 S7         46.8450    2.5760  122.4910 S.3       1 1E7401      0.0000 
      7 C10        46.8240    2.2250  120.7040 C.ar      1 1E7401      0.0000 
      8 C11        46.0630    1.1070  120.2240 C.ar      1 1E7401      0.0000 
      9 C12        46.0600    0.8460  118.7840 C.ar      1 1E7401      0.0000 
     10 C13        46.8030    1.6950  117.8760 C.ar      1 1E7401      0.0000 
     11 C14        47.5300    2.7870  118.4760 C.ar      1 1E7401      0.0000 
     12 N15        47.5310    3.0370  119.8690 N.ar      1 1E7401      0.0000 
     13 C19        46.8060    1.4430  116.3650 C.2       1 1E7401      0.0000 
     14 O20        47.3890    2.3920  115.5370 O.co2     1 1E7401      0.0000 
     15 O21        46.3000    0.4410  115.8800 O.co2     1 1E7401      0.0000 
     16 C23        45.7990    8.2110  121.4920 C.ar      1 1E7401      0.0000 
     17 C24        45.2600    9.4800  120.9900 C.ar      1 1E7401      0.0000 
     18 C25        45.1550    9.6860  119.5780 C.ar      1 1E7401      0.0000 
     19 C26        45.5780    8.6440  118.6640 C.ar      1 1E7401      0.0000 
     20 C27        46.1230    7.3550  119.1220 C.ar      1 1E7401      0.0000 
     21 O31        46.5490    6.2910  118.2320 O.3       1 1E7401      0.0000 
     22 CL3        44.7420   10.7340  122.1040 Cl        1 1E7401      0.0000 
     23 C33        47.6580    6.5350  117.3420 C.3       1 1E7401      0.0000 
     24 H          47.1675    5.2196  120.2634 H         1 1E7401      0.0000 
     25 H          48.1886    4.0821  123.5867 H         1 1E7401      0.0000 
     26 H          48.5344    3.9939  121.8510 H         1 1E7401      0.0000 
     27 H          45.5492    0.5200  120.8402 H         1 1E7401      0.0000 
     28 H          45.5306    0.0616  118.4251 H         1 1E7401      0.0000 
     29 H          48.0724    3.4100  117.8494 H         1 1E7401      0.0000 
     30 H          45.8714    8.0716  122.5016 H         1 1E7401      0.0000 
     31 H          44.7879   10.5531  119.2109 H         1 1E7401      0.0000 
     32 H          45.4983    8.8017  117.6539 H         1 1E7401      0.0000 
     33 H          48.4926    6.7644  117.8428 H         1 1E7401      0.0000 
     34 H          47.8648    5.7352  116.7784 H         1 1E7401      0.0000 
     35 H          47.4730    7.2938  116.7174 H         1 1E7401      0.0000 
@<TRIPOS>BOND
     1    2    1 am   
     2    4    1 2    
     3    5    1 1    
     4    3    2 1    
     5   24    2 1    
     6   16    3 ar   
     7   20    3 ar   
     8    6    5 1    
     9   25    5 1    
    10   26    5 1    
    11    7    6 1    
    12    8    7 ar   
    13   12    7 ar   
    14    9    8 ar   
    15   27    8 1    
    16   10    9 ar   
    17   28    9 1    
    18   11   10 ar   
    19   13   10 1    
    20   12   11 ar   
    21   29   11 1    
    22   14   13 ar   
    23   15   13 ar   
    24   17   16 ar   
    25   30   16 1    
    26   18   17 ar   
    27   22   17 1    
    28   19   18 ar   
    29   31   18 1    
    30   20   19 ar   
    31   32   19 1    
    32   21   20 1    
    33   23   21 1    
    34   33   23 1    
    35   34   23 1    
    36   35   23 1    
@<TRIPOS>SUBSTRUCTURE
     1 1E7401      1 GROUP   
@<TRIPOS>SET

