#    Name: 1xl2_189_1_INTS_M
#    Modification time : Tue Mar 25 10:17:02 2014

@<TRIPOS>MOLECULE
1xl2_189_1_INTS_M
  105     0     9     0     0
SMALL
NO_CHARGES


@<TRIPOS>ATOM
      1 N          23.3320   -5.7660   19.0290 N.am      1 SEC2        0.0000 
      2 N          23.3830   -5.0300   17.8990 N.am      7 SEL2        0.0000 
      3 N          23.2810   -6.5020   20.1590 N.am      4 SEP2        0.0000 
      4 CA         24.5700   -1.3605   15.6695 C.3       3 GLC5        0.0000 
      5 CA         22.5800   -2.0850   15.5420 C.3       9 GLL5        0.0000 
      6 CA         26.5600   -0.6360   15.7970 C.3       6 GLP5        0.0000 
      7 CA         16.8545   -1.1395   16.2870 C.3       3 GLC5        0.0000 
      8 CA         18.7420   -1.9770   15.7650 C.3       9 GLL5        0.0000 
      9 CA         14.9670   -0.3020   16.8090 C.3       6 GLP5        0.0000 
     10 CA         19.1300   -4.0450   20.2190 C.3       3 GLC5        0.0000 
     11 CA         18.9710   -2.2630   19.5060 C.3       9 GLL5        0.0000 
     12 CA         19.2890   -5.8270   20.9320 C.3       6 GLP5        0.0000 
     13 CA         16.0190   -0.4715   23.9455 C.3       3 GLC5        0.0000 
     14 CA         17.4160   -1.9710   24.3020 C.3       9 GLL5        0.0000 
     15 CA         14.6220    1.0280   23.5890 C.3       6 GLP5        0.0000 
     16 CA         17.0975   -4.0685   21.4535 C.3       3 GLC5        0.0000 
     17 CA         15.9140   -2.4450   20.8570 C.3       9 GLL5        0.0000 
     18 CA         18.2810   -5.6920   22.0500 C.3       6 GLP5        0.0000 
     19 CA         13.7795   -2.0210   20.8235 C.3       3 GLC5        0.0000 
     20 CA         11.6450   -1.5970   20.7900 C.3       6 GLP5        0.0000 
     21 CA         20.7325   -1.4195   11.9550 C.3       3 GLC5        0.0000 
     22 CA         20.2550   -1.6010   13.7960 C.3       9 GLL5        0.0000 
     23 CA         21.2100   -1.2380   10.1140 C.3       6 GLP5        0.0000 
     24 CA         19.0160   -2.2015   12.3200 C.3       3 GLC5        0.0000 
     25 CA         17.7770   -2.8020   10.8440 C.3       6 GLP5        0.0000 
     26 OD1        21.3100    0.4715   13.2580 O.co2     2 ASC3        0.0000 
     27 OD1        20.4910   -0.1720   14.1090 O.co2     8 ASL3        0.0000 
     28 OD1        22.1290    1.1150   12.4070 O.co2     5 ASP3        0.0000 
     29 OD1        21.9125   -0.3380   13.6975 O.co2     2 ASC3        0.0000 
     30 OD1        23.3340   -0.5040   13.2860 O.co2     5 ASP3        0.0000 
     31 OD1        19.8955    0.4090   13.0380 O.co2     2 ASC3        0.0000 
     32 OD1        19.3000    0.9900   11.9670 O.co2     5 ASP3        0.0000 
     33 OD1        19.2935    0.3280   13.9615 O.co2     2 ASC3        0.0000 
     34 OD1        18.0960    0.8280   13.8140 O.co2     5 ASP3        0.0000 
     35 CA         20.7040    1.7730   14.7190 C.3       3 GLC5        0.0000 
     36 CA         21.0770   -0.0800   15.4540 C.3       9 GLL5        0.0000 
     37 CA         20.3310    3.6260   13.9840 C.3       6 GLP5        0.0000 
     38 CA         22.3610    1.6185   15.6445 C.3       3 GLC5        0.0000 
     39 CA         23.6450    3.3170   15.8350 C.3       6 GLP5        0.0000 
     40 CA         25.6365   -5.1365   17.9140 C.3       3 GLC5        0.0000 
     41 CA         25.4790   -2.9990   18.3130 C.3       9 GLL5        0.0000 
     42 CA         25.7940   -7.2740   17.5150 C.3       6 GLP5        0.0000 
     43 CA         25.2870   -4.1060   19.8330 C.3       3 GLC5        0.0000 
     44 CA         25.0950   -5.2130   21.3530 C.3       6 GLP5        0.0000 
     45 CA         21.3970   -6.6165   16.9560 C.3       3 GLC5        0.0000 
     46 CA         21.3860   -5.8570   14.9790 C.3       9 GLL5        0.0000 
     47 CA         21.4080   -7.3760   18.9330 C.3       6 GLP5        0.0000 
     48 CA         24.6140   -5.8155   16.3565 C.3       3 GLC5        0.0000 
     49 CA         23.4340   -4.3570   15.1980 C.3       9 GLL5        0.0000 
     50 CA         25.0275   -3.4255   14.2745 C.3       3 GLC5        0.0000 
     51 CA         26.6210   -2.4940   13.3510 C.3       6 GLP5        0.0000 
     52 CA         23.6985   -4.7325   11.5535 C.3       3 GLC5        0.0000 
     53 CA         23.1790   -5.9100   13.2320 C.3       9 GLL5        0.0000 
     54 CA         24.2180   -3.5550    9.8750 C.3       6 GLP5        0.0000 
     55 CA         24.1420   -7.3670   14.5550 C.3       3 GLC5        0.0000 
     56 CA         25.1050   -8.8240   15.8780 C.3       6 GLP5        0.0000 
     57 CA         24.8410   -6.0105   12.6600 C.3       3 GLC5        0.0000 
     58 CA         26.5030   -6.1110   12.0880 C.3       6 GLP5        0.0000 
     59 CA         17.6680   -7.5830   18.6740 C.3       3 GLC5        0.0000 
     60 CA         16.9020   -5.4980   18.6830 C.3       9 GLL5        0.0000 
     61 CA         18.4340   -9.6680   18.6650 C.3       6 GLP5        0.0000 
     62 CA         16.9760   -5.7650   20.6505 C.3       3 GLC5        0.0000 
     63 CA         15.6710   -5.8380   19.2510 C.3       9 GLL5        0.0000 
     64 CA         14.4660   -6.7030   20.4490 C.3       3 GLC5        0.0000 
     65 CA         13.2610   -7.5680   21.6470 C.3       6 GLP5        0.0000 
     66 CA         12.7460   -4.4800   18.1350 C.3       3 GLC5        0.0000 
     67 CA         14.5590   -5.0290   18.9980 C.3       9 GLL5        0.0000 
     68 CA         10.9330   -3.9310   17.2720 C.3       6 GLP5        0.0000 
     69 CA         13.5125   -5.6505   20.3930 C.3       3 GLC5        0.0000 
     70 CA         12.4660   -6.2720   21.7880 C.3       6 GLP5        0.0000 
     71 CA         27.8520   -0.9443   19.1240 C.3       3 GLC5        0.0000 
     72 CA         26.0680   -1.1390   19.7510 C.3       9 GLL5        0.0000 
     73 CA         29.4450   -0.2050   18.8900 C.3       6 GLP5        0.0000 
     74 CA         26.4095   -1.1598   17.5775 C.3       3 GLC5        0.0000 
     75 CA         24.1515   -3.0540   20.3488 C.3       3 GLC5        0.0000 
     76 CA         23.7410   -1.6060   19.2910 C.3       9 GLL5        0.0000 
     77 CA         24.3660   -3.9650   21.8090 C.3       6 GLP5        0.0000 
     78 CA         25.6830   -1.7378   17.0983 C.3       3 GLC5        0.0000 
     79 CA         24.1330   -2.6800   18.4860 C.3       9 GLL5        0.0000 
     80 CA         20.5360   -2.0092   23.8811 C.3       3 GLC5        0.0000 
     81 CA         19.0010   -1.1100   22.6860 C.3       9 GLL5        0.0000 
     82 CA         21.9570   -3.0160   24.4920 C.3       6 GLP5        0.0000 
     83 CA         18.5075   -3.4970   24.3145 C.3       3 GLC5        0.0000 
     84 CA         18.5560   -1.2230   24.0000 C.3       9 GLL5        0.0000 
     85 CA         19.0290   -5.3970   24.4780 C.3       6 GLP5        0.0000 
     86 CA         17.6671   -3.8784   22.2862 C.3       3 GLC5        0.0000 
     87 CA         16.5750   -2.3710   23.2620 C.3       9 GLL5        0.0000 
     88 CA         15.0328   -1.2424   22.5151 C.3       3 GLC5        0.0000 
     89 CA         16.9230   -2.0620   21.9370 C.3       9 GLL5        0.0000 
     90 CA         13.7340   -0.1540   23.3020 C.3       6 GLP5        0.0000 
     91 CA         27.4958   -4.0832   18.1820 C.3       3 GLC5        0.0000 
     92 CA         29.0270   -5.5530   17.7250 C.3       6 GLP5        0.0000 
     93 CA         27.0305   -1.1794   21.0984 C.3       3 GLC5        0.0000 
     94 CA         26.4500   -2.2280   18.9650 C.3       9 GLL5        0.0000 
     95 CA         28.1400   -0.7540   22.7980 C.3       6 GLP5        0.0000 
     96 CA         25.1435   -2.7849   20.6039 C.3       3 GLC5        0.0000 
     97 CA         18.2988   -5.3359   19.5319 C.3       3 GLC5        0.0000 
     98 CA         14.9577   -7.0170   18.3075 C.3       3 GLC5        0.0000 
     99 CA         13.6290   -8.3660   17.6480 C.3       6 GLP5        0.0000 
    100 CA         13.8140   -5.8213   17.7557 C.3       3 GLC5        0.0000 
    101 CA         13.0070   -7.1730   16.9270 C.3       6 GLP5        0.0000 
    102 CA         13.8005   -3.9650   16.5405 C.3       3 GLC5        0.0000 
    103 CA         14.6830   -3.9100   18.1710 C.3       9 GLL5        0.0000 
    104 CA         12.3020   -4.1880   15.1950 C.3       6 GLP5        0.0000 
    105 CA         15.1330   -2.0220   17.3475 C.3       3 GLC5        0.0000 
@<TRIPOS>BOND
@<TRIPOS>SUBSTRUCTURE
     1 SEC2        1 GROUP        1 X    SEC  0     ROOT SEC X 2
     2 ASC3       26 GROUP        1 X    ASC  0     **** ASC X 3
     3 GLC5        4 GROUP        1 X    GLC  0     **** GLC X 6
     4 SEP2        3 GROUP        1 Y    SEP  0     ROOT SEP Y 9
     5 ASP3       28 GROUP        1 Y    ASP  0     **** ASP Y 10
     6 GLP5        6 GROUP        1 Y    GLP  0     **** GLP Y 13
     7 SEL2        2 GROUP        1 Z    SEL  0     ROOT SEL Z 16
     8 ASL3       27 GROUP        1 Z    ASL  0     **** ASL Z 17
     9 GLL5        5 GROUP        1 Z    GLL  0     **** GLL Z 20
@<TRIPOS>SET

