#    Name: 1xl2_189_1_ligand
#    Modification time : Tue Mar 25 10:17:02 2014

@<TRIPOS>MOLECULE
1xl2_189_1_ligand
   83    86     1     0     0
SMALL
NO_CHARGES


@<TRIPOS>ATOM
      1 C1         26.0680   -1.1390   19.7510 C.ar      1 1891001     0.0000 
      2 C6         24.7160   -0.8240   19.9140 C.ar      1 1891001     0.0000 
      3 C5         23.7410   -1.6060   19.2910 C.ar      1 1891001     0.0000 
      4 C4         24.1330   -2.6800   18.4860 C.ar      1 1891001     0.0000 
      5 S10        22.8810   -3.6740   17.6700 S.o2      1 1891001     0.0000 
      6 O15        21.6560   -3.3080   18.4110 O.2       1 1891001     0.0000 
      7 O14        23.3830   -5.0300   17.8990 O.2       1 1891001     0.0000 
      8 N13        22.7330   -3.4390   16.0970 N.pl3     1 1891001     0.0000 
      9 C20        22.5800   -2.0850   15.5420 C.3       1 1891001     0.0000 
     10 C21        21.2000   -1.5260   15.9860 C.3       1 1891001     0.0000 
     11 C25        20.1220   -2.2850   15.1680 C.3       1 1891001     0.0000 
     12 C26        18.7420   -1.9770   15.7650 C.3       1 1891001     0.0000 
     13 N27        18.5820   -2.6080   17.0740 N.am      1 1891001     0.0000 
     14 C35        18.6720   -1.8320   18.0830 C.2       1 1891001     0.0000 
     15 O46        18.6090   -0.6030   17.9570 O.2       1 1891001     0.0000 
     16 C36        18.9710   -2.2630   19.5060 C.3       1 1891001     0.0000 
     17 O37        18.5740   -1.1800   20.3460 O.3       1 1891001     0.0000 
     18 C38        18.1400   -1.4550   21.6290 C.ar      1 1891001     0.0000 
     19 C43        19.0010   -1.1100   22.6860 C.ar      1 1891001     0.0000 
     20 C45        20.3470   -0.4540   22.3950 C.3       1 1891001     0.0000 
     21 C42        18.5560   -1.2230   24.0000 C.ar      1 1891001     0.0000 
     22 C41        17.4160   -1.9710   24.3020 C.ar      1 1891001     0.0000 
     23 C40        16.5750   -2.3710   23.2620 C.ar      1 1891001     0.0000 
     24 C39        16.9230   -2.0620   21.9370 C.ar      1 1891001     0.0000 
     25 C44        15.9140   -2.4450   20.8570 C.3       1 1891001     0.0000 
     26 C24        20.2550   -1.6010   13.7960 C.3       1 1891001     0.0000 
     27 N23        20.4910   -0.1720   14.1090 N.4       1 1891001     0.0000 
     28 C22        21.0770   -0.0800   15.4540 C.3       1 1891001     0.0000 
     29 C3         25.4790   -2.9990   18.3130 C.ar      1 1891001     0.0000 
     30 C2         26.4500   -2.2280   18.9650 C.ar      1 1891001     0.0000 
     31 C16        21.3860   -5.8570   14.9790 C.3       1 1891001     0.0000 
     32 C17        22.4450   -5.0190   14.2330 C.3       1 1891001     0.0000 
     33 C19        23.4340   -4.3570   15.1980 C.3       1 1891001     0.0000 
     34 C18        23.1790   -5.9100   13.2320 C.3       1 1891001     0.0000 
     35 C28        18.4000   -4.0190   17.2860 C.3       1 1891001     0.0000 
     36 C29        17.0300   -4.3640   17.8750 C.ar      1 1891001     0.0000 
     37 C34        16.9020   -5.4980   18.6830 C.ar      1 1891001     0.0000 
     38 C33        15.6710   -5.8380   19.2510 C.ar      1 1891001     0.0000 
     39 C32        14.5590   -5.0290   18.9980 C.ar      1 1891001     0.0000 
     40 C31        14.6830   -3.9100   18.1710 C.ar      1 1891001     0.0000 
     41 C30        15.9150   -3.5740   17.6010 C.ar      1 1891001     0.0000 
     42 H          26.7856   -0.5645   20.2133 H         1 1891001     0.0000 
     43 H          24.4416   -0.0215   20.4891 H         1 1891001     0.0000 
     44 H          22.7495   -1.3958   19.4218 H         1 1891001     0.0000 
     45 H          22.6016   -2.0993   14.4597 H         1 1891001     0.0000 
     46 H          23.3462   -1.4181   15.9163 H         1 1891001     0.0000 
     47 H          21.0393   -1.5889   16.9661 H         1 1891001     0.0000 
     48 H          20.3387   -3.2688   15.1141 H         1 1891001     0.0000 
     49 H          17.9806   -2.3357   15.0616 H         1 1891001     0.0000 
     50 H          18.6408   -0.8874   15.8405 H         1 1891001     0.0000 
     51 H          20.0322   -2.4689   19.5838 H         1 1891001     0.0000 
     52 H          18.4080   -3.1654   19.7141 H         1 1891001     0.0000 
     53 H          19.0711   -0.7511   24.7584 H         1 1891001     0.0000 
     54 H          17.2016   -2.2208   25.2664 H         1 1891001     0.0000 
     55 H          15.7145   -2.8834   23.4588 H         1 1891001     0.0000 
     56 H          19.3418   -1.7308   13.2574 H         1 1891001     0.0000 
     57 H          21.0891   -2.0244   13.2805 H         1 1891001     0.0000 
     58 H          22.0624    0.3532   15.4232 H         1 1891001     0.0000 
     59 H          20.4386    0.4723   16.1225 H         1 1891001     0.0000 
     60 H          25.7558   -3.7814   17.7212 H         1 1891001     0.0000 
     61 H          27.4433   -2.4656   18.8635 H         1 1891001     0.0000 
     62 H          21.9275   -4.2428   13.6776 H         1 1891001     0.0000 
     63 H          23.9399   -5.1460   15.7623 H         1 1891001     0.0000 
     64 H          24.1850   -3.8261   14.6056 H         1 1891001     0.0000 
     65 H          19.1698   -4.4230   17.9736 H         1 1891001     0.0000 
     66 H          18.5069   -4.5832   16.3380 H         1 1891001     0.0000 
     67 H          17.7270   -6.0912   18.8621 H         1 1891001     0.0000 
     68 H          15.5848   -6.6644   19.8416 H         1 1891001     0.0000 
     69 H          13.6523   -5.2577   19.4200 H         1 1891001     0.0000 
     70 H          13.8563   -3.3241   17.9781 H         1 1891001     0.0000 
     71 H          15.9945   -2.7587   16.9913 H         1 1891001     0.0000 
     72 H          20.8568   -0.2643   23.2341 H         1 1891001     0.0000 
     73 H          20.9275   -1.0347   21.8243 H         1 1891001     0.0000 
     74 H          20.2398    0.4162   21.9141 H         1 1891001     0.0000 
     75 H          16.2993   -3.0959   20.2028 H         1 1891001     0.0000 
     76 H          15.0966   -2.8697   21.2462 H         1 1891001     0.0000 
     77 H          15.6098   -1.6489   20.3338 H         1 1891001     0.0000 
     78 H          21.8035   -6.5888   15.5177 H         1 1891001     0.0000 
     79 H          20.8479   -5.2986   15.6104 H         1 1891001     0.0000 
     80 H          20.7418   -6.2888   14.3476 H         1 1891001     0.0000 
     81 H          23.8758   -5.4029   12.7247 H         1 1891001     0.0000 
     82 H          23.6421   -6.6726   13.6835 H         1 1891001     0.0000 
     83 H          22.5543   -6.3042   12.5579 H         1 1891001     0.0000 
@<TRIPOS>BOND
     1    2    1 ar   
     2   30    1 ar   
     3   42    1 1    
     4    3    2 ar   
     5   43    2 1    
     6    4    3 ar   
     7   44    3 1    
     8    5    4 1    
     9   29    4 ar   
    10    6    5 2    
    11    7    5 2    
    12    8    5 1    
    13    9    8 1    
    14   33    8 1    
    15   10    9 1    
    16   45    9 1    
    17   46    9 1    
    18   11   10 1    
    19   28   10 1    
    20   47   10 1    
    21   12   11 1    
    22   26   11 1    
    23   48   11 1    
    24   13   12 1    
    25   49   12 1    
    26   50   12 1    
    27   14   13 am   
    28   35   13 1    
    29   15   14 2    
    30   16   14 1    
    31   17   16 1    
    32   51   16 1    
    33   52   16 1    
    34   18   17 1    
    35   19   18 ar   
    36   24   18 ar   
    37   20   19 1    
    38   21   19 ar   
    39   72   20 1    
    40   73   20 1    
    41   74   20 1    
    42   22   21 ar   
    43   53   21 1    
    44   23   22 ar   
    45   54   22 1    
    46   24   23 ar   
    47   55   23 1    
    48   25   24 1    
    49   75   25 1    
    50   76   25 1    
    51   77   25 1    
    52   27   26 1    
    53   56   26 1    
    54   57   26 1    
    55   28   27 1    
    56   58   28 1    
    57   59   28 1    
    58   30   29 ar   
    59   60   29 1    
    60   61   30 1    
    61   32   31 1    
    62   78   31 1    
    63   79   31 1    
    64   80   31 1    
    65   33   32 1    
    66   34   32 1    
    67   62   32 1    
    68   63   33 1    
    69   64   33 1    
    70   81   34 1    
    71   82   34 1    
    72   83   34 1    
    73   36   35 1    
    74   65   35 1    
    75   66   35 1    
    76   37   36 ar   
    77   41   36 ar   
    78   38   37 ar   
    79   67   37 1    
    80   39   38 ar   
    81   68   38 1    
    82   40   39 ar   
    83   69   39 1    
    84   41   40 ar   
    85   70   40 1    
    86   71   41 1    
@<TRIPOS>SUBSTRUCTURE
     1 1891001     1 GROUP   
@<TRIPOS>SET

