#    Name: 3tlx_ADP_3_INTS_M
#    Modification time : Mon Mar 24 20:21:50 2014

@<TRIPOS>MOLECULE
3tlx_ADP_3_INTS_M
   71     0    12     0     0
SMALL
NO_CHARGES


@<TRIPOS>ATOM
      1 NZ         40.9165    1.7225   -0.9440 N.4       3 LYC4        0.0000 
      2 NZ         40.9290    2.7270   -0.0440 N.4      11 LYL4        0.0000 
      3 NZ         40.9040    0.7180   -1.8440 N.4       7 LYP4        0.0000 
      4 N          39.6175    3.0305    0.5735 N.am      2 SEC2        0.0000 
      5 N          40.9290    2.7270   -0.0440 N.am     10 SEL2        0.0000 
      6 N          38.3060    3.3340    1.1910 N.am      6 SEP2        0.0000 
      7 N          40.3360    4.1510    0.1725 N.am      2 SEC2        0.0000 
      8 N          39.7430    5.5750    0.3890 N.am      6 SEP2        0.0000 
      9 N          40.9165    1.7225   -0.9440 N.am      2 SEC2        0.0000 
     10 N          40.9040    0.7180   -1.8440 N.am      6 SEP2        0.0000 
     11 NZ         42.0710    1.6215   -0.5300 N.4       3 LYC4        0.0000 
     12 NZ         43.2380    2.5250    0.7840 N.4      11 LYL4        0.0000 
     13 N          43.6315    3.3990   -0.1570 N.am      2 SEC2        0.0000 
     14 N          43.2380    2.5250    0.7840 N.am     10 SEL2        0.0000 
     15 N          44.0250    4.2730   -1.0980 N.am      6 SEP2        0.0000 
     16 N          40.0585    1.5285    2.7860 N.am      2 SEC2        0.0000 
     17 N          41.4500    1.5920    2.2360 N.am     10 SEL2        0.0000 
     18 N          38.6670    1.4650    3.3360 N.am      6 SEP2        0.0000 
     19 N          39.4670    3.8660    4.9390 N.am      2 SEC2        0.0000 
     20 N          40.6940    4.5820    4.3670 N.am     10 SEL2        0.0000 
     21 N          38.2400    3.1500    5.5110 N.am      6 SEP2        0.0000 
     22 N          40.0095    5.1425    5.1325 N.am      2 SEC2        0.0000 
     23 N          39.3250    5.7030    5.8980 N.am      6 SEP2        0.0000 
     24 NZ         44.2755    3.2700    3.0755 N.4       3 LYC4        0.0000 
     25 NZ         42.9640    3.5460    4.0020 N.4      11 LYL4        0.0000 
     26 NZ         46.4040    3.0460    3.1800 N.4       7 LYP4        0.0000 
     27 N          44.4865    3.5715    4.1605 N.am      2 SEC2        0.0000 
     28 N          42.9640    3.5460    4.0020 N.am     10 SEL2        0.0000 
     29 N          46.0090    3.5970    4.3190 N.am      6 SEP2        0.0000 
     30 N          44.2755    3.2700    3.0755 N.am      2 SEC2        0.0000 
     31 N          45.5870    2.9940    2.1490 N.am      6 SEP2        0.0000 
     32 N          40.6470    4.8215    1.1650 N.am      2 SEC2        0.0000 
     33 N          41.5510    4.0680    1.9410 N.am     10 SEL2        0.0000 
     34 CA         43.7915    6.0880    1.0870 C.3       4 GLC5        0.0000 
     35 CA         43.5910    6.5320    2.7810 C.3      12 GLL5        0.0000 
     36 CA         43.9920    5.6440   -0.6070 C.3       8 GLP5        0.0000 
     37 CA         44.3665    7.9725    1.4210 C.3       4 GLC5        0.0000 
     38 CA         45.1420    9.4130    0.0610 C.3       8 GLP5        0.0000 
     39 CA         43.5140    9.1545    2.2490 C.3       4 GLC5        0.0000 
     40 CA         43.9490    7.7130    3.6870 C.3      12 GLL5        0.0000 
     41 CA         43.0790   10.5960    0.8110 C.3       8 GLP5        0.0000 
     42 CA         42.6600    9.8590    2.7205 C.3       4 GLC5        0.0000 
     43 CA         42.2410    9.1220    4.6300 C.3      12 GLL5        0.0000 
     44 CA         37.4285   10.6030    4.6845 C.3       4 GLC5        0.0000 
     45 CA         39.0380   10.5530    3.3010 C.3      12 GLL5        0.0000 
     46 CA         35.8190   10.6530    6.0680 C.3       8 GLP5        0.0000 
     47 CA         36.7895   13.2160    3.0855 C.3       4 GLC5        0.0000 
     48 CA         38.3660   11.7410    2.7160 C.3      12 GLL5        0.0000 
     49 CA         35.2130   14.6910    3.4550 C.3       8 GLP5        0.0000 
     50 CA         36.5955   11.4825    3.9005 C.3       4 GLC5        0.0000 
     51 CA         34.8250   11.2240    5.0850 C.3       8 GLP5        0.0000 
     52 O          36.3515   12.4800    1.7605 O.2       1 ALC1        0.0000 
     53 O          37.0520   11.6840    2.3770 O.2       9 ALL1        0.0000 
     54 O          35.6510   13.2760    1.1440 O.2       5 ALP1        0.0000 
     55 CA         41.7190   11.7660    1.9020 C.3       4 GLC5        0.0000 
     56 CA         40.3590   12.9360    2.9930 C.3      12 GLL5        0.0000 
     57 CA         41.5805   13.3855    4.3715 C.3       4 GLC5        0.0000 
     58 CA         42.8020   13.8350    5.7500 C.3       8 GLP5        0.0000 
     59 CA         41.7620   10.6445    2.2635 C.3       4 GLC5        0.0000 
     60 CA         40.4450   10.6930    3.7160 C.3      12 GLL5        0.0000 
     61 CA         41.6235   12.2640    4.7330 C.3       4 GLC5        0.0000 
     62 CA         45.3768    6.3685    5.1450 C.3       4 GLC5        0.0000 
     63 CA         46.9110    5.2340    5.8760 C.3       8 GLP5        0.0000 
     64 CA         45.1142    9.0755    4.6005 C.3       4 GLC5        0.0000 
     65 CA         43.7360    7.2930    5.1410 C.3      12 GLL5        0.0000 
     66 CA         46.3860   10.6480    4.7870 C.3       8 GLP5        0.0000 
     67 CA         43.1403    6.2412    6.4920 C.3       4 GLC5        0.0000 
     68 CA         43.2050    4.8790    7.6340 C.3       8 GLP5        0.0000 
     69 CA         43.8270    9.7355    6.1043 C.3       4 GLC5        0.0000 
     70 CA         42.4150    7.9140    5.5590 C.3      12 GLL5        0.0000 
     71 CA         45.3260   10.9530    7.1140 C.3       8 GLP5        0.0000 
@<TRIPOS>BOND
@<TRIPOS>SUBSTRUCTURE
     1 ALC1       52 GROUP        1 X    ALC  0     ROOT ALC X 1
     2 SEC2        4 GROUP        1 X    SEC  0     **** SEC X 2
     3 LYC4        1 GROUP        1 X    LYC  0     **** LYC X 4
     4 GLC5       34 GROUP        1 X    GLC  0     **** GLC X 6
     5 ALP1       54 GROUP        1 Y    ALP  0     ROOT ALP Y 8
     6 SEP2        6 GROUP        1 Y    SEP  0     **** SEP Y 9
     7 LYP4        3 GROUP        1 Y    LYP  0     **** LYP Y 11
     8 GLP5       36 GROUP        1 Y    GLP  0     **** GLP Y 13
     9 ALL1       53 GROUP        1 Z    ALL  0     ROOT ALL Z 15
    10 SEL2        5 GROUP        1 Z    SEL  0     **** SEL Z 16
    11 LYL4        2 GROUP        1 Z    LYL  0     **** LYL Z 18
    12 GLL5       35 GROUP        1 Z    GLL  0     **** GLL Z 20
@<TRIPOS>SET

