#    Name: 3tlx_ADP_3_ligand
#    Modification time : Mon Mar 24 20:21:50 2014

@<TRIPOS>MOLECULE
3tlx_ADP_3_ligand
   39    41     1     0     0
SMALL
NO_CHARGES


@<TRIPOS>ATOM
      1 PB         41.8010    2.6360    1.1960 P.3       1 ADP243      0.0000 
      2 O1B        40.9290    2.7270   -0.0440 O.co2     1 ADP243      0.0000 
      3 O2B        43.2380    2.5250    0.7840 O.co2     1 ADP243      0.0000 
      4 O3B        41.4500    1.5920    2.2360 O.co2     1 ADP243      0.0000 
      5 PA         41.8950    4.4710    3.4840 P.3       1 ADP243      0.0000 
      6 O1A        40.6940    4.5820    4.3670 O.co2     1 ADP243      0.0000 
      7 O2A        42.9640    3.5460    4.0020 O.co2     1 ADP243      0.0000 
      8 O3A        41.5510    4.0680    1.9410 O.3       1 ADP243      0.0000 
      9 O5'        42.3250    6.0110    3.2240 O.3       1 ADP243      0.0000 
     10 C5'        43.5910    6.5320    2.7810 C.3       1 ADP243      0.0000 
     11 C4'        43.9490    7.7130    3.6870 C.3       1 ADP243      0.0000 
     12 O4'        43.0040    8.7770    3.4560 O.3       1 ADP243      0.0000 
     13 C3'        43.7360    7.2930    5.1410 C.3       1 ADP243      0.0000 
     14 O3'        44.7750    7.7920    5.9810 O.3       1 ADP243      0.0000 
     15 C2'        42.4150    7.9140    5.5590 C.3       1 ADP243      0.0000 
     16 O2'        42.5340    8.2140    6.9490 O.3       1 ADP243      0.0000 
     17 C1'        42.2410    9.1220    4.6300 C.3       1 ADP243      0.0000 
     18 N9         40.8430    9.5060    4.2090 N.pl3     1 ADP243      0.0000 
     19 C8         39.7610    8.7150    4.1550 C.2       1 ADP243      0.0000 
     20 N7         38.6800    9.2940    3.5810 N.2       1 ADP243      0.0000 
     21 C5         39.0380   10.5530    3.3010 C.ar      1 ADP243      0.0000 
     22 C6         38.3660   11.7410    2.7160 C.ar      1 ADP243      0.0000 
     23 N6         37.0520   11.6840    2.3770 N.pl3     1 ADP243      0.0000 
     24 N1         39.0730   12.8860    2.6010 N.ar      1 ADP243      0.0000 
     25 C2         40.3590   12.9360    2.9930 C.ar      1 ADP243      0.0000 
     26 N3         41.0390   11.9030    3.5330 N.ar      1 ADP243      0.0000 
     27 C4         40.4450   10.6930    3.7160 C.ar      1 ADP243      0.0000 
     28 H          43.5421    6.8948    1.7588 H         1 ADP243      0.0000 
     29 H          44.3821    5.7929    2.8633 H         1 ADP243      0.0000 
     30 H          44.9339    8.0051    3.5424 H         1 ADP243      0.0000 
     31 H          43.6382    6.2365    5.1793 H         1 ADP243      0.0000 
     32 H          41.6516    7.1996    5.3470 H         1 ADP243      0.0000 
     33 H          42.7282    9.9768    5.1064 H         1 ADP243      0.0000 
     34 H          39.7473    7.7756    4.5073 H         1 ADP243      0.0000 
     35 H          36.7606   12.2949    1.6409 H         1 ADP243      0.0000 
     36 H          36.4921   11.0361    2.8934 H         1 ADP243      0.0000 
     37 H          40.8845   13.8656    2.8677 H         1 ADP243      0.0000 
     38 H          45.6011    7.3141    5.6824 H         1 ADP243      0.0000 
     39 H          43.4831    7.9994    7.1796 H         1 ADP243      0.0000 
@<TRIPOS>BOND
     1    2    1 ar   
     2    3    1 ar   
     3    4    1 ar   
     4    8    1 1    
     5    6    5 ar   
     6    7    5 ar   
     7    8    5 1    
     8    9    5 1    
     9   10    9 1    
    10   11   10 1    
    11   28   10 1    
    12   29   10 1    
    13   12   11 1    
    14   13   11 1    
    15   30   11 1    
    16   17   12 1    
    17   14   13 1    
    18   15   13 1    
    19   31   13 1    
    20   38   14 1    
    21   16   15 1    
    22   17   15 1    
    23   32   15 1    
    24   39   16 1    
    25   18   17 1    
    26   33   17 1    
    27   19   18 1    
    28   27   18 1    
    29   20   19 2    
    30   34   19 1    
    31   21   20 1    
    32   22   21 ar   
    33   27   21 ar   
    34   23   22 1    
    35   24   22 ar   
    36   35   23 1    
    37   36   23 1    
    38   25   24 ar   
    39   26   25 ar   
    40   37   25 1    
    41   27   26 ar   
@<TRIPOS>SUBSTRUCTURE
     1 ADP243      1 GROUP   
@<TRIPOS>SET

