#    Name: 1svm_ATP_1_INTS_M
#    Modification time : Tue Mar 25 02:51:29 2014

@<TRIPOS>MOLECULE
1svm_ATP_1_INTS_M
   88     0    15     0     0
SMALL
NO_CHARGES


@<TRIPOS>ATOM
      1 NZ         62.4050   45.0640   31.0730 N.4       3 LYC4        0.0000 
      2 NZ         63.1130   45.0640   32.6190 N.4      13 LYL4        0.0000 
      3 NZ         61.6970   45.0640   29.5270 N.4       8 LYP4        0.0000 
      4 Zn         62.9815   45.9215   33.0575 Zn        4 ZIC7        0.0000 
      5 Zn         63.1130   45.0640   32.6190 Zn       14 ZIL7        0.0000 
      6 Zn         62.8500   46.7790   33.4960 Zn        9 ZIP7        0.0000 
      7 N          62.4050   45.0640   31.0730 N.am      2 SEC2        0.0000 
      8 N          63.1130   45.0640   32.6190 N.am     12 SEL2        0.0000 
      9 N          61.6970   45.0640   29.5270 N.am      7 SEP2        0.0000 
     10 NZ         62.2720   44.1770   30.1690 N.4       3 LYC4        0.0000 
     11 NZ         62.8470   43.2900   30.8110 N.4      13 LYL4        0.0000 
     12 NZ         64.1895   44.0445   29.9825 N.4       3 LYC4        0.0000 
     13 NZ         65.5320   44.7990   29.1540 N.4       8 LYP4        0.0000 
     14 N          62.2720   44.1770   30.1690 N.am      2 SEC2        0.0000 
     15 N          62.8470   43.2900   30.8110 N.am     12 SEL2        0.0000 
     16 NZ         61.8575   42.7020   34.3835 N.4       3 LYC4        0.0000 
     17 NZ         62.8270   42.7100   33.2690 N.4      13 LYL4        0.0000 
     18 NZ         60.8880   42.6940   35.4980 N.4       8 LYP4        0.0000 
     19 N          61.8575   42.7020   34.3835 N.am      2 SEC2        0.0000 
     20 N          62.8270   42.7100   33.2690 N.am     12 SEL2        0.0000 
     21 N          60.8880   42.6940   35.4980 N.am      7 SEP2        0.0000 
     22 N          63.1705   41.3765   33.9175 N.am      2 SEC2        0.0000 
     23 N          63.5140   40.0430   34.5660 N.am      7 SEP2        0.0000 
     24 NZ         59.7440   43.5855   34.4955 N.4       3 LYC4        0.0000 
     25 NZ         58.6000   44.4770   33.4930 N.4      13 LYL4        0.0000 
     26 N          57.7825   43.5775   33.2110 N.am      2 SEC2        0.0000 
     27 N          58.6000   44.4770   33.4930 N.am     12 SEL2        0.0000 
     28 N          56.9650   42.6780   32.9290 N.am      7 SEP2        0.0000 
     29 N          57.3960   44.6760   33.8435 N.am      2 SEC2        0.0000 
     30 N          56.1920   44.8750   34.1940 N.am      7 SEP2        0.0000 
     31 N          58.2265   45.3215   34.7890 N.am      2 SEC2        0.0000 
     32 N          57.8530   46.1660   36.0850 N.am      7 SEP2        0.0000 
     33 NZ         60.7600   44.4105   34.6810 N.4       3 LYC4        0.0000 
     34 NZ         60.6320   46.1270   33.8640 N.4      13 LYL4        0.0000 
     35 Zn         61.7410   46.4530   33.6800 Zn        4 ZIC7        0.0000 
     36 Zn         60.6320   46.1270   33.8640 Zn       14 ZIL7        0.0000 
     37 N          60.2615   47.1785   34.7625 N.am      2 SEC2        0.0000 
     38 N          60.6320   46.1270   33.8640 N.am     12 SEL2        0.0000 
     39 N          59.8910   48.2300   35.6610 N.am      7 SEP2        0.0000 
     40 N          59.9855   43.0050   31.7075 N.am      2 SEC2        0.0000 
     41 N          60.8160   43.8660   32.4150 N.am     12 SEL2        0.0000 
     42 N          59.1550   42.1440   31.0000 N.am      7 SEP2        0.0000 
     43 N          60.8520   43.2800   33.9565 N.am      2 SEC2        0.0000 
     44 NZ         60.8115   46.3050   30.0470 N.4       3 LYC4        0.0000 
     45 NZ         59.9260   47.5460   30.5670 N.4      13 LYL4        0.0000 
     46 N          61.1180   47.4195   30.9765 N.am      2 SEC2        0.0000 
     47 N          59.9260   47.5460   30.5670 N.am     12 SEL2        0.0000 
     48 N          62.3100   47.2930   31.3860 N.am      7 SEP2        0.0000 
     49 N          58.1935   49.0065   33.5150 N.am      2 SEC2        0.0000 
     50 N          58.1560   47.8700   32.5610 N.am     12 SEL2        0.0000 
     51 N          58.2310   50.1430   34.4690 N.am      7 SEP2        0.0000 
     52 N          57.2330   48.8010   32.4700 N.am      2 SEC2        0.0000 
     53 N          56.3100   49.7320   32.3790 N.am      7 SEP2        0.0000 
     54 CA         54.7890   49.8485   27.7390 C.3       5 GLC5        0.0000 
     55 CA         55.4720   48.0510   28.5700 C.3      15 GLL5        0.0000 
     56 CA         54.1060   51.6460   26.9080 C.3      10 GLP5        0.0000 
     57 CA         56.1080   44.1820   28.9860 C.3       5 GLC5        0.0000 
     58 CA         54.7400   45.7850   28.7260 C.3      15 GLL5        0.0000 
     59 CA         57.4760   42.5790   29.2460 C.3      10 GLP5        0.0000 
     60 CA         54.4710   45.2655   33.2225 C.3       5 GLC5        0.0000 
     61 CA         53.1000   44.3400   31.7310 C.3      15 GLL5        0.0000 
     62 CA         55.8420   46.1910   34.7140 C.3      10 GLP5        0.0000 
     63 CA         52.4925   41.4605   32.5635 C.3       5 GLC5        0.0000 
     64 CA         52.2300   43.3490   32.2270 C.3      15 GLL5        0.0000 
     65 CA         52.7550   39.5720   32.9000 C.3      10 GLP5        0.0000 
     66 CA         50.5640   43.8355   32.8110 C.3       5 GLC5        0.0000 
     67 CA         48.8980   44.3220   33.3950 C.3      10 GLP5        0.0000 
     68 O          51.9105   41.8650   34.3865 O.2       1 ALC1        0.0000 
     69 O          51.9470   43.1360   33.5000 O.2      11 ALL1        0.0000 
     70 O          51.8740   40.5940   35.2730 O.2       6 ALP1        0.0000 
     71 N          51.0570   41.2745   31.7690 N.am      2 SEC2        0.0000 
     72 N          51.6280   42.4600   31.3410 N.am     12 SEL2        0.0000 
     73 N          50.4860   40.0890   32.1970 N.am      7 SEP2        0.0000 
     74 CA         52.3120   41.0460   31.4420 C.3       5 GLC5        0.0000 
     75 CA         51.8690   42.5200   29.9840 C.3      15 GLL5        0.0000 
     76 CA         50.4655   41.1790   31.0020 C.3       5 GLC5        0.0000 
     77 CA         49.0620   39.8380   32.0200 C.3      10 GLP5        0.0000 
     78 CA         50.1275   43.4620   30.4680 C.3       5 GLC5        0.0000 
     79 CA         48.3860   44.4040   30.9520 C.3      10 GLP5        0.0000 
     80 CA         51.0650   42.4600   28.2295 C.3       5 GLC5        0.0000 
     81 CA         50.2610   42.4000   26.4750 C.3      10 GLP5        0.0000 
     82 CA         53.0277   47.4616   28.0430 C.3       5 GLC5        0.0000 
     83 CA         54.3740   47.1040   28.0780 C.3      15 GLL5        0.0000 
     84 CA         51.2240   48.2420   27.5610 C.3      10 GLP5        0.0000 
     85 CA         52.1460   44.8717   33.8260 C.3       5 GLC5        0.0000 
     86 CA         51.6270   45.8990   35.6730 C.3      10 GLP5        0.0000 
     87 CA         54.2920   43.1547   32.9470 C.3       5 GLC5        0.0000 
     88 CA         55.9190   42.4650   33.9150 C.3      10 GLP5        0.0000 
@<TRIPOS>BOND
@<TRIPOS>SUBSTRUCTURE
     1 ALC1       68 GROUP        1 X    ALC  0     ROOT ALC X 1
     2 SEC2        7 GROUP        1 X    SEC  0     **** SEC X 2
     3 LYC4        1 GROUP        1 X    LYC  0     **** LYC X 4
     4 ZIC7        4 GROUP        1 X    ZIC  0     **** ZIC X 5
     5 GLC5       54 GROUP        1 X    GLC  0     **** GLC X 6
     6 ALP1       70 GROUP        1 Y    ALP  0     ROOT ALP Y 8
     7 SEP2        9 GROUP        1 Y    SEP  0     **** SEP Y 9
     8 LYP4        3 GROUP        1 Y    LYP  0     **** LYP Y 11
     9 ZIP7        6 GROUP        1 Y    ZIP  0     **** ZIP Y 12
    10 GLP5       56 GROUP        1 Y    GLP  0     **** GLP Y 13
    11 ALL1       69 GROUP        1 Z    ALL  0     ROOT ALL Z 15
    12 SEL2        8 GROUP        1 Z    SEL  0     **** SEL Z 16
    13 LYL4        2 GROUP        1 Z    LYL  0     **** LYL Z 18
    14 ZIL7        5 GROUP        1 Z    ZIL  0     **** ZIL Z 19
    15 GLL5       55 GROUP        1 Z    GLL  0     **** GLL Z 20
@<TRIPOS>SET

