#    Name: 1svm_ATP_1_ligand
#    Modification time : Tue Mar 25 02:51:29 2014

@<TRIPOS>MOLECULE
1svm_ATP_1_ligand
   43    45     1     0     0
SMALL
NO_CHARGES


@<TRIPOS>ATOM
      1 PG         62.4420   43.7830   32.2240 P.3       1 ATP800      0.0000 
      2 O1G        63.1130   45.0640   32.6190 O.co2     1 ATP800      0.0000 
      3 O2G        62.8470   43.2900   30.8110 O.co2     1 ATP800      0.0000 
      4 O3G        62.8270   42.7100   33.2690 O.co2     1 ATP800      0.0000 
      5 PB         60.0210   44.7930   33.4510 P.3       1 ATP800      0.0000 
      6 O1B        58.6000   44.4770   33.4930 O.co2     1 ATP800      0.0000 
      7 O2B        60.6320   46.1270   33.8640 O.co2     1 ATP800      0.0000 
      8 O3B        60.8160   43.8660   32.4150 O.3       1 ATP800      0.0000 
      9 PA         59.2480   47.1340   31.8090 P.3       1 ATP800      0.0000 
     10 O1A        59.9260   47.5460   30.5670 O.co2     1 ATP800      0.0000 
     11 O2A        58.1560   47.8700   32.5610 O.co2     1 ATP800      0.0000 
     12 O3A        59.3070   45.5570   32.1800 O.3       1 ATP800      0.0000 
     13 O5'        58.0950   46.6590   30.7780 O.3       1 ATP800      0.0000 
     14 C5'        57.3040   47.6440   30.1330 C.3       1 ATP800      0.0000 
     15 C4'        56.6410   47.1650   28.8460 C.3       1 ATP800      0.0000 
     16 O4'        56.1670   45.8270   28.9510 O.3       1 ATP800      0.0000 
     17 C3'        55.4720   48.0510   28.5700 C.3       1 ATP800      0.0000 
     18 O3'        55.8940   49.0360   27.6460 O.3       1 ATP800      0.0000 
     19 C2'        54.3740   47.1040   28.0780 C.3       1 ATP800      0.0000 
     20 O2'        54.1930   46.9780   26.6970 O.3       1 ATP800      0.0000 
     21 C1'        54.7400   45.7850   28.7260 C.3       1 ATP800      0.0000 
     22 N9         54.1960   45.3850   30.0860 N.pl3     1 ATP800      0.0000 
     23 C8         54.5020   45.9860   31.2950 C.2       1 ATP800      0.0000 
     24 N7         53.8490   45.3540   32.2390 N.2       1 ATP800      0.0000 
     25 C5         53.1000   44.3400   31.7310 C.ar      1 ATP800      0.0000 
     26 C6         52.2300   43.3490   32.2270 C.ar      1 ATP800      0.0000 
     27 N6         51.9470   43.1360   33.5000 N.pl3     1 ATP800      0.0000 
     28 N1         51.6280   42.4600   31.3410 N.ar      1 ATP800      0.0000 
     29 C2         51.8690   42.5200   29.9840 C.ar      1 ATP800      0.0000 
     30 N3         52.7250   43.4770   29.4730 N.ar      1 ATP800      0.0000 
     31 C4         53.3250   44.3680   30.3360 C.ar      1 ATP800      0.0000 
     32 H          57.9076   48.5470   29.8765 H         1 ATP800      0.0000 
     33 H          56.4928   48.0172   30.8025 H         1 ATP800      0.0000 
     34 H          57.3467   47.2755   28.0399 H         1 ATP800      0.0000 
     35 H          55.1579   48.4679   29.5119 H         1 ATP800      0.0000 
     36 H          53.4468   47.4264   28.5965 H         1 ATP800      0.0000 
     37 H          54.5562   44.9679   28.0242 H         1 ATP800      0.0000 
     38 H          55.0988   46.7390   31.3819 H         1 ATP800      0.0000 
     39 H          51.9560   43.9408   34.0934 H         1 ATP800      0.0000 
     40 H          51.7495   42.1893   33.7545 H         1 ATP800      0.0000 
     41 H          51.4094   41.8490   29.3479 H         1 ATP800      0.0000 
     42 H          55.4463   48.7923   26.7857 H         1 ATP800      0.0000 
     43 H          54.6771   46.1391   26.4482 H         1 ATP800      0.0000 
@<TRIPOS>BOND
     1    2    1 ar   
     2    3    1 ar   
     3    4    1 ar   
     4    8    1 1    
     5    6    5 ar   
     6    7    5 ar   
     7    8    5 1    
     8   12    5 1    
     9   10    9 ar   
    10   11    9 ar   
    11   12    9 1    
    12   13    9 1    
    13   14   13 1    
    14   15   14 1    
    15   32   14 1    
    16   33   14 1    
    17   16   15 1    
    18   17   15 1    
    19   34   15 1    
    20   21   16 1    
    21   18   17 1    
    22   19   17 1    
    23   35   17 1    
    24   42   18 1    
    25   20   19 1    
    26   21   19 1    
    27   36   19 1    
    28   43   20 1    
    29   22   21 1    
    30   37   21 1    
    31   23   22 1    
    32   31   22 1    
    33   24   23 2    
    34   38   23 1    
    35   25   24 1    
    36   26   25 ar   
    37   31   25 ar   
    38   27   26 1    
    39   28   26 ar   
    40   39   27 1    
    41   40   27 1    
    42   29   28 ar   
    43   30   29 ar   
    44   41   29 1    
    45   31   30 ar   
@<TRIPOS>SUBSTRUCTURE
     1 ATP800      1 GROUP   
@<TRIPOS>SET

