#    Name: 4fex_0TO_1_INTS_M
#    Modification time : Mon Mar 24 19:30:54 2014

@<TRIPOS>MOLECULE
4fex_0TO_1_INTS_M
   43     0     6     0     0
SMALL
NO_CHARGES


@<TRIPOS>ATOM
      1 CA        -27.5005  -55.3370   11.4005 C.3       2 GLC5        0.0000 
      2 CA        -28.2100  -56.0160   12.9570 C.3       6 GLL5        0.0000 
      3 CA        -26.7910  -54.6580    9.8440 C.3       4 GLP5        0.0000 
      4 CA        -27.8875  -57.7815   12.1855 C.3       2 GLC5        0.0000 
      5 CA        -27.5650  -59.5470   11.4140 C.3       4 GLP5        0.0000 
      6 CA        -29.4090  -55.5900   11.7340 C.3       2 GLC5        0.0000 
      7 CA        -30.6080  -55.1640   10.5110 C.3       4 GLP5        0.0000 
      8 CA        -26.9505  -60.3155   15.8635 C.3       2 GLC5        0.0000 
      9 CA        -28.5050  -59.7270   16.8550 C.3       6 GLL5        0.0000 
     10 CA        -25.3960  -60.9040   14.8720 C.3       4 GLP5        0.0000 
     11 CA        -28.4350  -60.3640   13.3040 C.3       2 GLC5        0.0000 
     12 CA        -29.3050  -61.1810   15.1940 C.3       6 GLL5        0.0000 
     13 CA        -30.8530  -61.6050   14.3965 C.3       2 GLC5        0.0000 
     14 CA        -32.4010  -62.0290   13.5990 C.3       4 GLP5        0.0000 
     15 CA        -29.5855  -62.9775   14.2400 C.3       2 GLC5        0.0000 
     16 CA        -29.8660  -64.7740   13.2860 C.3       4 GLP5        0.0000 
     17 CA        -27.3505  -61.0425   15.0330 C.3       2 GLC5        0.0000 
     18 N         -29.8325  -62.8865   14.7420 N.am      1 SEC2        0.0000 
     19 N         -29.1410  -62.2570   15.9550 N.am      5 SEL2        0.0000 
     20 N         -30.5240  -63.5160   13.5290 N.am      3 SEP2        0.0000 
     21 CA        -27.0415  -61.5065   16.0345 C.3       2 GLC5        0.0000 
     22 CA        -28.6870  -62.1090   17.1970 C.3       6 GLL5        0.0000 
     23 CA        -25.1685  -63.1520   21.3625 C.3       2 GLC5        0.0000 
     24 CA        -25.8050  -61.5680   21.0090 C.3       6 GLL5        0.0000 
     25 CA        -24.5320  -64.7360   21.7160 C.3       4 GLP5        0.0000 
     26 CA        -25.2435  -60.8645   19.4190 C.3       2 GLC5        0.0000 
     27 CA        -24.6820  -60.1610   17.8290 C.3       4 GLP5        0.0000 
     28 CA        -27.8420  -67.0520   20.1620 C.3       2 GLC5        0.0000 
     29 CA        -28.8600  -65.1150   19.8550 C.3       6 GLL5        0.0000 
     30 CA        -26.8240  -68.9890   20.4690 C.3       4 GLP5        0.0000 
     31 CA        -28.5625  -53.2092   16.5855 C.3       2 GLC5        0.0000 
     32 CA        -28.0080  -54.9040   16.7780 C.3       6 GLL5        0.0000 
     33 CA        -29.1020  -51.5530   17.0870 C.3       4 GLP5        0.0000 
     34 CA        -30.4430  -56.9447   16.1827 C.3       2 GLC5        0.0000 
     35 CA        -28.3120  -57.3190   16.7470 C.3       6 GLL5        0.0000 
     36 CA        -32.5980  -56.6130   16.3130 C.3       4 GLP5        0.0000 
     37 CA        -28.3375  -54.7733   18.7093 C.3       2 GLC5        0.0000 
     38 CA        -28.0760  -56.1370   17.4430 C.3       6 GLL5        0.0000 
     39 CA        -28.6330  -54.0260   20.3080 C.3       4 GLP5        0.0000 
     40 CA        -26.3186  -60.7108   18.4413 C.3       2 GLC5        0.0000 
     41 CA        -27.7370  -61.7710   19.7820 C.3       6 GLL5        0.0000 
     42 CA        -26.5866  -63.5551   17.8770 C.3       2 GLC5        0.0000 
     43 CA        -24.8550  -64.2530   17.2970 C.3       4 GLP5        0.0000 
@<TRIPOS>BOND
@<TRIPOS>SUBSTRUCTURE
     1 SEC2       18 GROUP        1 X    SEC  0     ROOT SEC X 2
     2 GLC5        1 GROUP        1 X    GLC  0     **** GLC X 6
     3 SEP2       20 GROUP        1 Y    SEP  0     ROOT SEP Y 9
     4 GLP5        3 GROUP        1 Y    GLP  0     **** GLP Y 13
     5 SEL2       19 GROUP        1 Z    SEL  0     ROOT SEL Z 16
     6 GLL5        2 GROUP        1 Z    GLL  0     **** GLL Z 20
@<TRIPOS>SET

