#    Name: 4fex_0TO_1_ligand
#    Modification time : Mon Mar 24 19:30:54 2014

@<TRIPOS>MOLECULE
4fex_0TO_1_ligand
   36    38     1     0     0
SMALL
NO_CHARGES


@<TRIPOS>ATOM
      1 C21       -28.0380  -54.8270   15.3900 C.ar      1 0TO302      0.0000 
      2 C20       -28.1690  -56.0160   14.6850 C.ar      1 0TO302      0.0000 
      3 CL        -28.2100  -56.0160   12.9570 Cl        1 0TO302      0.0000 
      4 C18       -28.2640  -57.2340   15.3580 C.ar      1 0TO302      0.0000 
      5 C19       -28.0080  -54.9040   16.7780 C.ar      1 0TO302      0.0000 
      6 C17       -28.0760  -56.1370   17.4430 C.ar      1 0TO302      0.0000 
      7 C7        -28.3120  -57.3190   16.7470 C.ar      1 0TO302      0.0000 
      8 N6        -28.2910  -58.4990   17.3850 N.pl3     1 0TO302      0.0000 
      9 C4        -28.5050  -59.7270   16.8550 C.ar      1 0TO302      0.0000 
     10 N5        -29.0340  -59.9530   15.6300 N.ar      1 0TO302      0.0000 
     11 C8        -29.3050  -61.1810   15.1940 C.ar      1 0TO302      0.0000 
     12 N9        -29.1410  -62.2570   15.9550 N.ar      1 0TO302      0.0000 
     13 C2        -28.4290  -60.8330   17.6880 C.ar      1 0TO302      0.0000 
     14 C1        -28.6870  -62.1090   17.1970 C.ar      1 0TO302      0.0000 
     15 C3        -27.9180  -60.6670   18.9620 C.ar      1 0TO302      0.0000 
     16 C10       -27.7370  -61.7710   19.7820 C.ar      1 0TO302      0.0000 
     17 O11       -27.2590  -61.5820   21.0450 O.3       1 0TO302      0.0000 
     18 C14       -25.8050  -61.5680   21.0090 C.3       1 0TO302      0.0000 
     19 C12       -28.0350  -63.0510   19.3120 C.ar      1 0TO302      0.0000 
     20 C15       -28.5160  -63.2180   18.0070 C.ar      1 0TO302      0.0000 
     21 O13       -27.8540  -64.1290   20.1340 O.3       1 0TO302      0.0000 
     22 C16       -28.8600  -65.1150   19.8550 C.3       1 0TO302      0.0000 
     23 H         -27.9670  -53.9383   14.9130 H         1 0TO302      0.0000 
     24 H         -28.3005  -58.1152   14.7979 H         1 0TO302      0.0000 
     25 H         -27.9339  -54.0351   17.3376 H         1 0TO302      0.0000 
     26 H         -27.9479  -56.1635   18.4691 H         1 0TO302      0.0000 
     27 H         -28.0766  -58.4713   18.4578 H         1 0TO302      0.0000 
     28 H         -29.6658  -61.3037   14.2003 H         1 0TO302      0.0000 
     29 H         -27.6720  -59.7278   19.3028 H         1 0TO302      0.0000 
     30 H         -28.7372  -64.1566   17.6622 H         1 0TO302      0.0000 
     31 H         -25.4122  -61.4348   21.9189 H         1 0TO302      0.0000 
     32 H         -25.4341  -62.4254   20.6522 H         1 0TO302      0.0000 
     33 H         -25.4549  -60.8330   20.4282 H         1 0TO302      0.0000 
     34 H         -28.8201  -65.4281   18.9061 H         1 0TO302      0.0000 
     35 H         -28.7586  -65.9234   20.4349 H         1 0TO302      0.0000 
     36 H         -29.7818  -64.7586   20.0076 H         1 0TO302      0.0000 
@<TRIPOS>BOND
     1    2    1 ar   
     2    5    1 ar   
     3   23    1 1    
     4    3    2 1    
     5    4    2 ar   
     6    7    4 ar   
     7   24    4 1    
     8    6    5 ar   
     9   25    5 1    
    10    7    6 ar   
    11   26    6 1    
    12    8    7 1    
    13    9    8 1    
    14   27    8 1    
    15   10    9 ar   
    16   13    9 ar   
    17   11   10 ar   
    18   12   11 ar   
    19   28   11 1    
    20   14   12 ar   
    21   14   13 ar   
    22   15   13 ar   
    23   20   14 ar   
    24   16   15 ar   
    25   29   15 1    
    26   17   16 1    
    27   19   16 ar   
    28   18   17 1    
    29   31   18 1    
    30   32   18 1    
    31   33   18 1    
    32   20   19 ar   
    33   21   19 1    
    34   30   20 1    
    35   22   21 1    
    36   34   22 1    
    37   35   22 1    
    38   36   22 1    
@<TRIPOS>SUBSTRUCTURE
     1 0TO302      1 GROUP   
@<TRIPOS>SET

