#    Name: 4dei_0JL_1_INTS_M
#    Modification time : Tue Mar 25 09:39:28 2014

@<TRIPOS>MOLECULE
4dei_0JL_1_INTS_M
   90     0     6     0     0
SMALL
NO_CHARGES


@<TRIPOS>ATOM
      1 CA         26.5325   30.6550   62.0240 C.3       2 GLC5        0.0000 
      2 CA         28.3430   31.0880   60.9540 C.3       6 GLL5        0.0000 
      3 CA         24.7220   30.2220   63.0940 C.3       4 GLP5        0.0000 
      4 CA         28.5525   29.0185   61.6235 C.3       2 GLC5        0.0000 
      5 CA         28.7620   26.9490   62.2930 C.3       4 GLP5        0.0000 
      6 CA         28.1090   30.2575   58.8850 C.3       2 GLC5        0.0000 
      7 CA         27.8750   29.4270   56.8160 C.3       4 GLP5        0.0000 
      8 CA         23.1725   30.6150   59.5915 C.3       2 GLC5        0.0000 
      9 CA         25.2840   30.6250   58.9590 C.3       6 GLL5        0.0000 
     10 CA         21.0610   30.6050   60.2240 C.3       4 GLP5        0.0000 
     11 CA         26.0115   28.9400   57.8855 C.3       2 GLC5        0.0000 
     12 CA         24.1480   28.4530   58.9550 C.3       6 GLL5        0.0000 
     13 N          21.1730   26.0270   56.9870 N.am      1 SEC2        0.0000 
     14 N          21.1790   27.5690   56.9010 N.am      5 SEL2        0.0000 
     15 N          21.1670   24.4850   57.0730 N.am      3 SEP2        0.0000 
     16 CA         21.8650   32.4420   54.4570 C.3       2 GLC5        0.0000 
     17 CA         20.9920   30.7180   55.4480 C.3       6 GLL5        0.0000 
     18 CA         22.7380   34.1660   53.4660 C.3       4 GLP5        0.0000 
     19 CA         21.0175   30.1600   52.1620 C.3       2 GLC5        0.0000 
     20 CA         20.3170   30.4010   54.1060 C.3       6 GLL5        0.0000 
     21 CA         21.7180   29.9190   50.2180 C.3       4 GLP5        0.0000 
     22 CA         18.8080   30.2730   53.5025 C.3       2 GLC5        0.0000 
     23 CA         17.2990   30.1450   52.8990 C.3       4 GLP5        0.0000 
     24 CA         19.9200   28.2940   53.6630 C.3       2 GLC5        0.0000 
     25 CA         19.5230   26.1870   53.2200 C.3       4 GLP5        0.0000 
     26 CA         18.0160   29.2170   56.9665 C.3       2 GLC5        0.0000 
     27 CA         18.7920   31.2510   56.6380 C.3       6 GLL5        0.0000 
     28 CA         17.2400   27.1830   57.2950 C.3       4 GLP5        0.0000 
     29 CA         18.0455   30.6980   54.7685 C.3       2 GLC5        0.0000 
     30 CA         16.6540   31.1735   55.9245 C.3       2 GLC5        0.0000 
     31 CA         18.0190   32.0680   57.4620 C.3       6 GLL5        0.0000 
     32 CA         15.2890   30.2790   54.3870 C.3       4 GLP5        0.0000 
     33 CA         17.1560   31.5640   59.2495 C.3       2 GLC5        0.0000 
     34 CA         16.2930   31.0600   61.0370 C.3       4 GLP5        0.0000 
     35 CA         17.7605   32.7315   59.8595 C.3       2 GLC5        0.0000 
     36 CA         18.5720   33.2300   57.9950 C.3       6 GLL5        0.0000 
     37 CA         16.9490   32.2330   61.7240 C.3       4 GLP5        0.0000 
     38 N          16.6930   33.9680   59.7135 N.am      1 SEC2        0.0000 
     39 N          17.8350   34.0220   58.7920 N.am      5 SEL2        0.0000 
     40 N          15.5510   33.9140   60.6350 N.am      3 SEP2        0.0000 
     41 CA         17.5955   34.8500   57.2765 C.3       2 GLC5        0.0000 
     42 CA         18.3360   35.1360   59.3140 C.3       6 GLL5        0.0000 
     43 CA         16.8550   34.5640   55.2390 C.3       4 GLP5        0.0000 
     44 CA         16.1705   34.8845   59.1200 C.3       2 GLC5        0.0000 
     45 CA         14.0050   34.6330   58.9260 C.3       4 GLP5        0.0000 
     46 CA         17.1700   34.2760   60.6225 C.3       2 GLC5        0.0000 
     47 CA         16.0040   33.4160   61.9310 C.3       4 GLP5        0.0000 
     48 CA         21.0195   35.1540   62.4285 C.3       2 GLC5        0.0000 
     49 CA         20.4470   36.4990   60.9980 C.3       6 GLL5        0.0000 
     50 CA         21.5920   33.8090   63.8590 C.3       4 GLP5        0.0000 
     51 CA         20.5115   34.3240   60.9910 C.3       2 GLC5        0.0000 
     52 CA         20.5760   32.1490   60.9840 C.3       4 GLP5        0.0000 
     53 CA         18.3310   38.3045   61.1540 C.3       2 GLC5        0.0000 
     54 CA         20.1730   37.8080   61.7110 C.3       6 GLL5        0.0000 
     55 CA         16.4890   38.8010   60.5970 C.3       4 GLP5        0.0000 
     56 CA         20.9515   40.0730   59.5805 C.3       2 GLC5        0.0000 
     57 CA         21.1090   39.9610   61.6620 C.3       6 GLL5        0.0000 
     58 CA         20.7940   40.1850   57.4990 C.3       4 GLP5        0.0000 
     59 CA         25.2518   30.3347   61.2308 C.3       2 GLC5        0.0000 
     60 CA         26.7634   30.3864   57.8876 C.3       2 GLC5        0.0000 
     61 CA         26.2790   30.2700   59.7760 C.3       6 GLL5        0.0000 
     62 CA         21.6668   29.6750   58.7665 C.3       2 GLC5        0.0000 
     63 CA         22.3180   29.3940   57.0760 C.3       6 GLL5        0.0000 
     64 CA         24.2502   26.5570   59.8047 C.3       2 GLC5        0.0000 
     65 CA         23.1390   27.6130   58.4820 C.3       6 GLL5        0.0000 
     66 CA         24.8570   25.0810   60.8910 C.3       4 GLP5        0.0000 
     67 CA         22.3523   29.3190   59.4712 C.3       2 GLC5        0.0000 
     68 CA         21.2885   26.7587   58.6300 C.3       2 GLC5        0.0000 
     69 CA         19.8940   25.6630   59.2480 C.3       4 GLP5        0.0000 
     70 CA         23.1505   26.0643   57.4780 C.3       2 GLC5        0.0000 
     71 CA         22.2270   28.0960   57.5420 C.3       6 GLL5        0.0000 
     72 CA         23.6180   24.2740   56.9440 C.3       4 GLP5        0.0000 
     73 CA         22.5297   29.7668   54.5390 C.3       2 GLC5        0.0000 
     74 CA         24.4050   28.9740   54.3010 C.3       4 GLP5        0.0000 
     75 CA         20.3912   33.6338   55.1987 C.3       2 GLC5        0.0000 
     76 CA         20.1110   31.6020   56.3390 C.3       6 GLL5        0.0000 
     77 CA         20.3960   35.0860   53.7900 C.3       4 GLP5        0.0000 
     78 CA         19.6720   35.9257   57.1227 C.3       2 GLC5        0.0000 
     79 CA         19.8920   33.5700   57.6990 C.3       6 GLL5        0.0000 
     80 CA         19.1780   37.7020   56.2810 C.3       4 GLP5        0.0000 
     81 CA         20.2810   34.6178   55.8773 C.3       2 GLC5        0.0000 
     82 CA         20.4400   34.7290   58.2300 C.3       6 GLL5        0.0000 
     83 CA         18.0435   33.9820   56.5430 C.3       2 GLC5        0.0000 
     84 CA         20.3710   33.1492   59.4742 C.3       2 GLC5        0.0000 
     85 CA         17.6303   33.1118   56.1445 C.3       2 GLC5        0.0000 
     86 CA         20.3251   31.1606   58.4234 C.3       2 GLC5        0.0000 
     87 CA         19.4357   32.3990   59.3563 C.3       2 GLC5        0.0000 
     88 CA         19.0860   36.5150   57.7332 C.3       2 GLC5        0.0000 
     89 CA         19.7850   33.7385   60.0847 C.3       2 GLC5        0.0000 
     90 CA         19.6520   35.5200   59.0570 C.3       6 GLL5        0.0000 
@<TRIPOS>BOND
@<TRIPOS>SUBSTRUCTURE
     1 SEC2       13 GROUP        1 X    SEC  0     ROOT SEC X 2
     2 GLC5        1 GROUP        1 X    GLC  0     **** GLC X 6
     3 SEP2       15 GROUP        1 Y    SEP  0     ROOT SEP Y 9
     4 GLP5        3 GROUP        1 Y    GLP  0     **** GLP Y 13
     5 SEL2       14 GROUP        1 Z    SEL  0     ROOT SEL Z 16
     6 GLL5        2 GROUP        1 Z    GLL  0     **** GLL Z 20
@<TRIPOS>SET

