#    Name: 4dei_0JL_1_ligand
#    Modification time : Tue Mar 25 09:39:28 2014

@<TRIPOS>MOLECULE
4dei_0JL_1_ligand
   55    59     1     0     0
SMALL
NO_CHARGES


@<TRIPOS>ATOM
      1 CBF        28.3430   31.0880   60.9540 C.3       1 0JL1401     0.0000 
      2 CBE        27.1360   31.2780   60.0330 C.2       1 0JL1401     0.0000 
      3 CBB        26.2790   30.2700   59.7760 C.2       1 0JL1401     0.0000 
      4 NBD        26.8790   32.4560   59.4460 N.2       1 0JL1401     0.0000 
      5 S          25.5220   32.2440   58.5510 S.3       1 0JL1401     0.0000 
      6 CBA        25.2840   30.6250   58.9590 C.2       1 0JL1401     0.0000 
      7 NAZ        24.2530   29.7840   58.4940 N.am      1 0JL1401     0.0000 
      8 CAT        23.3240   30.2490   57.5350 C.2       1 0JL1401     0.0000 
      9 CAS        22.3180   29.3940   57.0760 C.2       1 0JL1401     0.0000 
     10 OBG        23.3940   31.4020   57.1160 O.2       1 0JL1401     0.0000 
     11 CAY        24.1480   28.4530   58.9550 C.2       1 0JL1401     0.0000 
     12 CAX        23.1390   27.6130   58.4820 C.2       1 0JL1401     0.0000 
     13 CAW        22.2270   28.0960   57.5420 C.2       1 0JL1401     0.0000 
     14 NAV        21.1790   27.5690   56.9010 N.2       1 0JL1401     0.0000 
     15 NAU        20.6840   28.4240   56.1490 N.2       1 0JL1401     0.0000 
     16 NAR        21.3120   29.4910   56.2100 N.pl3     1 0JL1401     0.0000 
     17 CAP        20.9920   30.7180   55.4480 C.3       1 0JL1401     0.0000 
     18 CAQ        20.3170   30.4010   54.1060 C.3       1 0JL1401     0.0000 
     19 CAO        20.1110   31.6020   56.3390 C.ar      1 0JL1401     0.0000 
     20 CAI        20.6620   32.7610   56.8760 C.ar      1 0JL1401     0.0000 
     21 CAH        19.8920   33.5700   57.6990 C.ar      1 0JL1401     0.0000 
     22 CAG        20.4400   34.7290   58.2300 C.ar      1 0JL1401     0.0000 
     23 CAN        18.7920   31.2510   56.6380 C.ar      1 0JL1401     0.0000 
     24 CAM        18.0190   32.0680   57.4620 C.ar      1 0JL1401     0.0000 
     25 CAL        18.5720   33.2300   57.9950 C.ar      1 0JL1401     0.0000 
     26 NAK        17.8350   34.0220   58.7920 N.ar      1 0JL1401     0.0000 
     27 CAJ        18.3360   35.1360   59.3140 C.ar      1 0JL1401     0.0000 
     28 CAF        19.6520   35.5200   59.0570 C.ar      1 0JL1401     0.0000 
     29 OAE        20.1750   36.6610   59.5870 O.3       1 0JL1401     0.0000 
     30 CAD        20.4470   36.4990   60.9980 C.3       1 0JL1401     0.0000 
     31 CAC        20.1730   37.8080   61.7110 C.3       1 0JL1401     0.0000 
     32 OAB        21.3920   38.5560   61.7820 O.3       1 0JL1401     0.0000 
     33 CAA        21.1090   39.9610   61.6620 C.3       1 0JL1401     0.0000 
     34 H          26.3830   29.3542   60.1601 H         1 0JL1401     0.0000 
     35 H          24.8260   28.1063   59.6466 H         1 0JL1401     0.0000 
     36 H          23.0680   26.6505   58.8214 H         1 0JL1401     0.0000 
     37 H          21.9117   31.2655   55.2524 H         1 0JL1401     0.0000 
     38 H          21.6335   33.0149   56.6634 H         1 0JL1401     0.0000 
     39 H          21.4010   34.9954   58.0182 H         1 0JL1401     0.0000 
     40 H          18.3918   30.3880   56.2489 H         1 0JL1401     0.0000 
     41 H          17.0489   31.8143   57.6741 H         1 0JL1401     0.0000 
     42 H          17.7597   35.7532   59.9295 H         1 0JL1401     0.0000 
     43 H          21.4903   36.2240   61.1705 H         1 0JL1401     0.0000 
     44 H          19.8105   35.7271   61.4373 H         1 0JL1401     0.0000 
     45 H          19.7824   37.5800   62.7055 H         1 0JL1401     0.0000 
     46 H          19.4028   38.3460   61.1534 H         1 0JL1401     0.0000 
     47 H          28.9629   30.3813   60.6129 H         1 0JL1401     0.0000 
     48 H          28.8776   31.9283   61.0438 H         1 0JL1401     0.0000 
     49 H          28.0675   30.8160   61.8760 H         1 0JL1401     0.0000 
     50 H          20.9012   29.8397   53.5198 H         1 0JL1401     0.0000 
     51 H          19.4598   29.9012   54.2303 H         1 0JL1401     0.0000 
     52 H          20.1001   31.2321   53.5939 H         1 0JL1401     0.0000 
     53 H          21.9416   40.5129   61.7086 H         1 0JL1401     0.0000 
     54 H          20.6624   40.1771   60.7937 H         1 0JL1401     0.0000 
     55 H          20.5037   40.2815   62.3907 H         1 0JL1401     0.0000 
@<TRIPOS>BOND
     1    2    1 1    
     2   47    1 1    
     3   48    1 1    
     4   49    1 1    
     5    3    2 1    
     6    4    2 2    
     7    6    3 2    
     8   34    3 1    
     9    5    4 1    
    10    6    5 1    
    11    7    6 1    
    12    8    7 am   
    13   11    7 1    
    14    9    8 1    
    15   10    8 2    
    16   13    9 2    
    17   16    9 1    
    18   12   11 2    
    19   35   11 1    
    20   13   12 1    
    21   36   12 1    
    22   14   13 1    
    23   15   14 2    
    24   16   15 1    
    25   17   16 1    
    26   18   17 1    
    27   19   17 1    
    28   37   17 1    
    29   50   18 1    
    30   51   18 1    
    31   52   18 1    
    32   20   19 ar   
    33   23   19 ar   
    34   21   20 ar   
    35   38   20 1    
    36   22   21 ar   
    37   25   21 ar   
    38   28   22 ar   
    39   39   22 1    
    40   24   23 ar   
    41   40   23 1    
    42   25   24 ar   
    43   41   24 1    
    44   26   25 ar   
    45   27   26 ar   
    46   28   27 ar   
    47   42   27 1    
    48   29   28 1    
    49   30   29 1    
    50   31   30 1    
    51   43   30 1    
    52   44   30 1    
    53   32   31 1    
    54   45   31 1    
    55   46   31 1    
    56   33   32 1    
    57   53   33 1    
    58   54   33 1    
    59   55   33 1    
@<TRIPOS>SUBSTRUCTURE
     1 0JL1401     1 GROUP   
@<TRIPOS>SET

