#    Name: 3zm9_QMQ_2_INTS_M
#    Modification time : Tue Mar 25 03:41:08 2014

@<TRIPOS>MOLECULE
3zm9_QMQ_2_INTS_M
   69     0     9     0     0
SMALL
NO_CHARGES


@<TRIPOS>ATOM
      1 CA          5.6875  -24.2020  -32.2705 C.3       3 GLC5        0.0000 
      2 CA          6.0980  -25.5260  -31.1950 C.3       9 GLL5        0.0000 
      3 CA          5.2770  -22.8780  -33.3460 C.3       6 GLP5        0.0000 
      4 CA          5.4895  -22.0170  -28.4145 C.3       3 GLC5        0.0000 
      5 CA          6.1760  -23.6100  -29.4990 C.3       9 GLL5        0.0000 
      6 CA          4.8030  -20.4240  -27.3300 C.3       6 GLP5        0.0000 
      7 CA          5.8585  -22.2920  -30.6825 C.3       3 GLC5        0.0000 
      8 CA          5.5410  -20.9740  -31.8660 C.3       6 GLP5        0.0000 
      9 CA          8.3370  -23.0355  -29.6090 C.3       3 GLC5        0.0000 
     10 CA         10.4980  -22.4610  -29.7190 C.3       6 GLP5        0.0000 
     11 CA         10.6435  -29.0875  -28.2775 C.3       3 GLC5        0.0000 
     12 CA         11.3480  -27.1210  -27.5810 C.3       9 GLL5        0.0000 
     13 CA          9.9390  -31.0540  -28.9740 C.3       6 GLP5        0.0000 
     14 CA         12.5055  -28.3970  -28.2880 C.3       3 GLC5        0.0000 
     15 CA         13.6630  -29.6730  -28.9950 C.3       6 GLP5        0.0000 
     16 CA          6.9495  -29.4620  -19.6590 C.3       3 GLC5        0.0000 
     17 CA          8.2610  -28.0410  -20.5660 C.3       9 GLL5        0.0000 
     18 CA          5.6380  -30.8830  -18.7520 C.3       6 GLP5        0.0000 
     19 CA          9.1815  -25.8625  -17.2835 C.3       3 GLC5        0.0000 
     20 CA          7.6170  -27.0900  -17.4290 C.3       9 GLL5        0.0000 
     21 CA         10.7460  -24.6350  -17.1380 C.3       6 GLP5        0.0000 
     22 CA          2.8560  -28.9245  -15.5505 C.3       3 GLC5        0.0000 
     23 CA          4.7700  -27.9280  -15.1990 C.3       9 GLL5        0.0000 
     24 CA          0.9420  -29.9210  -15.9020 C.3       6 GLP5        0.0000 
     25 CA          1.5860  -26.3865   -9.8765 C.3       3 GLC5        0.0000 
     26 CA          2.2010  -27.5270  -11.6510 C.3       9 GLL5        0.0000 
     27 CA          0.9710  -25.2460   -8.1020 C.3       6 GLP5        0.0000 
     28 CA          0.5265  -27.8100  -10.5550 C.3       3 GLC5        0.0000 
     29 CA         -1.1480  -28.0930   -9.4590 C.3       6 GLP5        0.0000 
     30 CA          0.7485  -27.9975  -13.1595 C.3       3 GLC5        0.0000 
     31 CA         -0.7040  -28.4680  -14.6680 C.3       6 GLP5        0.0000 
     32 N           0.6705  -26.6600  -10.4325 N.am      2 SEC2        0.0000 
     33 N           1.5210  -26.3140  -11.5640 N.am      8 SEL2        0.0000 
     34 N          -0.1800  -27.0060   -9.3010 N.am      5 SEP2        0.0000 
     35 CA          1.3220  -25.3155  -10.3105 C.3       3 GLC5        0.0000 
     36 CA          1.6730  -25.3850  -12.5190 C.3       9 GLL5        0.0000 
     37 CA         -0.2830  -25.9920  -11.8735 C.3       3 GLC5        0.0000 
     38 CA         -2.2390  -26.5990  -11.2280 C.3       6 GLP5        0.0000 
     39 O           0.4765  -23.7425  -11.0775 O.2       1 ALC1        0.0000 
     40 O           1.0230  -24.2140  -12.4370 O.2       7 ALL1        0.0000 
     41 O          -0.0700  -23.2710   -9.7180 O.2       4 ALP1        0.0000 
     42 CA         10.2430  -29.8492  -26.3623 C.3       3 GLC5        0.0000 
     43 CA          9.7500  -28.1750  -26.0450 C.3       9 GLL5        0.0000 
     44 CA         10.1140  -31.8250  -26.5610 C.3       6 GLP5        0.0000 
     45 CA          9.9593  -30.1717  -25.3975 C.3       3 GLC5        0.0000 
     46 CA          9.3690  -28.6030  -24.7740 C.3       9 GLL5        0.0000 
     47 CA          8.3710  -25.3690  -19.1632 C.3       3 GLC5        0.0000 
     48 CA          7.7170  -26.7660  -19.8610 C.3       9 GLL5        0.0000 
     49 CA          9.3890  -23.8270  -19.0550 C.3       6 GLP5        0.0000 
     50 CA          6.4705  -28.9780  -18.4037 C.3       3 GLC5        0.0000 
     51 CA          6.9890  -27.0560  -18.6820 C.3       9 GLL5        0.0000 
     52 CA          8.1290  -27.1590  -15.0315 C.3       3 GLC5        0.0000 
     53 CA          9.0100  -27.0840  -13.2140 C.3       6 GLP5        0.0000 
     54 CA          5.9158  -29.1967  -17.5300 C.3       3 GLC5        0.0000 
     55 CA          6.8790  -27.3780  -16.2690 C.3       9 GLL5        0.0000 
     56 CA          5.4430  -29.1717  -18.4592 C.3       3 GLC5        0.0000 
     57 CA          4.8790  -27.6140  -17.5900 C.3       9 GLL5        0.0000 
     58 CA          3.3355  -26.9247  -17.8948 C.3       3 GLC5        0.0000 
     59 CA          1.4230  -26.3890  -17.6230 C.3       6 GLP5        0.0000 
     60 CA          6.6680  -25.4743  -16.0830 C.3       3 GLC5        0.0000 
     61 CA          5.5080  -27.6430  -16.3470 C.3       9 GLL5        0.0000 
     62 CA          6.9580  -23.5100  -15.5680 C.3       6 GLP5        0.0000 
     63 CA          3.2810  -27.0872  -16.6980 C.3       3 GLC5        0.0000 
     64 CA          2.1193  -26.2850  -15.6283 C.3       3 GLC5        0.0000 
     65 CA          3.1520  -26.7630  -13.6860 C.3       9 GLL5        0.0000 
     66 CA          3.7071  -24.9530  -12.1576 C.3       3 GLC5        0.0000 
     67 CA          5.1700  -24.1230  -11.2390 C.3       6 GLP5        0.0000 
     68 CA          0.7701  -27.1255  -13.8721 C.3       3 GLC5        0.0000 
     69 CA          2.4790  -25.5990  -13.5810 C.3       9 GLL5        0.0000 
@<TRIPOS>BOND
@<TRIPOS>SUBSTRUCTURE
     1 ALC1       39 GROUP        1 X    ALC  0     ROOT ALC X 1
     2 SEC2       32 GROUP        1 X    SEC  0     **** SEC X 2
     3 GLC5        1 GROUP        1 X    GLC  0     **** GLC X 6
     4 ALP1       41 GROUP        1 Y    ALP  0     ROOT ALP Y 8
     5 SEP2       34 GROUP        1 Y    SEP  0     **** SEP Y 9
     6 GLP5        3 GROUP        1 Y    GLP  0     **** GLP Y 13
     7 ALL1       40 GROUP        1 Z    ALL  0     ROOT ALL Z 15
     8 SEL2       33 GROUP        1 Z    SEL  0     **** SEL Z 16
     9 GLL5        2 GROUP        1 Z    GLL  0     **** GLL Z 20
@<TRIPOS>SET

