#    Name: 3zm9_QMQ_2_ligand
#    Modification time : Tue Mar 25 03:41:08 2014

@<TRIPOS>MOLECULE
3zm9_QMQ_2_ligand
   71    75     1     0     0
SMALL
NO_CHARGES


@<TRIPOS>ATOM
      1 CAA         6.0980  -25.5260  -31.1950 C.3       1 QMQ1458     0.0000 
      2 NBI         6.7430  -24.8480  -30.0560 N.pl3     1 QMQ1458     0.0000 
      3 CAB         6.1760  -23.6100  -29.4990 C.3       1 QMQ1458     0.0000 
      4 CBE         7.8440  -25.3930  -29.4660 C.ar      1 QMQ1458     0.0000 
      5 CAM         8.3920  -24.8280  -28.2970 C.ar      1 QMQ1458     0.0000 
      6 CAP         9.5320  -25.3500  -27.6680 C.ar      1 QMQ1458     0.0000 
      7 CAL         8.4790  -26.5100  -30.0140 C.ar      1 QMQ1458     0.0000 
      8 CAO         9.6070  -27.0600  -29.3970 C.ar      1 QMQ1458     0.0000 
      9 NBK        10.1570  -26.4960  -28.2320 N.pl3     1 QMQ1458     0.0000 
     10 CAW        11.3480  -27.1210  -27.5810 C.3       1 QMQ1458     0.0000 
     11 CBD        10.9940  -27.5720  -26.2820 C.ar      1 QMQ1458     0.0000 
     12 CAK        11.8620  -27.3870  -25.2020 C.ar      1 QMQ1458     0.0000 
     13 CAG        11.4860  -27.8250  -23.9200 C.ar      1 QMQ1458     0.0000 
     14 CAJ         9.7500  -28.1750  -26.0450 C.ar      1 QMQ1458     0.0000 
     15 CAF         9.3690  -28.6030  -24.7740 C.ar      1 QMQ1458     0.0000 
     16 CBB        10.2400  -28.4340  -23.6940 C.ar      1 QMQ1458     0.0000 
     17 CAU         9.8520  -28.8710  -22.4050 C.3       1 QMQ1458     0.0000 
     18 CAS         9.4570  -27.6850  -21.4890 C.3       1 QMQ1458     0.0000 
     19 CAR         8.2610  -28.0410  -20.5660 C.3       1 QMQ1458     0.0000 
     20 CAT         7.7170  -26.7660  -19.8610 C.3       1 QMQ1458     0.0000 
     21 CBA         6.9890  -27.0560  -18.6820 C.ar      1 QMQ1458     0.0000 
     22 CAE         7.6170  -27.0900  -17.4290 C.ar      1 QMQ1458     0.0000 
     23 CAI         6.8790  -27.3780  -16.2690 C.ar      1 QMQ1458     0.0000 
     24 CAD         5.6170  -27.3070  -18.7430 C.ar      1 QMQ1458     0.0000 
     25 CAH         4.8790  -27.6140  -17.5900 C.ar      1 QMQ1458     0.0000 
     26 CBC         5.5080  -27.6430  -16.3470 C.ar      1 QMQ1458     0.0000 
     27 CAV         4.7700  -27.9280  -15.1990 C.3       1 QMQ1458     0.0000 
     28 N9          3.8840  -26.7410  -14.7920 N.pl3     1 QMQ1458     0.0000 
     29 C8          3.6750  -25.5520  -15.3780 C.2       1 QMQ1458     0.0000 
     30 N7          2.8070  -24.8490  -14.6420 N.2       1 QMQ1458     0.0000 
     31 C5          2.4790  -25.5990  -13.5810 C.ar      1 QMQ1458     0.0000 
     32 C4          3.1520  -26.7630  -13.6860 C.ar      1 QMQ1458     0.0000 
     33 N3          3.0260  -27.7220  -12.7600 N.ar      1 QMQ1458     0.0000 
     34 C2          2.2010  -27.5270  -11.6510 C.ar      1 QMQ1458     0.0000 
     35 N1          1.5210  -26.3140  -11.5640 N.ar      1 QMQ1458     0.0000 
     36 C6          1.6730  -25.3850  -12.5190 C.ar      1 QMQ1458     0.0000 
     37 N6          1.0230  -24.2140  -12.4370 N.pl3     1 QMQ1458     0.0000 
     38 H           7.9303  -23.9896  -27.8859 H         1 QMQ1458     0.0000 
     39 H           9.9085  -24.9264  -26.8303 H         1 QMQ1458     0.0000 
     40 H           8.1141  -26.9324  -30.8793 H         1 QMQ1458     0.0000 
     41 H          10.0501  -27.9022  -29.8048 H         1 QMQ1458     0.0000 
     42 H          12.1548  -26.3755  -27.5422 H         1 QMQ1458     0.0000 
     43 H          11.6959  -27.9497  -28.2138 H         1 QMQ1458     0.0000 
     44 H          12.7692  -26.9345  -25.3403 H         1 QMQ1458     0.0000 
     45 H          12.1378  -27.6966  -23.1301 H         1 QMQ1458     0.0000 
     46 H           9.0960  -28.3049  -26.8420 H         1 QMQ1458     0.0000 
     47 H           8.4532  -29.0405  -24.6303 H         1 QMQ1458     0.0000 
     48 H          10.6614  -29.4173  -21.8889 H         1 QMQ1458     0.0000 
     49 H           8.9824  -29.5511  -22.4396 H         1 QMQ1458     0.0000 
     50 H           9.1832  -26.8338  -22.1091 H         1 QMQ1458     0.0000 
     51 H          10.3110  -27.4140  -20.8715 H         1 QMQ1458     0.0000 
     52 H           8.5905  -28.7461  -19.8144 H         1 QMQ1458     0.0000 
     53 H           7.4710  -28.4787  -21.1618 H         1 QMQ1458     0.0000 
     54 H           7.1011  -26.2290  -20.6102 H         1 QMQ1458     0.0000 
     55 H           8.5933  -26.1170  -19.6612 H         1 QMQ1458     0.0000 
     56 H           8.6249  -26.9030  -17.3574 H         1 QMQ1458     0.0000 
     57 H           7.3530  -27.3935  -15.3566 H         1 QMQ1458     0.0000 
     58 H           5.1316  -27.2665  -19.6561 H         1 QMQ1458     0.0000 
     59 H           3.8763  -27.8166  -17.6665 H         1 QMQ1458     0.0000 
     60 H           5.4131  -28.1609  -14.3287 H         1 QMQ1458     0.0000 
     61 H           4.0987  -28.7980  -15.3319 H         1 QMQ1458     0.0000 
     62 H           4.0897  -25.2516  -16.2059 H         1 QMQ1458     0.0000 
     63 H           2.1019  -28.2368  -10.9414 H         1 QMQ1458     0.0000 
     64 H           0.8023  -23.8969  -11.5146 H         1 QMQ1458     0.0000 
     65 H           0.8173  -23.7631  -13.3055 H         1 QMQ1458     0.0000 
     66 H           6.0520  -24.9358  -32.0009 H         1 QMQ1458     0.0000 
     67 H           6.5932  -26.3519  -31.4644 H         1 QMQ1458     0.0000 
     68 H           5.1613  -25.8027  -30.9805 H         1 QMQ1458     0.0000 
     69 H           6.7197  -23.2636  -28.7345 H         1 QMQ1458     0.0000 
     70 H           6.1330  -22.8810  -30.1821 H         1 QMQ1458     0.0000 
     71 H           5.2459  -23.7478  -29.1585 H         1 QMQ1458     0.0000 
@<TRIPOS>BOND
     1    2    1 1    
     2   66    1 1    
     3   67    1 1    
     4   68    1 1    
     5    3    2 1    
     6    4    2 1    
     7   69    3 1    
     8   70    3 1    
     9   71    3 1    
    10    5    4 ar   
    11    7    4 ar   
    12    6    5 ar   
    13   38    5 1    
    14    9    6 ar   
    15   39    6 1    
    16    8    7 ar   
    17   40    7 1    
    18    9    8 ar   
    19   41    8 1    
    20   10    9 1    
    21   11   10 1    
    22   42   10 1    
    23   43   10 1    
    24   12   11 ar   
    25   14   11 ar   
    26   13   12 ar   
    27   44   12 1    
    28   16   13 ar   
    29   45   13 1    
    30   15   14 ar   
    31   46   14 1    
    32   16   15 ar   
    33   47   15 1    
    34   17   16 1    
    35   18   17 1    
    36   48   17 1    
    37   49   17 1    
    38   19   18 1    
    39   50   18 1    
    40   51   18 1    
    41   20   19 1    
    42   52   19 1    
    43   53   19 1    
    44   21   20 1    
    45   54   20 1    
    46   55   20 1    
    47   22   21 ar   
    48   24   21 ar   
    49   23   22 ar   
    50   56   22 1    
    51   26   23 ar   
    52   57   23 1    
    53   25   24 ar   
    54   58   24 1    
    55   26   25 ar   
    56   59   25 1    
    57   27   26 1    
    58   28   27 1    
    59   60   27 1    
    60   61   27 1    
    61   29   28 1    
    62   32   28 1    
    63   30   29 2    
    64   62   29 1    
    65   31   30 1    
    66   32   31 ar   
    67   36   31 ar   
    68   33   32 ar   
    69   34   33 ar   
    70   35   34 ar   
    71   63   34 1    
    72   36   35 ar   
    73   37   36 1    
    74   64   37 1    
    75   65   37 1    
@<TRIPOS>SUBSTRUCTURE
     1 QMQ1458     1 GROUP   
@<TRIPOS>SET

