#    Name: 3kxh_K66_1_INTS_M
#    Modification time : Mon Mar 24 20:39:53 2014

@<TRIPOS>MOLECULE
3kxh_K66_1_INTS_M
   64     0     9     0     0
SMALL
NO_CHARGES


@<TRIPOS>ATOM
      1 CA         19.9450    7.5690   19.1265 C.3       3 GLC5        0.0000 
      2 CA         21.8140    8.7830   19.0660 C.3       9 GLL5        0.0000 
      3 CA         18.0760    6.3550   19.1870 C.3       6 GLP5        0.0000 
      4 CA         21.9935   10.2130   20.6565 C.3       3 GLC5        0.0000 
      5 CA         21.3840    8.2330   20.2670 C.3       9 GLL5        0.0000 
      6 CA         22.6030   12.1930   21.0460 C.3       6 GLP5        0.0000 
      7 CA         24.0375   10.0345   18.2980 C.3       3 GLC5        0.0000 
      8 CA         23.4480    8.9240   16.7240 C.3       9 GLL5        0.0000 
      9 CA         24.6270   11.1450   19.8720 C.3       6 GLP5        0.0000 
     10 CA         21.7350    9.7785   15.6460 C.3       3 GLC5        0.0000 
     11 CA         20.0220   10.6330   14.5680 C.3       6 GLP5        0.0000 
     12 CA         24.3475   10.1725   16.0685 C.3       3 GLC5        0.0000 
     13 CA         25.2470   11.4210   15.4130 C.3       6 GLP5        0.0000 
     14 CA         21.7940   11.2680   19.7200 C.3       3 GLC5        0.0000 
     15 CA         20.9850   10.3430   18.3940 C.3       9 GLL5        0.0000 
     16 CA         20.5035   10.4880   16.4810 C.3       3 GLC5        0.0000 
     17 CA         22.1535   11.6310   17.1745 C.3       3 GLC5        0.0000 
     18 CA         23.3220   12.9190   15.9550 C.3       6 GLP5        0.0000 
     19 CA         21.4840   10.3105   21.7705 C.3       3 GLC5        0.0000 
     20 CA         19.9710    9.0540   21.2160 C.3       9 GLL5        0.0000 
     21 CA         22.9970   11.5670   22.3250 C.3       6 GLP5        0.0000 
     22 CA         18.2495    9.9440   20.7735 C.3       3 GLC5        0.0000 
     23 CA         16.5280   10.8340   20.3310 C.3       6 GLP5        0.0000 
     24 CA         19.2770    7.3335   20.9915 C.3       3 GLC5        0.0000 
     25 CA         18.5830    5.6130   20.7670 C.3       6 GLP5        0.0000 
     26 CA         19.9800    5.9840   21.5910 C.3       3 GLC5        0.0000 
     27 CA         21.3770    6.3550   22.4150 C.3       9 GLL5        0.0000 
     28 CA         26.1830    4.0860   22.4390 C.3       3 GLC5        0.0000 
     29 CA         26.1130    3.7130   20.2300 C.3       9 GLL5        0.0000 
     30 CA         26.2530    4.4590   24.6480 C.3       6 GLP5        0.0000 
     31 CA         27.5415    3.2045   21.5015 C.3       3 GLC5        0.0000 
     32 CA         28.9700    2.6960   22.7730 C.3       6 GLP5        0.0000 
     33 CA         26.9975    5.2355   20.1620 C.3       3 GLC5        0.0000 
     34 CA         27.8820    6.7580   20.0940 C.3       6 GLP5        0.0000 
     35 CA         26.9490    5.4005   18.9140 C.3       3 GLC5        0.0000 
     36 CA         26.0160    4.0430   17.7340 C.3       9 GLL5        0.0000 
     37 CA         26.5195    6.6725   18.6005 C.3       3 GLC5        0.0000 
     38 CA         25.1570    6.5870   17.1070 C.3       9 GLL5        0.0000 
     39 CA         26.7925    7.0710   16.3005 C.3       3 GLC5        0.0000 
     40 CA         28.4280    7.5550   15.4940 C.3       6 GLP5        0.0000 
     41 N          22.7645    5.0585   14.9330 N.am      1 SEC2        0.0000 
     42 N          23.1970    5.6360   16.1590 N.am      7 SEL2        0.0000 
     43 N          22.3320    4.4810   13.7070 N.am      4 SEP2        0.0000 
     44 NZ         26.3005    6.0450   14.3845 N.4       2 LYC4        0.0000 
     45 NZ         24.6840    6.4830   14.7820 N.4       8 LYL4        0.0000 
     46 NZ         27.9170    5.6070   13.9870 N.4       5 LYP4        0.0000 
     47 N          26.3005    6.0450   14.3845 N.am      1 SEC2        0.0000 
     48 N          24.6840    6.4830   14.7820 N.am      7 SEL2        0.0000 
     49 N          27.9170    5.6070   13.9870 N.am      4 SEP2        0.0000 
     50 N          23.5080    5.4820   14.2445 N.am      1 SEC2        0.0000 
     51 CA         24.3525    7.5332   20.8330 C.3       3 GLC5        0.0000 
     52 CA         23.0160    6.4820   20.0830 C.3       9 GLL5        0.0000 
     53 CA         26.2080    8.2820   21.2350 C.3       6 GLP5        0.0000 
     54 CA         20.1320    6.6365   20.6450 C.3       3 GLC5        0.0000 
     55 CA         21.9780    7.0870   20.7790 C.3       9 GLL5        0.0000 
     56 CA         24.6737    7.9512   19.9285 C.3       3 GLC5        0.0000 
     57 CA         23.4310    7.0490   18.8840 C.3       9 GLL5        0.0000 
     58 CA         22.1347    6.1242   18.1185 C.3       3 GLC5        0.0000 
     59 CA         22.8480    8.1920   18.3600 C.3       9 GLL5        0.0000 
     60 CA         21.1300    4.6280   17.6150 C.3       6 GLP5        0.0000 
     61 CA         23.5519    9.6734   19.3580 C.3       3 GLC5        0.0000 
     62 CA         20.4262    8.2440   17.3160 C.3       3 GLC5        0.0000 
     63 CA         19.4530    6.9250   15.9020 C.3       6 GLP5        0.0000 
     64 CA         21.5352    6.0684   18.9820 C.3       3 GLC5        0.0000 
@<TRIPOS>BOND
@<TRIPOS>SUBSTRUCTURE
     1 SEC2       41 GROUP        1 X    SEC  0     ROOT SEC X 2
     2 LYC4       44 GROUP        1 X    LYC  0     **** LYC X 4
     3 GLC5        1 GROUP        1 X    GLC  0     **** GLC X 6
     4 SEP2       43 GROUP        1 Y    SEP  0     ROOT SEP Y 9
     5 LYP4       46 GROUP        1 Y    LYP  0     **** LYP Y 11
     6 GLP5        3 GROUP        1 Y    GLP  0     **** GLP Y 13
     7 SEL2       42 GROUP        1 Z    SEL  0     ROOT SEL Z 16
     8 LYL4       45 GROUP        1 Z    LYL  0     **** LYL Z 18
     9 GLL5        2 GROUP        1 Z    GLL  0     **** GLL Z 20
@<TRIPOS>SET

