#    Name: 3kxh_K66_1_ligand
#    Modification time : Mon Mar 24 20:39:53 2014

@<TRIPOS>MOLECULE
3kxh_K66_1_ligand
   28    29     1     0     0
SMALL
NO_CHARGES


@<TRIPOS>ATOM
      1 C1         21.9780    7.0870   20.7790 C.ar      1 K661        0.0000 
      2 C2         23.0160    6.4820   20.0830 C.ar      1 K661        0.0000 
      3 C3         23.4310    7.0490   18.8840 C.ar      1 K661        0.0000 
      4 C4         22.8480    8.1920   18.3600 C.ar      1 K661        0.0000 
      5 C5         21.8140    8.7830   19.0660 C.ar      1 K661        0.0000 
      6 C6         21.3840    8.2330   20.2670 C.ar      1 K661        0.0000 
      7 BR13       23.4480    8.9240   16.7240 Br        1 K661        0.0000 
      8 BR15       20.9850   10.3430   18.3940 Br        1 K661        0.0000 
      9 BR17       19.9710    9.0540   21.2160 Br        1 K661        0.0000 
     10 BR19       21.3770    6.3550   22.4150 Br        1 K661        0.0000 
     11 N21        23.7860    5.3890   20.3010 N.2       1 K661        0.0000 
     12 N23        24.4320    6.3420   18.3530 N.pl3     1 K661        0.0000 
     13 C25        24.6090    5.3600   19.2350 C.2       1 K661        0.0000 
     14 N28        25.5590    4.3930   19.0700 N.3       1 K661        0.0000 
     15 C30        26.1130    3.7130   20.2300 C.3       1 K661        0.0000 
     16 C32        26.0160    4.0430   17.7340 C.3       1 K661        0.0000 
     17 C34        25.1570    6.5870   17.1070 C.3       1 K661        0.0000 
     18 C36        24.2850    6.2090   15.9340 C.2       1 K661        0.0000 
     19 O38        23.1970    5.6360   16.1590 O.co2     1 K661        0.0000 
     20 O40        24.6840    6.4830   14.7820 O.co2     1 K661        0.0000 
     21 H          26.0731    5.9927   17.0701 H         1 K661        0.0000 
     22 H          25.4274    7.6420   17.0187 H         1 K661        0.0000 
     23 H          26.7943    3.0290   19.9693 H         1 K661        0.0000 
     24 H          26.5627    4.3512   20.8549 H         1 K661        0.0000 
     25 H          25.4065    3.2379   20.7545 H         1 K661        0.0000 
     26 H          26.4183    4.8273   17.2618 H         1 K661        0.0000 
     27 H          26.7120    3.3253   17.7557 H         1 K661        0.0000 
     28 H          25.2677    3.7083   17.1613 H         1 K661        0.0000 
@<TRIPOS>BOND
     1    2    1 ar   
     2    6    1 ar   
     3   10    1 1    
     4    3    2 ar   
     5   11    2 1    
     6    4    3 ar   
     7   12    3 1    
     8    5    4 ar   
     9    7    4 1    
    10    6    5 ar   
    11    8    5 1    
    12    9    6 1    
    13   13   11 2    
    14   13   12 1    
    15   17   12 1    
    16   14   13 1    
    17   15   14 1    
    18   16   14 1    
    19   23   15 1    
    20   24   15 1    
    21   25   15 1    
    22   26   16 1    
    23   27   16 1    
    24   28   16 1    
    25   18   17 1    
    26   21   17 1    
    27   22   17 1    
    28   19   18 ar   
    29   20   18 ar   
@<TRIPOS>SUBSTRUCTURE
     1 K661        1 GROUP   
@<TRIPOS>SET

