#    Name: 3gwl_FAD_2_INTS_M
#    Modification time : Tue Mar 25 13:10:10 2014

@<TRIPOS>MOLECULE
3gwl_FAD_2_INTS_M
   86     0    12     0     0
SMALL
NO_CHARGES


@<TRIPOS>ATOM
      1 N          36.5725   16.7270  -24.1275 N.am      2 SEC2        0.0000 
      2 N          37.2830   15.4240  -24.4250 N.am     10 SEL2        0.0000 
      3 N          35.8620   18.0300  -23.8300 N.am      6 SEP2        0.0000 
      4 CA         33.1040   13.7850  -24.6860 C.3       4 GLC5        0.0000 
      5 CA         34.0560   15.1770  -26.0880 C.3      12 GLL5        0.0000 
      6 CA         32.1520   12.3930  -23.2840 C.3       8 GLP5        0.0000 
      7 N          37.9480   19.8215  -26.3665 N.am      2 SEC2        0.0000 
      8 N          36.7090   19.7160  -26.9850 N.am     10 SEL2        0.0000 
      9 N          39.1870   19.9270  -25.7480 N.am      6 SEP2        0.0000 
     10 O          36.3445   23.7345  -24.7090 O.2       1 ALC1        0.0000 
     11 O          36.3090   22.5180  -25.7360 O.2       9 ALL1        0.0000 
     12 O          36.3800   24.9510  -23.6820 O.2       5 ALP1        0.0000 
     13 O          37.8150   22.7515  -26.1250 O.2       1 ALC1        0.0000 
     14 O          39.3210   22.9850  -26.5140 O.2       5 ALP1        0.0000 
     15 CA         31.7995   20.8880  -24.9530 C.3       4 GLC5        0.0000 
     16 CA         32.9120   21.5110  -26.3090 C.3      12 GLL5        0.0000 
     17 CA         30.6870   20.2650  -23.5970 C.3       8 GLP5        0.0000 
     18 CA         34.2170   20.7975  -24.7175 C.3       4 GLC5        0.0000 
     19 CA         35.5220   20.0840  -23.1260 C.3       8 GLP5        0.0000 
     20 CA         34.2170   21.8420  -27.9645 C.3       4 GLC5        0.0000 
     21 CA         35.5220   22.1730  -29.6200 C.3       8 GLP5        0.0000 
     22 N          41.9535   16.8170  -15.5485 N.am      2 SEC2        0.0000 
     23 N          41.6550   15.5120  -15.2440 N.am     10 SEL2        0.0000 
     24 N          42.2520   18.1220  -15.8530 N.am      6 SEP2        0.0000 
     25 CA         38.9560   16.6445  -17.9925 C.3       4 GLC5        0.0000 
     26 CA         37.6220   15.6880  -16.6140 C.3      12 GLL5        0.0000 
     27 CA         40.2900   17.6010  -19.3710 C.3       8 GLP5        0.0000 
     28 CA         35.1095   18.6595  -17.6175 C.3       4 GLC5        0.0000 
     29 CA         34.6030   17.8680  -15.9520 C.3      12 GLL5        0.0000 
     30 CA         35.6160   19.4510  -19.2830 C.3       8 GLP5        0.0000 
     31 CA         32.7755   18.2355  -15.6460 C.3       4 GLC5        0.0000 
     32 CA         30.9480   18.6030  -15.3400 C.3       8 GLP5        0.0000 
     33 CA         34.8265   19.6525  -16.0345 C.3       4 GLC5        0.0000 
     34 CA         35.0500   21.4370  -16.1170 C.3       8 GLP5        0.0000 
     35 CA         31.9925   14.7345  -17.7520 C.3       4 GLC5        0.0000 
     36 CA         33.5430   15.5280  -18.0020 C.3      12 GLL5        0.0000 
     37 CA         30.4420   13.9410  -17.5020 C.3       8 GLP5        0.0000 
     38 CA         34.4135   16.4620  -19.2110 C.3       4 GLC5        0.0000 
     39 CA         35.2840   17.3960  -20.4200 C.3       8 GLP5        0.0000 
     40 CA         31.9640   16.5845  -17.0870 C.3       4 GLC5        0.0000 
     41 CA         30.3850   17.6410  -16.1720 C.3       8 GLP5        0.0000 
     42 CA         34.8565   13.1100  -18.9425 C.3       4 GLC5        0.0000 
     43 CA         35.7710   14.7090  -17.8690 C.3      12 GLL5        0.0000 
     44 CA         33.9420   11.5110  -20.0160 C.3       8 GLP5        0.0000 
     45 CA         37.8860   13.7130  -15.8920 C.3       4 GLC5        0.0000 
     46 CA         37.1460   14.6410  -17.5460 C.3      12 GLL5        0.0000 
     47 CA         38.6260   12.7850  -14.2380 C.3       8 GLP5        0.0000 
     48 CA         36.7830   12.2825  -17.6685 C.3       4 GLC5        0.0000 
     49 CA         38.0990   13.0510  -19.1680 C.3      12 GLL5        0.0000 
     50 CA         35.4670   11.5140  -16.1690 C.3       8 GLP5        0.0000 
     51 N          36.8970   15.5920  -20.7220 N.am      2 SEC2        0.0000 
     52 N          38.2770   15.0370  -20.5070 N.am     10 SEL2        0.0000 
     53 N          35.5170   16.1470  -20.9370 N.am      6 SEP2        0.0000 
     54 CA         35.8300   12.2060  -20.8520 C.3       4 GLC5        0.0000 
     55 CA         37.7180   12.9010  -21.6880 C.3      12 GLL5        0.0000 
     56 CA         36.0515   14.3095  -21.6400 C.3       4 GLC5        0.0000 
     57 CA         34.3850   15.7180  -21.5920 C.3       8 GLP5        0.0000 
     58 CA         37.5145    9.0285  -22.6355 C.3       4 GLC5        0.0000 
     59 CA         37.8320   10.9330  -23.4080 C.3      12 GLL5        0.0000 
     60 CA         37.1970    7.1240  -21.8630 C.3       8 GLP5        0.0000 
     61 CA         35.7670   10.7600  -23.1190 C.3       4 GLC5        0.0000 
     62 CA         33.7020   10.5870  -22.8300 C.3       8 GLP5        0.0000 
     63 NZ         40.2490   12.0825  -25.8975 N.4       3 LYC4        0.0000 
     64 NZ         38.8210   12.1360  -26.7290 N.4      11 LYL4        0.0000 
     65 NZ         41.6770   12.0290  -25.0660 N.4       7 LYP4        0.0000 
     66 CA         33.5708   18.5542  -30.2722 C.3       4 GLC5        0.0000 
     67 CA         34.2250   16.7320  -29.4600 C.3      12 GLL5        0.0000 
     68 CA         33.0790   19.9300  -31.6890 C.3       8 GLP5        0.0000 
     69 CA         35.2412   20.2718  -24.9258 C.3       4 GLC5        0.0000 
     70 CA         35.5730   20.4700  -26.6740 C.3      12 GLL5        0.0000 
     71 CA         35.2412   21.3163  -28.1728 C.3       4 GLC5        0.0000 
     72 CA         35.2930   21.7440  -26.1320 C.3      12 GLL5        0.0000 
     73 CA         37.6250   15.1850  -14.7855 C.3       4 GLC5        0.0000 
     74 CA         36.7840   16.7020  -16.1000 C.3      12 GLL5        0.0000 
     75 CA         38.0470   14.1750  -13.2140 C.3       8 GLP5        0.0000 
     76 CA         34.8420   16.6256  -14.5069 C.3       4 GLC5        0.0000 
     77 CA         34.3320   15.9680  -12.8880 C.3       8 GLP5        0.0000 
     78 CA         33.4220   15.1477  -15.9292 C.3       4 GLC5        0.0000 
     79 CA         34.9090   15.6950  -17.3750 C.3      12 GLL5        0.0000 
     80 CA         32.6180   14.6840  -14.1700 C.3       8 GLP5        0.0000 
     81 CA         35.8550   13.2178  -16.8765 C.3       4 GLC5        0.0000 
     82 CA         40.1650   13.8775  -20.1893 C.3       4 GLC5        0.0000 
     83 CA         42.0890   14.4340  -20.5250 C.3       8 GLP5        0.0000 
     84 CA         39.4535   12.2565  -23.9898 C.3       4 GLC5        0.0000 
     85 CA         38.1940   11.5110  -22.1030 C.3      12 GLL5        0.0000 
     86 CA         40.8940   13.2910  -25.2240 C.3       8 GLP5        0.0000 
@<TRIPOS>BOND
@<TRIPOS>SUBSTRUCTURE
     1 ALC1       10 GROUP        1 X    ALC  0     ROOT ALC X 1
     2 SEC2        1 GROUP        1 X    SEC  0     **** SEC X 2
     3 LYC4       63 GROUP        1 X    LYC  0     **** LYC X 4
     4 GLC5        4 GROUP        1 X    GLC  0     **** GLC X 6
     5 ALP1       12 GROUP        1 Y    ALP  0     ROOT ALP Y 8
     6 SEP2        3 GROUP        1 Y    SEP  0     **** SEP Y 9
     7 LYP4       65 GROUP        1 Y    LYP  0     **** LYP Y 11
     8 GLP5        6 GROUP        1 Y    GLP  0     **** GLP Y 13
     9 ALL1       11 GROUP        1 Z    ALL  0     ROOT ALL Z 15
    10 SEL2        2 GROUP        1 Z    SEL  0     **** SEL Z 16
    11 LYL4       64 GROUP        1 Z    LYL  0     **** LYL Z 18
    12 GLL5        5 GROUP        1 Z    GLL  0     **** GLL Z 20
@<TRIPOS>SET

