#    Name: 3gwl_FAD_2_ligand
#    Modification time : Tue Mar 25 13:10:10 2014

@<TRIPOS>MOLECULE
3gwl_FAD_2_ligand
   84    89     1     0     0
SMALL
NO_CHARGES


@<TRIPOS>ATOM
      1 PA         36.1350   14.5520  -24.7950 P.3       1 FAD335      0.0000 
      2 O1A        37.2830   15.4240  -24.4250 O.co2     1 FAD335      0.0000 
      3 O2A        35.4780   13.4080  -24.0880 O.co2     1 FAD335      0.0000 
      4 O5B        35.3740   14.6410  -26.1480 O.3       1 FAD335      0.0000 
      5 C5B        34.0560   15.1770  -26.0880 C.3       1 FAD335      0.0000 
      6 C4B        33.7240   15.3630  -27.5500 C.3       1 FAD335      0.0000 
      7 O4B        33.3110   16.7340  -27.2950 O.3       1 FAD335      0.0000 
      8 C3B        34.6570   15.5170  -28.7780 C.3       1 FAD335      0.0000 
      9 O3B        34.5210   14.2530  -29.4370 O.3       1 FAD335      0.0000 
     10 C2B        34.2250   16.7320  -29.4600 C.3       1 FAD335      0.0000 
     11 O2B        33.1070   16.5140  -30.2650 O.3       1 FAD335      0.0000 
     12 C1B        33.9000   17.6250  -28.2510 C.3       1 FAD335      0.0000 
     13 N9A        34.7670   18.5860  -27.6570 N.pl3     1 FAD335      0.0000 
     14 C8A        36.1790   18.6650  -27.5380 C.2       1 FAD335      0.0000 
     15 N7A        36.7090   19.7160  -26.9850 N.2       1 FAD335      0.0000 
     16 C5A        35.5730   20.4700  -26.6740 C.ar      1 FAD335      0.0000 
     17 C6A        35.2930   21.7440  -26.1320 C.ar      1 FAD335      0.0000 
     18 N6A        36.3090   22.5180  -25.7360 N.pl3     1 FAD335      0.0000 
     19 N1A        34.0060   22.2250  -25.9340 N.ar      1 FAD335      0.0000 
     20 C2A        32.9120   21.5110  -26.3090 C.ar      1 FAD335      0.0000 
     21 N3A        33.1430   20.2470  -26.8710 N.ar      1 FAD335      0.0000 
     22 C4A        34.4880   19.8120  -27.0480 C.ar      1 FAD335      0.0000 
     23 N1         40.4780   12.6700  -17.7810 N.2       1 FAD335      0.0000 
     24 C2         41.7410   12.5240  -17.2540 C.2       1 FAD335      0.0000 
     25 O2         42.2910   11.4850  -17.6530 O.2       1 FAD335      0.0000 
     26 N3         42.0750   13.5480  -16.3790 N.am      1 FAD335      0.0000 
     27 C4         41.2140   14.6150  -16.0310 C.2       1 FAD335      0.0000 
     28 O4         41.6550   15.5120  -15.2440 O.2       1 FAD335      0.0000 
     29 C4X        39.9470   14.6780  -16.5750 C.2       1 FAD335      0.0000 
     30 N5         38.9710   15.6530  -16.1980 N.2       1 FAD335      0.0000 
     31 C5X        37.6220   15.6880  -16.6140 C.ar      1 FAD335      0.0000 
     32 C6         36.7840   16.7020  -16.1000 C.ar      1 FAD335      0.0000 
     33 C7         35.4180   16.6950  -16.4990 C.ar      1 FAD335      0.0000 
     34 C7M        34.6030   17.8680  -15.9520 C.3       1 FAD335      0.0000 
     35 C8         34.9090   15.6950  -17.3750 C.ar      1 FAD335      0.0000 
     36 C8M        33.5430   15.5280  -18.0020 C.3       1 FAD335      0.0000 
     37 C9         35.7710   14.7090  -17.8690 C.ar      1 FAD335      0.0000 
     38 C9A        37.1460   14.6410  -17.5460 C.ar      1 FAD335      0.0000 
     39 N10        38.2760   13.7680  -17.9510 N.pl3     1 FAD335      0.0000 
     40 C10        39.5640   13.6560  -17.4970 C.2       1 FAD335      0.0000 
     41 C1'        38.0990   13.0510  -19.1680 C.3       1 FAD335      0.0000 
     42 C2'        38.3830   13.5910  -20.5390 C.3       1 FAD335      0.0000 
     43 O2'        38.2770   15.0370  -20.5070 O.3       1 FAD335      0.0000 
     44 C3'        37.7180   12.9010  -21.6880 C.3       1 FAD335      0.0000 
     45 O3'        36.3100   13.0940  -21.6170 O.3       1 FAD335      0.0000 
     46 C4'        38.1940   11.5110  -22.1030 C.3       1 FAD335      0.0000 
     47 O4'        39.5880   11.1710  -21.8360 O.3       1 FAD335      0.0000 
     48 C5'        37.8320   10.9330  -23.4080 C.3       1 FAD335      0.0000 
     49 O5'        38.4180   11.7630  -24.4160 O.3       1 FAD335      0.0000 
     50 P          37.7250   12.1870  -25.7590 P.3       1 FAD335      0.0000 
     51 O1P        38.8210   12.1360  -26.7290 O.co2     1 FAD335      0.0000 
     52 O2P        36.5470   11.3720  -26.1470 O.co2     1 FAD335      0.0000 
     53 O3P        37.0640   13.6600  -25.7190 O.3       1 FAD335      0.0000 
     54 H          34.0269   16.1297  -25.6055 H         1 FAD335      0.0000 
     55 H          33.3575   14.4900  -25.6621 H         1 FAD335      0.0000 
     56 H          32.8231   14.8486  -27.7886 H         1 FAD335      0.0000 
     57 H          35.6444   15.6340  -28.3512 H         1 FAD335      0.0000 
     58 H          35.0567   17.1727  -29.9530 H         1 FAD335      0.0000 
     59 H          32.9430   18.2193  -28.6399 H         1 FAD335      0.0000 
     60 H          36.7304   17.8703  -27.9024 H         1 FAD335      0.0000 
     61 H          36.1183   23.1400  -24.9765 H         1 FAD335      0.0000 
     62 H          37.1683   22.4054  -26.2349 H         1 FAD335      0.0000 
     63 H          31.9694   21.8557  -26.1971 H         1 FAD335      0.0000 
     64 H          43.0346   13.5398  -15.9374 H         1 FAD335      0.0000 
     65 H          37.1342   17.4041  -15.4759 H         1 FAD335      0.0000 
     66 H          35.3822   13.9795  -18.5131 H         1 FAD335      0.0000 
     67 H          37.0081   12.6320  -19.2054 H         1 FAD335      0.0000 
     68 H          38.6729   12.0349  -19.0958 H         1 FAD335      0.0000 
     69 H          39.5275   13.3846  -20.6782 H         1 FAD335      0.0000 
     70 H          38.0435   13.5857  -22.6180 H         1 FAD335      0.0000 
     71 H          37.6146   10.7823  -21.3319 H         1 FAD335      0.0000 
     72 H          36.7454   10.9063  -23.5040 H         1 FAD335      0.0000 
     73 H          38.2117    9.9120  -23.4703 H         1 FAD335      0.0000 
     74 H          34.5919   17.8783  -14.9521 H         1 FAD335      0.0000 
     75 H          34.9726   18.7481  -16.2500 H         1 FAD335      0.0000 
     76 H          33.6508   17.8322  -16.2554 H         1 FAD335      0.0000 
     77 H          33.3022   16.3072  -18.5807 H         1 FAD335      0.0000 
     78 H          33.4953   14.7106  -18.5761 H         1 FAD335      0.0000 
     79 H          32.8251   15.4432  -17.3111 H         1 FAD335      0.0000 
     80 H          35.4419   14.0260  -29.7537 H         1 FAD335      0.0000 
     81 H          33.1737   15.5567  -30.5467 H         1 FAD335      0.0000 
     82 H          38.5808   15.3387  -21.4107 H         1 FAD335      0.0000 
     83 H          36.0184   13.2223  -22.5649 H         1 FAD335      0.0000 
     84 H          40.1108   11.6503  -22.5410 H         1 FAD335      0.0000 
@<TRIPOS>BOND
     1    2    1 ar   
     2    3    1 ar   
     3    4    1 1    
     4   53    1 1    
     5    5    4 1    
     6    6    5 1    
     7   54    5 1    
     8   55    5 1    
     9    7    6 1    
    10    8    6 1    
    11   56    6 1    
    12   12    7 1    
    13    9    8 1    
    14   10    8 1    
    15   57    8 1    
    16   80    9 1    
    17   11   10 1    
    18   12   10 1    
    19   58   10 1    
    20   81   11 1    
    21   13   12 1    
    22   59   12 1    
    23   14   13 1    
    24   22   13 1    
    25   15   14 2    
    26   60   14 1    
    27   16   15 1    
    28   17   16 ar   
    29   22   16 ar   
    30   18   17 1    
    31   19   17 ar   
    32   61   18 1    
    33   62   18 1    
    34   20   19 ar   
    35   21   20 ar   
    36   63   20 1    
    37   22   21 ar   
    38   24   23 1    
    39   40   23 2    
    40   25   24 2    
    41   26   24 am   
    42   27   26 am   
    43   64   26 1    
    44   28   27 2    
    45   29   27 1    
    46   30   29 2    
    47   40   29 1    
    48   31   30 1    
    49   32   31 ar   
    50   38   31 ar   
    51   33   32 ar   
    52   65   32 1    
    53   34   33 1    
    54   35   33 ar   
    55   74   34 1    
    56   75   34 1    
    57   76   34 1    
    58   36   35 1    
    59   37   35 ar   
    60   77   36 1    
    61   78   36 1    
    62   79   36 1    
    63   38   37 ar   
    64   66   37 1    
    65   39   38 1    
    66   40   39 1    
    67   41   39 1    
    68   42   41 1    
    69   67   41 1    
    70   68   41 1    
    71   43   42 1    
    72   44   42 1    
    73   69   42 1    
    74   82   43 1    
    75   45   44 1    
    76   46   44 1    
    77   70   44 1    
    78   83   45 1    
    79   47   46 1    
    80   48   46 1    
    81   71   46 1    
    82   84   47 1    
    83   49   48 1    
    84   72   48 1    
    85   73   48 1    
    86   50   49 1    
    87   51   50 ar   
    88   52   50 ar   
    89   53   50 1    
@<TRIPOS>SUBSTRUCTURE
     1 FAD335      1 GROUP   
@<TRIPOS>SET

