#    Name: 2q15_3MR_1_INTS_M
#    Modification time : Mon Mar 24 20:24:09 2014

@<TRIPOS>MOLECULE
2q15_3MR_1_INTS_M
   78     0     9     0     0
SMALL
NO_CHARGES


@<TRIPOS>ATOM
      1 CA         68.2590   45.7660   10.6625 C.3       3 GLC5        0.0000 
      2 CA         68.0710   46.0970    8.7240 C.3       9 GLL5        0.0000 
      3 CA         68.4470   45.4350   12.6010 C.3       6 GLP5        0.0000 
      4 CA         66.3335   45.7280   10.6575 C.3       3 GLC5        0.0000 
      5 CA         65.5940   46.0060    8.8160 C.3       9 GLL5        0.0000 
      6 CA         67.0730   45.4500   12.4990 C.3       6 GLP5        0.0000 
      7 CA         61.7720   47.7375    8.8390 C.3       3 GLC5        0.0000 
      8 CA         63.0950   46.3500    9.0180 C.3       9 GLL5        0.0000 
      9 CA         60.4490   49.1250    8.6600 C.3       6 GLP5        0.0000 
     10 CA         66.3690   47.4720   11.3690 C.3       3 GLC5        0.0000 
     11 CA         66.4230   48.5630    9.5710 C.3       9 GLL5        0.0000 
     12 CA         66.3150   46.3810   13.1670 C.3       6 GLP5        0.0000 
     13 CA         74.1720   51.4415   13.5435 C.3       3 GLC5        0.0000 
     14 CA         72.3970   50.6470   14.4630 C.3       9 GLL5        0.0000 
     15 CA         75.9470   52.2360   12.6240 C.3       6 GLP5        0.0000 
     16 CA         69.5040   52.4835   14.4770 C.3       3 GLC5        0.0000 
     17 CA         71.1810   51.1870   14.1060 C.3       9 GLL5        0.0000 
     18 CA         67.8270   53.7800   14.8480 C.3       6 GLP5        0.0000 
     19 O          67.2465   50.4935    5.8685 O.2       1 ALC1        0.0000 
     20 O          67.2080   50.3360    7.4740 O.2       7 ALL1        0.0000 
     21 O          67.2850   50.6510    4.2630 O.2       4 ALP1        0.0000 
     22 O          67.1970   51.2485    6.6220 O.2       1 ALC1        0.0000 
     23 O          67.1860   52.1610    5.7700 O.2       4 ALP1        0.0000 
     24 OD1        67.2465   50.4935    5.8685 O.co2     2 ASC3        0.0000 
     25 OD1        66.8550   49.0520    7.1830 O.co2     8 ASL3        0.0000 
     26 OD1        67.2850   50.6510    4.2630 O.co2     5 ASP3        0.0000 
     27 OD1        67.1860   52.1610    5.7700 O.co2     5 ASP3        0.0000 
     28 OD1        65.9480   47.5580    5.3640 O.co2     2 ASC3        0.0000 
     29 OD1        65.2240   46.4580    4.8540 O.co2     5 ASP3        0.0000 
     30 O          66.9785   49.6545    5.0685 O.2       1 ALC1        0.0000 
     31 O          66.6720   48.6580    5.8740 O.2       7 ALL1        0.0000 
     32 O          65.9480   47.5580    5.3640 O.2       1 ALC1        0.0000 
     33 O          65.2240   46.4580    4.8540 O.2       4 ALP1        0.0000 
     34 CA         72.8950   51.9545    8.8455 C.3       3 GLC5        0.0000 
     35 CA         72.7130   50.6730    7.3220 C.3       9 GLL5        0.0000 
     36 CA         73.0770   53.2360   10.3690 C.3       6 GLP5        0.0000 
     37 CA         74.4615   51.4235    6.9835 C.3       3 GLC5        0.0000 
     38 CA         76.2100   52.1740    6.6450 C.3       6 GLP5        0.0000 
     39 CA         71.0985   51.1225    4.4920 C.3       3 GLC5        0.0000 
     40 CA         70.4620   50.4540    6.3600 C.3       9 GLL5        0.0000 
     41 CA         71.7350   51.7910    2.6240 C.3       6 GLP5        0.0000 
     42 CA         69.2540   51.6465    4.9555 C.3       3 GLC5        0.0000 
     43 CA         68.0460   52.8390    3.5510 C.3       6 GLP5        0.0000 
     44 CA         61.8455   45.9595    7.1473 C.3       3 GLC5        0.0000 
     45 CA         60.7210   46.2930    5.4860 C.3       6 GLP5        0.0000 
     46 CA         62.3175   43.2942    9.9358 C.3       3 GLC5        0.0000 
     47 CA         62.8450   44.9020    8.5990 C.3       9 GLL5        0.0000 
     48 CA         61.1830   42.0920   11.0560 C.3       6 GLP5        0.0000 
     49 CA         62.9385   43.0312    7.4422 C.3       3 GLC5        0.0000 
     50 CA         64.0590   44.0910    9.0320 C.3       9 GLL5        0.0000 
     51 CA         62.4250   41.5660    6.0690 C.3       6 GLP5        0.0000 
     52 CA         68.7240   49.3870   13.1037 C.3       3 GLC5        0.0000 
     53 CA         67.9260   49.8730   11.1350 C.3       9 GLL5        0.0000 
     54 CA         69.0800   48.3740   14.9470 C.3       6 GLP5        0.0000 
     55 CA         69.9408   49.2655   13.7967 C.3       3 GLC5        0.0000 
     56 CA         70.5180   50.6750   12.9980 C.3       9 GLL5        0.0000 
     57 CA         70.8535   48.8697   14.0907 C.3       3 GLC5        0.0000 
     58 CA         72.2900   49.1130   12.6840 C.3       9 GLL5        0.0000 
     59 CA         74.5015   50.1142   12.6977 C.3       3 GLC5        0.0000 
     60 CA         76.3760   50.8630   12.1610 C.3       6 GLP5        0.0000 
     61 CA         73.3533   49.1098   15.9015 C.3       3 GLC5        0.0000 
     62 CA         72.9640   49.6180   13.7850 C.3       9 GLL5        0.0000 
     63 CA         74.0260   48.0870   17.6790 C.3       6 GLP5        0.0000 
     64 CA         70.4345   49.6455   14.6157 C.3       3 GLC5        0.0000 
     65 CA         72.4474   51.2124   15.8900 C.3       3 GLC5        0.0000 
     66 CA         72.9640   51.7650   17.6650 C.3       6 GLP5        0.0000 
     67 CA         66.7092   52.2343    8.2510 C.3       3 GLC5        0.0000 
     68 CA         68.5620   51.6150    9.0620 C.3       9 GLL5        0.0000 
     69 CA         65.2840   53.3820    7.5880 C.3       6 GLP5        0.0000 
     70 CA         69.2001   52.3813    7.9826 C.3       3 GLC5        0.0000 
     71 CA         67.7070   50.5580    8.7660 C.3       9 GLL5        0.0000 
     72 CA         70.1360   53.6310    6.7320 C.3       6 GLP5        0.0000 
     73 CA         73.1314   50.8601    5.0970 C.3       3 GLC5        0.0000 
     74 CA         71.8790   50.9280    6.0660 C.3       9 GLL5        0.0000 
     75 CA         73.9210   51.2940    3.5040 C.3       6 GLP5        0.0000 
     76 CA         70.7575   52.1291    6.6295 C.3       3 GLC5        0.0000 
     77 CA         69.7405   48.9435    4.6387 C.3       3 GLC5        0.0000 
     78 CA         68.9530   48.1800    2.8360 C.3       6 GLP5        0.0000 
@<TRIPOS>BOND
@<TRIPOS>SUBSTRUCTURE
     1 ALC1       19 GROUP        1 X    ALC  0     ROOT ALC X 1
     2 ASC3       24 GROUP        1 X    ASC  0     **** ASC X 3
     3 GLC5        1 GROUP        1 X    GLC  0     **** GLC X 6
     4 ALP1       21 GROUP        1 Y    ALP  0     ROOT ALP Y 8
     5 ASP3       26 GROUP        1 Y    ASP  0     **** ASP Y 10
     6 GLP5        3 GROUP        1 Y    GLP  0     **** GLP Y 13
     7 ALL1       20 GROUP        1 Z    ALL  0     ROOT ALL Z 15
     8 ASL3       25 GROUP        1 Z    ASL  0     **** ASL Z 17
     9 GLL5        2 GROUP        1 Z    GLL  0     **** GLL Z 20
@<TRIPOS>SET

