#    Name: 2q15_3MR_1_ligand
#    Modification time : Mon Mar 24 20:24:09 2014

@<TRIPOS>MOLECULE
2q15_3MR_1_ligand
   80    84     1     0     0
SMALL
NO_CHARGES


@<TRIPOS>ATOM
      1 C1         72.9440   46.5280    7.9080 C.3       1 3MR386      0.0000 
      2 N2         71.6390   47.1820    7.9130 N.am      1 3MR386      0.0000 
      3 C3         70.5450   46.4070    8.2060 C.2       1 3MR386      0.0000 
      4 O4         70.6760   45.2200    8.4690 O.2       1 3MR386      0.0000 
      5 C5         69.1630   47.0130    8.2000 C.3       1 3MR386      0.0000 
      6 C6         68.0710   46.0970    8.7240 C.3       1 3MR386      0.0000 
      7 C7         66.7820   46.6280    8.0820 C.3       1 3MR386      0.0000 
      8 C9         65.5940   46.0060    8.8160 C.3       1 3MR386      0.0000 
      9 C10        64.3970   46.8590    8.4240 C.3       1 3MR386      0.0000 
     10 C11        63.0950   46.3500    9.0180 C.3       1 3MR386      0.0000 
     11 C12        62.8450   44.9020    8.5990 C.3       1 3MR386      0.0000 
     12 C13        64.0590   44.0910    9.0320 C.3       1 3MR386      0.0000 
     13 C14        65.3300   44.5750    8.3270 C.3       1 3MR386      0.0000 
     14 N15        66.6720   48.0860    8.2110 N.pl3     1 3MR386      0.0000 
     15 C16        66.4230   48.5630    9.5710 C.3       1 3MR386      0.0000 
     16 C17        67.3960   49.6950    9.8370 C.ar      1 3MR386      0.0000 
     17 C18        67.9260   49.8730   11.1350 C.ar      1 3MR386      0.0000 
     18 C19        68.8100   50.9270   11.3860 C.ar      1 3MR386      0.0000 
     19 O20        69.3110   51.2060   12.6370 O.3       1 3MR386      0.0000 
     20 C21        70.5180   50.6750   12.9980 C.ar      1 3MR386      0.0000 
     21 C22        71.0850   49.6390   12.2950 C.ar      1 3MR386      0.0000 
     22 C23        72.2900   49.1130   12.6840 C.ar      1 3MR386      0.0000 
     23 C24        72.9640   49.6180   13.7850 C.ar      1 3MR386      0.0000 
     24 C25        72.3970   50.6470   14.4630 C.ar      1 3MR386      0.0000 
     25 C26        71.1810   51.1870   14.1060 C.ar      1 3MR386      0.0000 
     26 C27        69.0810   51.7950   10.3390 C.ar      1 3MR386      0.0000 
     27 C28        68.5620   51.6150    9.0620 C.ar      1 3MR386      0.0000 
     28 C29        67.7070   50.5580    8.7660 C.ar      1 3MR386      0.0000 
     29 N30        67.2080   50.3360    7.4740 N.pl3     1 3MR386      0.0000 
     30 C31        66.8550   49.0520    7.1830 C.cat     1 3MR386      0.0000 
     31 N32        66.6720   48.6580    5.8740 N.pl3     1 3MR386      0.0000 
     32 C33        71.5370   48.6230    7.6680 C.3       1 3MR386      0.0000 
     33 C34        72.8960   49.1760    7.3060 C.3       1 3MR386      0.0000 
     34 C35        72.7130   50.6730    7.3220 C.3       1 3MR386      0.0000 
     35 C36        71.8790   50.9280    6.0660 C.3       1 3MR386      0.0000 
     36 C37        70.4620   50.4540    6.3600 C.3       1 3MR386      0.0000 
     37 C38        70.5940   48.9600    6.5230 C.3       1 3MR386      0.0000 
     38 H          68.9055   47.3198    7.1671 H         1 3MR386      0.0000 
     39 H          69.1707   47.9408    8.8054 H         1 3MR386      0.0000 
     40 H          68.0001   46.1804    9.7817 H         1 3MR386      0.0000 
     41 H          68.2435   45.0993    8.3990 H         1 3MR386      0.0000 
     42 H          66.7447   46.3237    7.0632 H         1 3MR386      0.0000 
     43 H          65.7353   46.0374    9.8432 H         1 3MR386      0.0000 
     44 H          64.3115   46.8761    7.3290 H         1 3MR386      0.0000 
     45 H          64.5668   47.8914    8.7587 H         1 3MR386      0.0000 
     46 H          62.2703   46.9696    8.6707 H         1 3MR386      0.0000 
     47 H          63.1453   46.4038   10.1039 H         1 3MR386      0.0000 
     48 H          62.7374   44.8511    7.5312 H         1 3MR386      0.0000 
     49 H          61.9665   44.5318    9.0945 H         1 3MR386      0.0000 
     50 H          63.8970   43.0397    8.7914 H         1 3MR386      0.0000 
     51 H          64.1922   44.1857   10.1103 H         1 3MR386      0.0000 
     52 H          66.1537   43.9466    8.5991 H         1 3MR386      0.0000 
     53 H          65.1729   44.5826    7.2674 H         1 3MR386      0.0000 
     54 H          66.5949   47.7768   10.2958 H         1 3MR386      0.0000 
     55 H          65.4126   48.9398    9.6714 H         1 3MR386      0.0000 
     56 H          67.6600   49.2300   11.8831 H         1 3MR386      0.0000 
     57 H          70.5970   49.2535   11.4649 H         1 3MR386      0.0000 
     58 H          72.7086   48.3262   12.1514 H         1 3MR386      0.0000 
     59 H          73.8604   49.2175   14.0662 H         1 3MR386      0.0000 
     60 H          72.8982   51.0546   15.2949 H         1 3MR386      0.0000 
     61 H          70.7685   51.9528   14.6448 H         1 3MR386      0.0000 
     62 H          69.7018   52.6202   10.5161 H         1 3MR386      0.0000 
     63 H          68.8183   52.2853    8.3105 H         1 3MR386      0.0000 
     64 H          67.1235   51.0900    6.8177 H         1 3MR386      0.0000 
     65 H          66.8338   49.3570    5.1774 H         1 3MR386      0.0000 
     66 H          66.3934   47.7076    5.7354 H         1 3MR386      0.0000 
     67 H          71.1948   49.1398    8.5529 H         1 3MR386      0.0000 
     68 H          73.1707   48.8521    6.3267 H         1 3MR386      0.0000 
     69 H          73.6131   48.8879    8.0422 H         1 3MR386      0.0000 
     70 H          73.6488   51.1600    7.2304 H         1 3MR386      0.0000 
     71 H          72.1636   50.9683    8.1777 H         1 3MR386      0.0000 
     72 H          72.2863   50.3664    5.2456 H         1 3MR386      0.0000 
     73 H          71.8716   51.9802    5.8486 H         1 3MR386      0.0000 
     74 H          69.8307   50.6791    5.5322 H         1 3MR386      0.0000 
     75 H          70.1189   50.8939    7.2673 H         1 3MR386      0.0000 
     76 H          69.6138   48.5257    6.7275 H         1 3MR386      0.0000 
     77 H          70.9813   48.5236    5.6006 H         1 3MR386      0.0000 
     78 H          73.6790   47.1674    7.6825 H         1 3MR386      0.0000 
     79 H          73.1639   46.1311    8.7991 H         1 3MR386      0.0000 
     80 H          72.9851   45.7862    7.2386 H         1 3MR386      0.0000 
@<TRIPOS>BOND
     1    2    1 1    
     2   78    1 1    
     3   79    1 1    
     4   80    1 1    
     5    3    2 am   
     6   32    2 1    
     7    4    3 2    
     8    5    3 1    
     9    6    5 1    
    10   38    5 1    
    11   39    5 1    
    12    7    6 1    
    13   40    6 1    
    14   41    6 1    
    15    8    7 1    
    16   14    7 1    
    17   42    7 1    
    18    9    8 1    
    19   13    8 1    
    20   43    8 1    
    21   10    9 1    
    22   44    9 1    
    23   45    9 1    
    24   11   10 1    
    25   46   10 1    
    26   47   10 1    
    27   12   11 1    
    28   48   11 1    
    29   49   11 1    
    30   13   12 1    
    31   50   12 1    
    32   51   12 1    
    33   52   13 1    
    34   53   13 1    
    35   15   14 1    
    36   30   14 ar   
    37   16   15 1    
    38   54   15 1    
    39   55   15 1    
    40   17   16 ar   
    41   28   16 ar   
    42   18   17 ar   
    43   56   17 1    
    44   19   18 1    
    45   26   18 ar   
    46   20   19 1    
    47   21   20 ar   
    48   25   20 ar   
    49   22   21 ar   
    50   57   21 1    
    51   23   22 ar   
    52   58   22 1    
    53   24   23 ar   
    54   59   23 1    
    55   25   24 ar   
    56   60   24 1    
    57   61   25 1    
    58   27   26 ar   
    59   62   26 1    
    60   28   27 ar   
    61   63   27 1    
    62   29   28 1    
    63   30   29 ar   
    64   64   29 1    
    65   31   30 ar   
    66   65   31 1    
    67   66   31 1    
    68   33   32 1    
    69   37   32 1    
    70   67   32 1    
    71   34   33 1    
    72   68   33 1    
    73   69   33 1    
    74   35   34 1    
    75   70   34 1    
    76   71   34 1    
    77   36   35 1    
    78   72   35 1    
    79   73   35 1    
    80   37   36 1    
    81   74   36 1    
    82   75   36 1    
    83   76   37 1    
    84   77   37 1    
@<TRIPOS>SUBSTRUCTURE
     1 3MR386      1 GROUP   
@<TRIPOS>SET

