#    Name: 4fam_0SZ_2_INTS_M
#    Modification time : Mon Mar 24 19:12:30 2014

@<TRIPOS>MOLECULE
4fam_0SZ_2_INTS_M
   34     0     6     0     0
SMALL
NO_CHARGES


@<TRIPOS>ATOM
      1 N         -30.9355    6.5670   33.7235 N.am      1 SEC2        0.0000 
      2 N         -31.7330    6.6050   34.7640 N.am      5 SEL2        0.0000 
      3 N         -30.1380    6.5290   32.6830 N.am      3 SEP2        0.0000 
      4 N         -32.8350    6.3845   33.9730 N.am      1 SEC2        0.0000 
      5 N         -33.9370    6.1640   33.1820 N.am      3 SEP2        0.0000 
      6 CA        -36.7745    4.9735   45.1270 C.3       2 GLC5        0.0000 
      7 CA        -37.3480    4.6270   43.2200 C.3       6 GLL5        0.0000 
      8 CA        -36.2010    5.3200   47.0340 C.3       4 GLP5        0.0000 
      9 CA        -36.3635    8.0995   41.3410 C.3       2 GLC5        0.0000 
     10 CA        -35.9860    6.5220   40.2270 C.3       6 GLL5        0.0000 
     11 CA        -36.7410    9.6770   42.4550 C.3       4 GLP5        0.0000 
     12 CA        -34.3490    6.4185   41.1465 C.3       2 GLC5        0.0000 
     13 CA        -32.7120    6.3150   42.0660 C.3       4 GLP5        0.0000 
     14 CA        -37.8465    7.3175   40.3765 C.3       2 GLC5        0.0000 
     15 CA        -39.7070    8.1130   40.5260 C.3       4 GLP5        0.0000 
     16 CA        -33.5157    8.8180   35.6737 C.3       2 GLC5        0.0000 
     17 CA        -33.3550    7.3660   36.7620 C.3       6 GLL5        0.0000 
     18 CA        -34.3360   10.0700   34.6010 C.3       4 GLP5        0.0000 
     19 CA        -33.1795    9.5547   36.3630 C.3       2 GLC5        0.0000 
     20 CA        -31.5810    8.7480   37.6570 C.3       6 GLL5        0.0000 
     21 CA        -34.1753    9.2477   36.3615 C.3       2 GLC5        0.0000 
     22 CA        -34.2310    7.9460   37.6750 C.3       6 GLL5        0.0000 
     23 CA        -38.7045    3.4890   40.1738 C.3       2 GLC5        0.0000 
     24 CA        -36.4940    4.0950   40.6240 C.3       6 GLL5        0.0000 
     25 CA        -40.6780    3.3880   39.3010 C.3       4 GLP5        0.0000 
     26 CA        -35.1385    3.9305   42.1908 C.3       2 GLC5        0.0000 
     27 CA        -36.9680    3.0850   41.4690 C.3       6 GLL5        0.0000 
     28 CA        -33.5460    4.2710   43.3350 C.3       4 GLP5        0.0000 
     29 CA        -35.4582    4.1237   43.1623 C.3       2 GLC5        0.0000 
     30 CA        -37.3930    3.3260   42.7590 C.3       6 GLL5        0.0000 
     31 CA        -38.2795    6.4590   43.8972 C.3       2 GLC5        0.0000 
     32 CA        -39.4350    7.7710   44.9940 C.3       4 GLP5        0.0000 
     33 CA        -35.1140    4.9095   42.5278 C.3       2 GLC5        0.0000 
     34 CA        -36.9000    5.6670   42.3810 C.3       6 GLL5        0.0000 
@<TRIPOS>BOND
@<TRIPOS>SUBSTRUCTURE
     1 SEC2        1 GROUP        1 X    SEC  0     ROOT SEC X 2
     2 GLC5        6 GROUP        1 X    GLC  0     **** GLC X 6
     3 SEP2        3 GROUP        1 Y    SEP  0     ROOT SEP Y 9
     4 GLP5        8 GROUP        1 Y    GLP  0     **** GLP Y 13
     5 SEL2        2 GROUP        1 Z    SEL  0     ROOT SEL Z 16
     6 GLL5        7 GROUP        1 Z    GLL  0     **** GLL Z 20
@<TRIPOS>SET

