#    Name: 4fam_0SZ_2_ligand
#    Modification time : Mon Mar 24 19:12:30 2014

@<TRIPOS>MOLECULE
4fam_0SZ_2_ligand
   36    38     1     0     0
SMALL
NO_CHARGES


@<TRIPOS>ATOM
      1 OAA       -29.8940    7.3270   35.8080 O.co2     1 0SZ702      0.0000 
      2 CAP       -31.1770    7.1790   35.7540 C.2       1 0SZ702      0.0000 
      3 OAD       -31.7330    6.6050   34.7640 O.co2     1 0SZ702      0.0000 
      4 CAQ       -32.0360    7.7660   36.7310 C.ar      1 0SZ702      0.0000 
      5 CAL       -33.3550    7.3660   36.7620 C.ar      1 0SZ702      0.0000 
      6 CAH       -31.5810    8.7480   37.6570 C.ar      1 0SZ702      0.0000 
      7 CAG       -32.4650    9.3310   38.5930 C.ar      1 0SZ702      0.0000 
      8 CAK       -33.7980    8.9050   38.5690 C.ar      1 0SZ702      0.0000 
      9 CAT       -34.2310    7.9460   37.6750 C.ar      1 0SZ702      0.0000 
     10 SAV       -35.8180    7.5000   37.6220 S.o2      1 0SZ702      0.0000 
     11 OAB       -36.2680    6.6040   36.5440 O.2       1 0SZ702      0.0000 
     12 OAC       -36.6990    8.4590   38.2690 O.2       1 0SZ702      0.0000 
     13 NAU       -36.0790    6.2070   38.7710 N.pl3     1 0SZ702      0.0000 
     14 CAN       -35.3070    4.9760   38.5970 C.3       1 0SZ702      0.0000 
     15 CAM       -36.0470    3.7520   39.2830 C.3       1 0SZ702      0.0000 
     16 CAR       -36.4940    4.0950   40.6240 C.ar      1 0SZ702      0.0000 
     17 CAI       -36.9680    3.0850   41.4690 C.ar      1 0SZ702      0.0000 
     18 CAE       -37.3930    3.3260   42.7590 C.ar      1 0SZ702      0.0000 
     19 CAF       -37.3480    4.6270   43.2200 C.ar      1 0SZ702      0.0000 
     20 CAJ       -36.9000    5.6670   42.3810 C.ar      1 0SZ702      0.0000 
     21 CAS       -36.4640    5.4290   41.0600 C.ar      1 0SZ702      0.0000 
     22 CAO       -35.9860    6.5220   40.2270 C.3       1 0SZ702      0.0000 
     23 H         -33.6960    6.6426   36.1158 H         1 0SZ702      0.0000 
     24 H         -30.5955    9.0333   37.6404 H         1 0SZ702      0.0000 
     25 H         -32.1434   10.0224   39.2462 H         1 0SZ702      0.0000 
     26 H         -34.4694    9.3241   39.2412 H         1 0SZ702      0.0000 
     27 H         -34.3224    5.0482   39.0579 H         1 0SZ702      0.0000 
     28 H         -35.1845    4.7214   37.5447 H         1 0SZ702      0.0000 
     29 H         -35.3373    2.9208   39.2898 H         1 0SZ702      0.0000 
     30 H         -36.8822    3.4853   38.6304 H         1 0SZ702      0.0000 
     31 H         -36.9981    2.1046   41.0973 H         1 0SZ702      0.0000 
     32 H         -37.7285    2.5711   43.3516 H         1 0SZ702      0.0000 
     33 H         -37.6412    4.8517   44.1815 H         1 0SZ702      0.0000 
     34 H         -36.8901    6.6375   42.7448 H         1 0SZ702      0.0000 
     35 H         -36.5680    7.4416   40.4302 H         1 0SZ702      0.0000 
     36 H         -34.9331    6.7595   40.4733 H         1 0SZ702      0.0000 
@<TRIPOS>BOND
     1    2    1 ar   
     2    3    2 ar   
     3    4    2 1    
     4    5    4 ar   
     5    6    4 ar   
     6    9    5 ar   
     7   23    5 1    
     8    7    6 ar   
     9   24    6 1    
    10    8    7 ar   
    11   25    7 1    
    12    9    8 ar   
    13   26    8 1    
    14   10    9 1    
    15   11   10 2    
    16   12   10 2    
    17   13   10 1    
    18   14   13 1    
    19   22   13 1    
    20   15   14 1    
    21   27   14 1    
    22   28   14 1    
    23   16   15 1    
    24   29   15 1    
    25   30   15 1    
    26   17   16 ar   
    27   21   16 ar   
    28   18   17 ar   
    29   31   17 1    
    30   19   18 ar   
    31   32   18 1    
    32   20   19 ar   
    33   33   19 1    
    34   21   20 ar   
    35   34   20 1    
    36   22   21 1    
    37   35   22 1    
    38   36   22 1    
@<TRIPOS>SUBSTRUCTURE
     1 0SZ702      1 GROUP   
@<TRIPOS>SET

