#    Name: 4n1g_CEI_2_INTS_M
#    Modification time : Tue Mar 25 12:31:26 2014

@<TRIPOS>MOLECULE
4n1g_CEI_2_INTS_M
   75     0     9     0     0
SMALL
NO_CHARGES


@<TRIPOS>ATOM
      1 N          19.8755   46.5255   48.1515 N.am      2 SEC2        0.0000 
      2 N          18.9030   45.9260   48.7060 N.am      8 SEL2        0.0000 
      3 N          20.8480   47.1250   47.5970 N.am      5 SEP2        0.0000 
      4 O          17.7810   43.6665   51.2185 O.2       1 ALC1        0.0000 
      5 O          18.7300   44.5190   50.4820 O.2       7 ALL1        0.0000 
      6 O          16.8320   42.8140   51.9550 O.2       4 ALP1        0.0000 
      7 CA         19.3525   43.6850   52.6600 C.3       3 GLC5        0.0000 
      8 CA         18.5730   45.7300   53.1400 C.3       9 GLL5        0.0000 
      9 CA         20.1320   41.6400   52.1800 C.3       6 GLP5        0.0000 
     10 N          21.5150   44.2375   49.2355 N.am      2 SEC2        0.0000 
     11 N          21.0790   44.8160   50.5190 N.am      8 SEL2        0.0000 
     12 N          21.9510   43.6590   47.9520 N.am      5 SEP2        0.0000 
     13 N          26.9655   46.6175   56.1655 N.am      2 SEC2        0.0000 
     14 N          27.0230   47.2940   55.0400 N.am      8 SEL2        0.0000 
     15 N          26.9080   45.9410   57.2910 N.am      5 SEP2        0.0000 
     16 O          28.0730   47.3985   54.1710 O.2       1 ALC1        0.0000 
     17 O          27.0230   47.2940   55.0400 O.2       7 ALL1        0.0000 
     18 O          29.1230   47.5030   53.3020 O.2       4 ALP1        0.0000 
     19 CA         16.1485   42.6925   47.3538 C.3       3 GLC5        0.0000 
     20 CA         17.2020   44.2010   48.5870 C.3       9 GLL5        0.0000 
     21 CA         14.7470   41.5930   46.6480 C.3       6 GLP5        0.0000 
     22 CA         20.0795   43.5280   47.1890 C.3       3 GLC5        0.0000 
     23 CA         17.8980   43.3830   47.5320 C.3       9 GLL5        0.0000 
     24 CA         21.8190   44.2200   46.6930 C.3       6 GLP5        0.0000 
     25 CA         17.5003   41.0950   47.9525 C.3       3 GLC5        0.0000 
     26 CA         18.7820   42.2890   47.8380 C.3       9 GLL5        0.0000 
     27 CA         15.8730   40.2970   48.5490 C.3       6 GLP5        0.0000 
     28 CA         19.1795   39.8133   45.8197 C.3       3 GLC5        0.0000 
     29 CA         19.4730   41.4970   46.8740 C.3       9 GLL5        0.0000 
     30 CA         18.9880   37.9380   45.4370 C.3       6 GLP5        0.0000 
     31 CA         20.8255   42.4988   46.0023 C.3       3 GLC5        0.0000 
     32 CA         22.2800   43.3090   45.8020 C.3       6 GLP5        0.0000 
     33 CA         17.7195   41.5568   44.1860 C.3       3 GLC5        0.0000 
     34 CA         19.2690   41.8800   45.5310 C.3       9 GLL5        0.0000 
     35 CA         16.5950   40.6930   42.9910 C.3       6 GLP5        0.0000 
     36 CA         16.4185   42.4763   46.1758 C.3       3 GLC5        0.0000 
     37 CA         18.4190   42.9610   45.2310 C.3       9 GLL5        0.0000 
     38 CA         19.9545   43.7897   46.1983 C.3       3 GLC5        0.0000 
     39 CA         17.7610   43.7580   46.1760 C.3       9 GLL5        0.0000 
     40 CA         18.9275   44.7843   54.5630 C.3       3 GLC5        0.0000 
     41 CA         19.8710   45.5410   52.4320 C.3       9 GLL5        0.0000 
     42 CA         18.6330   43.9330   56.3400 C.3       6 GLP5        0.0000 
     43 CA         20.2280   48.3640   53.9865 C.3       3 GLC5        0.0000 
     44 CA         18.5130   47.1680   53.3480 C.3       9 GLL5        0.0000 
     45 CA         22.0260   49.3300   53.9750 C.3       6 GLP5        0.0000 
     46 CA         17.8075   45.8850   55.2235 C.3       3 GLC5        0.0000 
     47 CA         18.3470   47.6280   54.6480 C.3       9 GLL5        0.0000 
     48 CA         17.1850   44.3720   56.4490 C.3       6 GLP5        0.0000 
     49 CA         17.0365   48.8580   53.4170 C.3       3 GLC5        0.0000 
     50 CA         15.6430   50.3180   52.8360 C.3       6 GLP5        0.0000 
     51 CA         19.2933   47.9490   56.6013 C.3       3 GLC5        0.0000 
     52 CA         18.3180   48.9860   54.8670 C.3       9 GLL5        0.0000 
     53 CA         20.2540   47.5910   58.4450 C.3       6 GLP5        0.0000 
     54 CA         20.2190   49.3750   54.1525 C.3       3 GLC5        0.0000 
     55 CA         17.0275   49.8690   53.5830 C.3       3 GLC5        0.0000 
     56 CA         18.5060   49.8540   53.7930 C.3       9 GLL5        0.0000 
     57 CA         18.6275   51.6780   52.8085 C.3       3 GLC5        0.0000 
     58 CA         18.6670   53.7400   52.4780 C.3       6 GLP5        0.0000 
     59 CA         20.3495   49.0115   53.1735 C.3       3 GLC5        0.0000 
     60 CA         18.6700   49.3780   52.4850 C.3       9 GLL5        0.0000 
     61 CA         17.1580   49.5055   52.6040 C.3       3 GLC5        0.0000 
     62 CA         16.8708   46.6986   53.2267 C.3       3 GLC5        0.0000 
     63 CA         18.6760   48.0080   52.2590 C.3       9 GLL5        0.0000 
     64 CA         15.1810   45.8740   53.3510 C.3       6 GLP5        0.0000 
     65 CA         24.8700   48.5295   53.1830 C.3       3 GLC5        0.0000 
     66 CA         24.5900   46.5000   52.3460 C.3       9 GLL5        0.0000 
     67 CA         24.5630   50.3570   53.7010 C.3       6 GLP5        0.0000 
     68 CA         25.1110   48.3790   54.9458 C.3       3 GLC5        0.0000 
     69 CA         25.8310   46.9080   54.3750 C.3       9 GLL5        0.0000 
     70 CA         24.9620   50.0600   55.1480 C.3       6 GLP5        0.0000 
     71 CA         23.3903   46.6965   56.3948 C.3       3 GLC5        0.0000 
     72 CA         24.6890   46.4880   55.1120 C.3       9 GLL5        0.0000 
     73 CA         22.6870   47.0980   57.9880 C.3       6 GLP5        0.0000 
     74 CA         22.5999   47.6687   53.7953 C.3       3 GLC5        0.0000 
     75 CA         23.4980   46.1020   54.4910 C.3       9 GLL5        0.0000 
@<TRIPOS>BOND
@<TRIPOS>SUBSTRUCTURE
     1 ALC1        4 GROUP        1 X    ALC  0     ROOT ALC X 1
     2 SEC2        1 GROUP        1 X    SEC  0     **** SEC X 2
     3 GLC5        7 GROUP        1 X    GLC  0     **** GLC X 6
     4 ALP1        6 GROUP        1 Y    ALP  0     ROOT ALP Y 8
     5 SEP2        3 GROUP        1 Y    SEP  0     **** SEP Y 9
     6 GLP5        9 GROUP        1 Y    GLP  0     **** GLP Y 13
     7 ALL1        5 GROUP        1 Z    ALL  0     ROOT ALL Z 15
     8 SEL2        2 GROUP        1 Z    SEL  0     **** SEL Z 16
     9 GLL5        8 GROUP        1 Z    GLL  0     **** GLL Z 20
@<TRIPOS>SET

