#    Name: 4n1g_CEI_2_ligand
#    Modification time : Tue Mar 25 12:31:26 2014

@<TRIPOS>MOLECULE
4n1g_CEI_2_ligand
   52    55     1     0     0
SMALL
NO_CHARGES


@<TRIPOS>ATOM
      1 O33        18.9030   45.9260   48.7060 O.2       1 CEI201      0.0000 
      2 C2         18.3110   44.9700   49.2360 C.2       1 CEI201      0.0000 
      3 C10        17.2020   44.2010   48.5870 C.3       1 CEI201      0.0000 
      4 C11        17.8980   43.3830   47.5320 C.ar      1 CEI201      0.0000 
      5 C12        18.7820   42.2890   47.8380 C.ar      1 CEI201      0.0000 
      6 C13        19.4730   41.4970   46.8740 C.ar      1 CEI201      0.0000 
      7 C14        19.2690   41.8800   45.5310 C.ar      1 CEI201      0.0000 
      8 O17        19.9030   41.1410   44.5520 O.3       1 CEI201      0.0000 
      9 C15        18.4190   42.9610   45.2310 C.ar      1 CEI201      0.0000 
     10 C16        17.7610   43.7580   46.1760 C.ar      1 CEI201      0.0000 
     11 N1         18.7300   44.5190   50.4820 N.am      1 CEI201      0.0000 
     12 C9         19.8880   45.0210   51.1420 C.ar      1 CEI201      0.0000 
     13 C8         19.8710   45.5410   52.4320 C.ar      1 CEI201      0.0000 
     14 C26        18.5730   45.7300   53.1400 C.3       1 CEI201      0.0000 
     15 C27        18.5130   47.1680   53.3480 C.ar      1 CEI201      0.0000 
     16 C28        18.3470   47.6280   54.6480 C.ar      1 CEI201      0.0000 
     17 C29        18.3180   48.9860   54.8670 C.ar      1 CEI201      0.0000 
     18 C30        18.5060   49.8540   53.7930 C.ar      1 CEI201      0.0000 
     19 C31        18.6700   49.3780   52.4850 C.ar      1 CEI201      0.0000 
     20 C32        18.6760   48.0080   52.2590 C.ar      1 CEI201      0.0000 
     21 N7         21.0500   45.8790   53.0290 N.ar      1 CEI201      0.0000 
     22 C6         22.2610   45.7230   52.3950 C.ar      1 CEI201      0.0000 
     23 C5         22.2940   45.2040   51.0830 C.ar      1 CEI201      0.0000 
     24 N4         21.0790   44.8160   50.5190 N.ar      1 CEI201      0.0000 
     25 C19        23.4380   46.1030   53.0850 C.ar      1 CEI201      0.0000 
     26 C20        24.5900   46.5000   52.3460 C.ar      1 CEI201      0.0000 
     27 C21        25.7640   46.9040   52.9840 C.ar      1 CEI201      0.0000 
     28 C22        25.8310   46.9080   54.3750 C.ar      1 CEI201      0.0000 
     29 O25        27.0230   47.2940   55.0400 O.3       1 CEI201      0.0000 
     30 C23        24.6890   46.4880   55.1120 C.ar      1 CEI201      0.0000 
     31 C24        23.4980   46.1020   54.4910 C.ar      1 CEI201      0.0000 
     32 H          16.5081   44.8695   48.1292 H         1 CEI201      0.0000 
     33 H          16.7352   43.5563   49.2972 H         1 CEI201      0.0000 
     34 H          18.9264   42.0596   48.8544 H         1 CEI201      0.0000 
     35 H          20.0472   40.7417   47.1332 H         1 CEI201      0.0000 
     36 H          18.2662   43.1881   44.2055 H         1 CEI201      0.0000 
     37 H          17.2187   44.5555   45.9106 H         1 CEI201      0.0000 
     38 H          18.1790   43.7767   50.9694 H         1 CEI201      0.0000 
     39 H          18.5919   45.2049   54.0733 H         1 CEI201      0.0000 
     40 H          17.7698   45.3960   52.5152 H         1 CEI201      0.0000 
     41 H          18.2491   46.9675   55.4206 H         1 CEI201      0.0000 
     42 H          18.1603   49.3634   55.8072 H         1 CEI201      0.0000 
     43 H          18.5255   50.8769   53.9621 H         1 CEI201      0.0000 
     44 H          18.7832   50.0353   51.7119 H         1 CEI201      0.0000 
     45 H          18.7965   47.6346   51.3220 H         1 CEI201      0.0000 
     46 H          23.1614   45.1207   50.5824 H         1 CEI201      0.0000 
     47 H          24.5426   46.4841   51.3143 H         1 CEI201      0.0000 
     48 H          26.5750   47.1971   52.4280 H         1 CEI201      0.0000 
     49 H          24.7532   46.4713   56.1487 H         1 CEI201      0.0000 
     50 H          22.6897   45.8256   55.0393 H         1 CEI201      0.0000 
     51 H          20.6617   40.6881   45.0203 H         1 CEI201      0.0000 
     52 H          27.7636   46.9910   54.4402 H         1 CEI201      0.0000 
@<TRIPOS>BOND
     1    2    1 2    
     2    3    2 1    
     3   11    2 am   
     4    4    3 1    
     5   32    3 1    
     6   33    3 1    
     7    5    4 ar   
     8   10    4 ar   
     9    6    5 ar   
    10   34    5 1    
    11    7    6 ar   
    12   35    6 1    
    13    8    7 1    
    14    9    7 ar   
    15   51    8 1    
    16   10    9 ar   
    17   36    9 1    
    18   37   10 1    
    19   12   11 1    
    20   38   11 1    
    21   13   12 ar   
    22   24   12 ar   
    23   14   13 1    
    24   21   13 ar   
    25   15   14 1    
    26   39   14 1    
    27   40   14 1    
    28   16   15 ar   
    29   20   15 ar   
    30   17   16 ar   
    31   41   16 1    
    32   18   17 ar   
    33   42   17 1    
    34   19   18 ar   
    35   43   18 1    
    36   20   19 ar   
    37   44   19 1    
    38   45   20 1    
    39   22   21 ar   
    40   23   22 ar   
    41   25   22 1    
    42   24   23 ar   
    43   46   23 1    
    44   26   25 ar   
    45   31   25 ar   
    46   27   26 ar   
    47   47   26 1    
    48   28   27 ar   
    49   48   27 1    
    50   29   28 1    
    51   30   28 ar   
    52   52   29 1    
    53   31   30 ar   
    54   49   30 1    
    55   50   31 1    
@<TRIPOS>SUBSTRUCTURE
     1 CEI201      1 GROUP   
@<TRIPOS>SET

