#    Name: 3l8s_BFF_1_INTS_M
#    Modification time : Mon Mar 24 21:08:37 2014

@<TRIPOS>MOLECULE
3l8s_BFF_1_INTS_M
   68     0     9     0     0
SMALL
NO_CHARGES


@<TRIPOS>ATOM
      1 O          21.5540   -0.3360  -25.8845 O.2       1 ALC1        0.0000 
      2 O          21.0140    0.4760  -24.5220 O.2       7 ALL1        0.0000 
      3 O          22.0940   -1.1480  -27.2470 O.2       4 ALP1        0.0000 
      4 N          21.4115    2.0080  -26.8605 N.am      2 SEC2        0.0000 
      5 N          21.7430    2.2140  -25.7390 N.am      8 SEL2        0.0000 
      6 N          21.0800    1.8020  -27.9820 N.am      5 SEP2        0.0000 
      7 CA         25.9115    0.7725  -21.1740 C.3       3 GLC5        0.0000 
      8 CA         25.4300   -0.9600  -21.2410 C.3       9 GLL5        0.0000 
      9 CA         26.3930    2.5050  -21.1070 C.3       6 GLP5        0.0000 
     10 CA         27.3755   -1.0465  -22.0415 C.3       3 GLC5        0.0000 
     11 CA         29.3210   -1.1330  -22.8420 C.3       6 GLP5        0.0000 
     12 CA         23.3165   -6.8535  -19.8645 C.3       3 GLC5        0.0000 
     13 CA         24.0190   -5.8240  -21.2030 C.3       9 GLL5        0.0000 
     14 CA         22.6140   -7.8830  -18.5260 C.3       6 GLP5        0.0000 
     15 CA         24.7735   -7.2750  -21.4505 C.3       3 GLC5        0.0000 
     16 CA         25.5280   -8.7260  -21.6980 C.3       6 GLP5        0.0000 
     17 CA         23.6185   -5.3640  -23.0010 C.3       3 GLC5        0.0000 
     18 CA         23.2180   -4.9040  -24.7990 C.3       6 GLP5        0.0000 
     19 CA         17.0905    7.3035  -26.3580 C.3       3 GLC5        0.0000 
     20 CA         18.5940    8.2010  -25.0460 C.3       9 GLL5        0.0000 
     21 CA         15.5870    6.4060  -27.6700 C.3       6 GLP5        0.0000 
     22 CA         16.1845    2.0530  -24.8725 C.3       3 GLC5        0.0000 
     23 CA         17.1380    3.8590  -23.9630 C.3       9 GLL5        0.0000 
     24 CA         15.2310    0.2470  -25.7820 C.3       6 GLP5        0.0000 
     25 CA         16.6960    1.9515  -22.8600 C.3       3 GLC5        0.0000 
     26 CA         16.2540    0.0440  -21.7570 C.3       6 GLP5        0.0000 
     27 CA         20.1080    6.9485  -27.3755 C.3       3 GLC5        0.0000 
     28 CA         21.1230    8.0130  -25.6970 C.3       9 GLL5        0.0000 
     29 CA         19.0930    5.8840  -29.0540 C.3       6 GLP5        0.0000 
     30 CA         16.2015    5.8700  -25.9670 C.3       3 GLC5        0.0000 
     31 CA         16.8160    5.3340  -24.2640 C.3       9 GLL5        0.0000 
     32 CA         24.3615    1.2010  -19.6125 C.3       3 GLC5        0.0000 
     33 CA         22.8840    0.0270  -20.5690 C.3       9 GLL5        0.0000 
     34 CA         25.8390    2.3750  -18.6560 C.3       6 GLP5        0.0000 
     35 O          20.6735    5.4035  -26.3035 O.2       1 ALC1        0.0000 
     36 O          21.1840    6.5510  -25.4750 O.2       7 ALL1        0.0000 
     37 O          20.1630    4.2560  -27.1320 O.2       4 ALP1        0.0000 
     38 O          20.8410    4.4410  -25.7325 O.2       1 ALC1        0.0000 
     39 O          21.5190    4.6260  -24.3330 O.2       7 ALL1        0.0000 
     40 CA         24.2720   -1.5760  -18.8015 C.3       3 GLC5        0.0000 
     41 CA         23.1190   -1.3170  -20.6480 C.3       9 GLL5        0.0000 
     42 CA         25.4250   -1.8350  -16.9550 C.3       6 GLP5        0.0000 
     43 CA         23.4975    1.3560  -23.7865 C.3       3 GLC5        0.0000 
     44 CA         21.9190    2.4410  -23.3410 C.3       9 GLL5        0.0000 
     45 CA         25.0760    0.2710  -24.2320 C.3       6 GLP5        0.0000 
     46 CA         24.9915   -0.5483  -22.6822 C.3       3 GLC5        0.0000 
     47 CA         20.5900   -3.2663  -21.1490 C.3       3 GLC5        0.0000 
     48 CA         22.0590   -2.2090  -20.4400 C.3       9 GLL5        0.0000 
     49 CA         19.7420   -4.5490  -22.0270 C.3       6 GLP5        0.0000 
     50 CA         26.0078   -2.0439  -19.8966 C.3       3 GLC5        0.0000 
     51 CA         24.6160   -3.1200  -21.1680 C.3       9 GLL5        0.0000 
     52 CA         27.2540   -1.8440  -18.6430 C.3       6 GLP5        0.0000 
     53 CA         25.6789   -5.0343  -20.3105 C.3       3 GLC5        0.0000 
     54 CA         27.1480   -6.0510  -19.5000 C.3       6 GLP5        0.0000 
     55 CA         23.4880   -3.5590  -22.6147 C.3       3 GLC5        0.0000 
     56 CA         22.8740   -3.5550  -24.1730 C.3       6 GLP5        0.0000 
     57 CA         21.3457   -4.1703  -21.3948 C.3       3 GLC5        0.0000 
     58 CA         23.5880   -4.0060  -20.9450 C.3       9 GLL5        0.0000 
     59 CA         22.5295   -3.2240  -22.3415 C.3       3 GLC5        0.0000 
     60 CA         22.3110   -3.5770  -20.5800 C.3       9 GLL5        0.0000 
     61 CA         15.0990    4.7702  -23.9707 C.3       3 GLC5        0.0000 
     62 CA         13.2210    4.9440  -23.8280 C.3       6 GLP5        0.0000 
     63 CA         18.0802    4.2472  -20.7707 C.3       3 GLC5        0.0000 
     64 CA         18.2980    3.9160  -22.9800 C.3       9 GLL5        0.0000 
     65 CA         17.7900    3.8270  -18.7050 C.3       6 GLP5        0.0000 
     66 CA         24.0388   -0.1870  -22.4202 C.3       3 GLC5        0.0000 
     67 CA         23.3127   -2.5505  -22.5045 C.3       3 GLC5        0.0000 
     68 CA         24.3840   -1.7750  -21.0240 C.3       9 GLL5        0.0000 
@<TRIPOS>BOND
@<TRIPOS>SUBSTRUCTURE
     1 ALC1        1 GROUP        1 X    ALC  0     ROOT ALC X 1
     2 SEC2        4 GROUP        1 X    SEC  0     **** SEC X 2
     3 GLC5        7 GROUP        1 X    GLC  0     **** GLC X 6
     4 ALP1        3 GROUP        1 Y    ALP  0     ROOT ALP Y 8
     5 SEP2        6 GROUP        1 Y    SEP  0     **** SEP Y 9
     6 GLP5        9 GROUP        1 Y    GLP  0     **** GLP Y 13
     7 ALL1        2 GROUP        1 Z    ALL  0     ROOT ALL Z 15
     8 SEL2        5 GROUP        1 Z    SEL  0     **** SEL Z 16
     9 GLL5        8 GROUP        1 Z    GLL  0     **** GLL Z 20
@<TRIPOS>SET

