#    Name: 3l8s_BFF_1_ligand
#    Modification time : Mon Mar 24 21:08:37 2014

@<TRIPOS>MOLECULE
3l8s_BFF_1_ligand
   57    59     1     0     0
SMALL
NO_CHARGES


@<TRIPOS>ATOM
      1 NAA        21.0140    0.4760  -24.5220 N.am      1 BFF361      0.0000 
      2 OAB        21.7430    2.2140  -25.7390 O.2       1 BFF361      0.0000 
      3 OAC        22.0450    6.6060  -23.3770 O.2       1 BFF361      0.0000 
      4 FAD        25.4300   -0.9600  -21.2410 F         1 BFF361      0.0000 
      5 FAE        20.8170   -1.7580  -20.1020 F         1 BFF361      0.0000 
      6 BRAF       24.0190   -5.8240  -21.2030 Br        1 BFF361      0.0000 
      7 CAG        24.6160   -3.1200  -21.1680 C.ar      1 BFF361      0.0000 
      8 CAH        22.3110   -3.5770  -20.5800 C.ar      1 BFF361      0.0000 
      9 CAI        20.0580    8.6420  -24.7530 C.3       1 BFF361      0.0000 
     10 CAJ        18.5940    8.2010  -25.0460 C.3       1 BFF361      0.0000 
     11 CAK        17.1380    3.8590  -23.9630 C.3       1 BFF361      0.0000 
     12 CAL        18.2980    3.9160  -22.9800 C.3       1 BFF361      0.0000 
     13 CAM        21.1230    8.0130  -25.6970 C.3       1 BFF361      0.0000 
     14 CAN        17.8800    7.5050  -23.8640 C.3       1 BFF361      0.0000 
     15 CAO        16.8160    5.3340  -24.2640 C.3       1 BFF361      0.0000 
     16 CAP        18.4430    5.4190  -22.6930 C.3       1 BFF361      0.0000 
     17 CAQ        22.8840    0.0270  -20.5690 C.3       1 BFF361      0.0000 
     18 NAR        22.5210    2.7940  -21.1080 N.2       1 BFF361      0.0000 
     19 NAS        21.1840    6.5510  -25.4750 N.am      1 BFF361      0.0000 
     20 NAT        21.5190    4.6260  -24.3330 N.am      1 BFF361      0.0000 
     21 OAU        22.4380    0.5340  -21.8790 O.3       1 BFF361      0.0000 
     22 SAV        22.2460    4.3050  -21.7380 S.3       1 BFF361      0.0000 
     23 CAW        21.5810    1.6750  -24.6480 C.2       1 BFF361      0.0000 
     24 CAX        21.6100    5.9640  -24.3410 C.2       1 BFF361      0.0000 
     25 CAY        23.5880   -4.0060  -20.9450 C.ar      1 BFF361      0.0000 
     26 CAZ        24.3840   -1.7750  -21.0240 C.ar      1 BFF361      0.0000 
     27 CBA        22.0590   -2.2090  -20.4400 C.ar      1 BFF361      0.0000 
     28 CBB        22.3010    1.8880  -22.0870 C.2       1 BFF361      0.0000 
     29 CBC        23.1190   -1.3170  -20.6480 C.ar      1 BFF361      0.0000 
     30 CBD        21.8620    3.8330  -23.3070 C.2       1 BFF361      0.0000 
     31 CBE        21.9190    2.4410  -23.3410 C.2       1 BFF361      0.0000 
     32 NBF        18.0620    6.0400  -23.9680 N.4       1 BFF361      0.0000 
     33 H          20.9414    0.1193  -23.5906 H         1 BFF361      0.0000 
     34 H          20.7121    0.0407  -25.3702 H         1 BFF361      0.0000 
     35 H          25.5469   -3.4625  -21.4394 H         1 BFF361      0.0000 
     36 H          21.5652   -4.2568  -20.4161 H         1 BFF361      0.0000 
     37 H          20.3047    8.3740  -23.7164 H         1 BFF361      0.0000 
     38 H          20.1181    9.7360  -24.8344 H         1 BFF361      0.0000 
     39 H          18.6018    7.5181  -25.9090 H         1 BFF361      0.0000 
     40 H          18.0143    9.0896  -25.3386 H         1 BFF361      0.0000 
     41 H          16.2952    3.4001  -23.5073 H         1 BFF361      0.0000 
     42 H          17.4415    3.3746  -24.8584 H         1 BFF361      0.0000 
     43 H          19.1815    3.5569  -23.4378 H         1 BFF361      0.0000 
     44 H          18.0441    3.4087  -22.0871 H         1 BFF361      0.0000 
     45 H          22.0798    8.4797  -25.4797 H         1 BFF361      0.0000 
     46 H          20.8379    8.2394  -26.7207 H         1 BFF361      0.0000 
     47 H          16.8258    7.7674  -23.9029 H         1 BFF361      0.0000 
     48 H          18.3083    7.8832  -22.9392 H         1 BFF361      0.0000 
     49 H          16.0237    5.6460  -23.6188 H         1 BFF361      0.0000 
     50 H          16.5506    5.4190  -25.2954 H         1 BFF361      0.0000 
     51 H          19.4578    5.6230  -22.4476 H         1 BFF361      0.0000 
     52 H          17.7694    5.6839  -21.9134 H         1 BFF361      0.0000 
     53 H          22.1038    0.2763  -19.8203 H         1 BFF361      0.0000 
     54 H          23.7877    0.5971  -20.2694 H         1 BFF361      0.0000 
     55 H          20.8586    5.9720  -26.2969 H         1 BFF361      0.0000 
     56 H          21.1388    4.1483  -25.2246 H         1 BFF361      0.0000 
     57 H          18.7921    5.7836  -24.7090 H         1 BFF361      0.0000 
@<TRIPOS>BOND
     1   23    1 am   
     2   33    1 1    
     3   34    1 1    
     4   23    2 2    
     5   24    3 2    
     6   26    4 1    
     7   27    5 1    
     8   25    6 1    
     9   25    7 ar   
    10   26    7 ar   
    11   35    7 1    
    12   25    8 ar   
    13   27    8 ar   
    14   36    8 1    
    15   10    9 1    
    16   13    9 1    
    17   37    9 1    
    18   38    9 1    
    19   14   10 1    
    20   39   10 1    
    21   40   10 1    
    22   12   11 1    
    23   15   11 1    
    24   41   11 1    
    25   42   11 1    
    26   16   12 1    
    27   43   12 1    
    28   44   12 1    
    29   19   13 1    
    30   45   13 1    
    31   46   13 1    
    32   32   14 1    
    33   47   14 1    
    34   48   14 1    
    35   32   15 1    
    36   49   15 1    
    37   50   15 1    
    38   32   16 1    
    39   51   16 1    
    40   52   16 1    
    41   21   17 1    
    42   29   17 1    
    43   53   17 1    
    44   54   17 1    
    45   22   18 1    
    46   28   18 2    
    47   24   19 am   
    48   55   19 1    
    49   24   20 am   
    50   30   20 1    
    51   56   20 1    
    52   28   21 1    
    53   30   22 1    
    54   31   23 1    
    55   29   26 ar   
    56   29   27 ar   
    57   31   28 1    
    58   31   30 2    
    59   57   32 1    
@<TRIPOS>SUBSTRUCTURE
     1 BFF361      1 GROUP   
@<TRIPOS>SET

