#    Name: 2f98_NGV_2_INTS_M
#    Modification time : Tue Mar 25 12:22:23 2014

@<TRIPOS>MOLECULE
2f98_NGV_2_INTS_M
   38     0     3     0     0
SMALL
NO_CHARGES


@<TRIPOS>ATOM
      1 CA         25.2215   35.3005   12.6445 C.3       1 GLC5        0.0000 
      2 CA         26.6060   36.0420   13.5860 C.3       3 GLL5        0.0000 
      3 CA         23.8370   34.5590   11.7030 C.3       2 GLP5        0.0000 
      4 CA         28.2350   36.0765   14.4965 C.3       1 GLC5        0.0000 
      5 CA         29.8640   36.1110   15.4070 C.3       2 GLP5        0.0000 
      6 CA         26.4825   37.6260   12.7585 C.3       1 GLC5        0.0000 
      7 CA         26.3590   39.2100   11.9310 C.3       2 GLP5        0.0000 
      8 CA         25.5620   36.8990   14.5340 C.3       1 GLC5        0.0000 
      9 CA         24.5180   37.7560   15.4820 C.3       2 GLP5        0.0000 
     10 CA         26.2765   33.7605   11.5825 C.3       1 GLC5        0.0000 
     11 CA         27.9210   32.5670   12.5050 C.3       3 GLL5        0.0000 
     12 CA         24.6320   34.9540   10.6600 C.3       2 GLP5        0.0000 
     13 CA         27.6770   31.0420   11.2870 C.3       1 GLC5        0.0000 
     14 CA         27.4330   29.5170   10.0690 C.3       2 GLP5        0.0000 
     15 CA         26.1475   31.7035   13.4765 C.3       1 GLC5        0.0000 
     16 CA         24.3740   30.8400   14.4480 C.3       2 GLP5        0.0000 
     17 CA         31.1065   31.0975   10.0385 C.3       1 GLC5        0.0000 
     18 CA         30.2310   32.1930   11.7350 C.3       3 GLL5        0.0000 
     19 CA         31.9820   30.0020    8.3420 C.3       2 GLP5        0.0000 
     20 CA         32.7780   32.6800    8.7740 C.3       1 GLC5        0.0000 
     21 CA         32.9420   34.3420   10.2230 C.3       3 GLL5        0.0000 
     22 CA         32.6140   31.0180    7.3250 C.3       2 GLP5        0.0000 
     23 CA         29.0726   32.6271   10.1489 C.3       1 GLC5        0.0000 
     24 CA         28.3830   32.2710    8.5770 C.3       2 GLP5        0.0000 
     25 CA         29.7134   31.4767   13.4671 C.3       1 GLC5        0.0000 
     26 CA         29.2080   33.1050   11.9100 C.3       3 GLL5        0.0000 
     27 CA         30.0290   30.4390   14.9630 C.3       2 GLP5        0.0000 
     28 CA         30.8156   35.5334   12.5116 C.3       1 GLC5        0.0000 
     29 CA         31.6340   33.9210   10.8030 C.3       3 GLL5        0.0000 
     30 CA         30.8170   36.7810   14.0030 C.3       2 GLP5        0.0000 
     31 CA         31.1378   36.5845   12.1475 C.3       1 GLC5        0.0000 
     32 CA         30.8410   36.1870   10.5660 C.3       3 GLL5        0.0000 
     33 CA         36.9030   40.2692    9.4205 C.3       1 GLC5        0.0000 
     34 CA         35.8930   39.2240    8.0030 C.3       3 GLL5        0.0000 
     35 CA         38.4370   40.8660   10.7500 C.3       2 GLP5        0.0000 
     36 CA         35.5860   38.9201    6.3770 C.3       1 GLC5        0.0000 
     37 CA         34.8450   40.1210    8.1790 C.3       3 GLL5        0.0000 
     38 CA         35.6180   39.0630    4.5270 C.3       2 GLP5        0.0000 
@<TRIPOS>BOND
@<TRIPOS>SUBSTRUCTURE
     1 GLC5        1 GROUP        1 X    GLC  0     ROOT GLC X 6
     2 GLP5        3 GROUP        1 Y    GLP  0     ROOT GLP Y 13
     3 GLL5        2 GROUP        1 Z    GLL  0     ROOT GLL Z 20
@<TRIPOS>SET

