#    Name: 2f98_NGV_2_ligand
#    Modification time : Tue Mar 25 12:22:23 2014

@<TRIPOS>MOLECULE
2f98_NGV_2_ligand
   42    45     1     0     0
SMALL
NO_CHARGES


@<TRIPOS>ATOM
      1 O17        27.8050   36.2350   10.9690 O.2       1 NGV336      0.0000 
      2 C14        28.2630   35.4150   11.7570 C.2       1 NGV336      0.0000 
      3 O16        27.7830   35.3840   13.1270 O.3       1 NGV336      0.0000 
      4 C15        26.6060   36.0420   13.5860 C.3       1 NGV336      0.0000 
      5 C10        29.3790   34.4420   11.5030 C.2       1 NGV336      0.0000 
      6 C9         29.2080   33.1050   11.9100 C.2       1 NGV336      0.0000 
      7 C13        27.9210   32.5670   12.5050 C.3       1 NGV336      0.0000 
      8 C8         30.2310   32.1930   11.7350 C.3       1 NGV336      0.0000 
      9 C19        30.6100   34.8590   10.9720 C.ar      1 NGV336      0.0000 
     10 C20        31.6340   33.9210   10.8030 C.ar      1 NGV336      0.0000 
     11 C7         31.4420   32.6030   11.1890 C.2       1 NGV336      0.0000 
     12 O22        32.3530   31.7620   11.0560 O.2       1 NGV336      0.0000 
     13 C11        30.8410   36.1870   10.5660 C.ar      1 NGV336      0.0000 
     14 C18        32.0760   36.5890   10.0180 C.ar      1 NGV336      0.0000 
     15 C17        33.1250   35.6750    9.8440 C.ar      1 NGV336      0.0000 
     16 C5         34.3490   36.0920    9.2970 C.2       1 NGV336      0.0000 
     17 O20        35.2840   35.2520    9.1540 O.2       1 NGV336      0.0000 
     18 C6         32.9420   34.3420   10.2230 C.ar      1 NGV336      0.0000 
     19 O21        33.9290   33.4460   10.0790 O.3       1 NGV336      0.0000 
     20 C12        32.2690   37.9220    9.6330 C.2       1 NGV336      0.0000 
     21 O18        31.2920   38.8150    9.7930 O.2       1 NGV336      0.0000 
     22 C21        33.4850   38.3350    9.0880 C.ar      1 NGV336      0.0000 
     23 C1         33.6470   39.6720    8.7270 C.ar      1 NGV336      0.0000 
     24 C2         34.8450   40.1210    8.1790 C.ar      1 NGV336      0.0000 
     25 C3         35.8930   39.2240    8.0030 C.ar      1 NGV336      0.0000 
     26 C16        34.5320   37.4260    8.9120 C.ar      1 NGV336      0.0000 
     27 C4         35.7390   37.8820    8.3630 C.ar      1 NGV336      0.0000 
     28 O19        36.7790   37.0660    8.1790 O.3       1 NGV336      0.0000 
     29 H          29.8331   31.2923   11.1215 H         1 NGV336      0.0000 
     30 H          30.4400   31.6616   12.7449 H         1 NGV336      0.0000 
     31 H          30.0862   36.8858   10.6721 H         1 NGV336      0.0000 
     32 H          32.8686   40.3358    8.8683 H         1 NGV336      0.0000 
     33 H          34.9531   41.1022    7.9083 H         1 NGV336      0.0000 
     34 H          36.7861   39.5459    7.6067 H         1 NGV336      0.0000 
     35 H          26.4537   35.8920   14.5629 H         1 NGV336      0.0000 
     36 H          26.6545   37.0309   13.4453 H         1 NGV336      0.0000 
     37 H          25.7892   35.7178   13.1088 H         1 NGV336      0.0000 
     38 H          27.9936   31.5953   12.7300 H         1 NGV336      0.0000 
     39 H          27.6730   33.0452   13.3475 H         1 NGV336      0.0000 
     40 H          27.1509   32.6652   11.8747 H         1 NGV336      0.0000 
     41 H          33.5368   32.5779   10.3832 H         1 NGV336      0.0000 
     42 H          36.4529   36.1637    8.4610 H         1 NGV336      0.0000 
@<TRIPOS>BOND
     1    2    1 2    
     2    3    2 1    
     3    5    2 1    
     4    4    3 1    
     5   35    4 1    
     6   36    4 1    
     7   37    4 1    
     8    6    5 2    
     9    9    5 1    
    10    7    6 1    
    11    8    6 1    
    12   38    7 1    
    13   39    7 1    
    14   40    7 1    
    15   11    8 1    
    16   29    8 1    
    17   30    8 1    
    18   10    9 ar   
    19   13    9 ar   
    20   11   10 1    
    21   18   10 ar   
    22   12   11 2    
    23   14   13 ar   
    24   31   13 1    
    25   15   14 ar   
    26   20   14 1    
    27   16   15 1    
    28   18   15 ar   
    29   17   16 2    
    30   26   16 1    
    31   19   18 1    
    32   41   19 1    
    33   21   20 2    
    34   22   20 1    
    35   23   22 ar   
    36   26   22 ar   
    37   24   23 ar   
    38   32   23 1    
    39   25   24 ar   
    40   33   24 1    
    41   27   25 ar   
    42   34   25 1    
    43   27   26 ar   
    44   28   27 1    
    45   42   28 1    
@<TRIPOS>SUBSTRUCTURE
     1 NGV336      1 GROUP   
@<TRIPOS>SET

