#    Name: 1u8f_NAD_1_INTS_M
#    Modification time : Tue Mar 25 06:14:42 2014

@<TRIPOS>MOLECULE
1u8f_NAD_1_INTS_M
   79     0     9     0     0
SMALL
NO_CHARGES


@<TRIPOS>ATOM
      1 N          16.3540   24.0480   27.0740 N.am      2 SEC2        0.0000 
      2 N          15.8530   25.4830   27.1760 N.am      8 SEL2        0.0000 
      3 N          16.8550   22.6130   26.9720 N.am      5 SEP2        0.0000 
      4 CA         10.6175   22.6765   25.3315 C.3       3 GLC5        0.0000 
      5 CA         11.6260   24.3470   25.5380 C.3       9 GLL5        0.0000 
      6 CA          9.6090   21.0060   25.1250 C.3       6 GLP5        0.0000 
      7 CA         13.1035   26.0800   22.5875 C.3       3 GLC5        0.0000 
      8 CA         12.1030   25.0850   24.2920 C.3       9 GLL5        0.0000 
      9 CA         14.1040   27.0750   20.8830 C.3       6 GLP5        0.0000 
     10 O          11.8845   23.3390   22.6860 O.2       1 ALC1        0.0000 
     11 O          12.8080   24.2330   23.3820 O.2       7 ALL1        0.0000 
     12 O          10.9610   22.4450   21.9900 O.2       4 ALP1        0.0000 
     13 CA          9.4465   26.5130   22.2110 C.3       3 GLC5        0.0000 
     14 CA         10.8330   25.6870   23.6840 C.3       9 GLL5        0.0000 
     15 CA          8.0600   27.3390   20.7380 C.3       6 GLP5        0.0000 
     16 O          10.3330   24.7770   21.4390 O.2       1 ALC1        0.0000 
     17 O          10.8890   25.8670   22.2560 O.2       7 ALL1        0.0000 
     18 O           9.7770   23.6870   20.6220 O.2       4 ALP1        0.0000 
     19 O          10.9250   24.1560   22.1230 O.2       1 ALC1        0.0000 
     20 CA          9.6885   22.8600   24.6440 C.3       3 GLC5        0.0000 
     21 CA          9.7680   24.7140   24.1630 C.3       9 GLL5        0.0000 
     22 O           2.3075   25.0550   23.6935 O.2       1 ALC1        0.0000 
     23 O           3.8610   25.4490   24.1220 O.2       7 ALL1        0.0000 
     24 O           0.7540   24.6610   23.2650 O.2       4 ALP1        0.0000 
     25 CA          7.7775   21.7995   24.3095 C.3       3 GLC5        0.0000 
     26 CA          5.9460   22.5930   23.4940 C.3       9 GLL5        0.0000 
     27 CA          7.0115   21.9915   21.8370 C.3       3 GLC5        0.0000 
     28 CA          8.0770   21.3900   20.1800 C.3       6 GLP5        0.0000 
     29 CA          5.9560   23.0175   21.8160 C.3       3 GLC5        0.0000 
     30 CA          5.9660   23.4420   20.1380 C.3       6 GLP5        0.0000 
     31 CA          6.3305   22.5415   25.2655 C.3       3 GLC5        0.0000 
     32 CA          6.7150   22.4900   27.0370 C.3       6 GLP5        0.0000 
     33 CA          8.4785   22.7125   24.5460 C.3       3 GLC5        0.0000 
     34 CA          7.3480   24.4190   23.9670 C.3       9 GLL5        0.0000 
     35 N          15.8480   22.0570   29.2805 N.am      2 SEC2        0.0000 
     36 N          15.0880   23.2610   29.3500 N.am      8 SEL2        0.0000 
     37 N          16.6080   20.8530   29.2110 N.am      5 SEP2        0.0000 
     38 CA         14.1890   22.3560   31.5470 C.3       3 GLC5        0.0000 
     39 CA         12.5740   23.7350   31.0330 C.3       9 GLL5        0.0000 
     40 CA         15.8040   20.9770   32.0610 C.3       6 GLP5        0.0000 
     41 N          11.8870   21.4690   33.1260 N.am      2 SEC2        0.0000 
     42 N          12.8350   22.7760   33.2400 N.am      8 SEL2        0.0000 
     43 N          10.9390   20.1620   33.0120 N.am      5 SEP2        0.0000 
     44 O           9.4245   23.4785   33.4805 O.2       1 ALC1        0.0000 
     45 O          10.3710   24.6190   33.9090 O.2       7 ALL1        0.0000 
     46 O           8.4780   22.3380   33.0520 O.2       4 ALP1        0.0000 
     47 CA         14.4555   22.2435   33.2610 C.3       3 GLC5        0.0000 
     48 CA         13.1070   23.5100   34.4610 C.3       9 GLL5        0.0000 
     49 CA         15.7325   22.4180   33.1490 C.3       3 GLC5        0.0000 
     50 CA         15.6610   23.8590   34.2370 C.3       9 GLL5        0.0000 
     51 N          20.5670   24.4605   34.9755 N.am      2 SEC2        0.0000 
     52 N          19.2510   24.1900   34.7030 N.am      8 SEL2        0.0000 
     53 N          21.8830   24.7310   35.2480 N.am      5 SEP2        0.0000 
     54 CA         16.9165   20.1710   36.6980 C.3       3 GLC5        0.0000 
     55 CA         15.9340   22.0270   36.4140 C.3       9 GLL5        0.0000 
     56 CA         17.8990   18.3150   36.9820 C.3       6 GLP5        0.0000 
     57 CA         15.2340   21.6710   34.0015 C.3       3 GLC5        0.0000 
     58 CA         14.6640   22.3650   35.9420 C.3       9 GLL5        0.0000 
     59 CA         10.1375   24.1490   27.3370 C.3       3 GLC5        0.0000 
     60 CA          8.4240   23.6210   28.4880 C.3       6 GLP5        0.0000 
     61 CA         13.5130   23.6555   25.2990 C.3       3 GLC5        0.0000 
     62 CA         12.0760   25.0070   26.8340 C.3       9 GLL5        0.0000 
     63 CA         15.0490   22.4300   25.3590 C.3       6 GLP5        0.0000 
     64 CA          6.2191   24.0650   22.0763 C.3       3 GLC5        0.0000 
     65 CA          6.2390   25.2170   24.1420 C.3       9 GLL5        0.0000 
     66 CA          6.5936   23.5890   25.5258 C.3       3 GLC5        0.0000 
     67 CA         10.9665   22.0415   30.9585 C.3       3 GLC5        0.0000 
     68 CA          9.6900   20.4640   30.2050 C.3       6 GLP5        0.0000 
     69 CA         10.0450   24.8513   32.2605 C.3       3 GLC5        0.0000 
     70 CA         11.9120   23.5030   32.3910 C.3       9 GLL5        0.0000 
     71 CA          8.3360   25.5720   31.7280 C.3       6 GLP5        0.0000 
     72 CA         11.1880   23.6350   35.3548 C.3       3 GLC5        0.0000 
     73 CA         11.5960   24.7580   33.1950 C.3       9 GLL5        0.0000 
     74 CA          9.7360   23.0840   36.6400 C.3       6 GLP5        0.0000 
     75 CA         17.4450   22.1848   37.6202 C.3       3 GLC5        0.0000 
     76 CA         17.0480   22.6080   35.7870 C.3       9 GLL5        0.0000 
     77 CA         18.3990   22.0520   39.1400 C.3       6 GLP5        0.0000 
     78 CA         16.7761   21.4879   34.2595 C.3       3 GLC5        0.0000 
     79 CA         17.0890   20.4320   32.6880 C.3       6 GLP5        0.0000 
@<TRIPOS>BOND
@<TRIPOS>SUBSTRUCTURE
     1 ALC1       10 GROUP        1 X    ALC  0     ROOT ALC X 1
     2 SEC2        1 GROUP        1 X    SEC  0     **** SEC X 2
     3 GLC5        4 GROUP        1 X    GLC  0     **** GLC X 6
     4 ALP1       12 GROUP        1 Y    ALP  0     ROOT ALP Y 8
     5 SEP2        3 GROUP        1 Y    SEP  0     **** SEP Y 9
     6 GLP5        6 GROUP        1 Y    GLP  0     **** GLP Y 13
     7 ALL1       11 GROUP        1 Z    ALL  0     ROOT ALL Z 15
     8 SEL2        2 GROUP        1 Z    SEL  0     **** SEL Z 16
     9 GLL5        5 GROUP        1 Z    GLL  0     **** GLL Z 20
@<TRIPOS>SET

