#    Name: 1u8f_NAD_1_ligand
#    Modification time : Tue Mar 25 06:14:42 2014

@<TRIPOS>MOLECULE
1u8f_NAD_1_ligand
   70    74     1     0     0
SMALL
NO_CHARGES


@<TRIPOS>ATOM
      1 PA         14.4820   25.8670   27.5720 P.3       1 NAD336      0.0000 
      2 O1A        13.9750   27.2340   27.2850 O.co2     1 NAD336      0.0000 
      3 O2A        15.8530   25.4830   27.1760 O.co2     1 NAD336      0.0000 
      4 O5B        13.4830   24.7470   26.9980 O.3       1 NAD336      0.0000 
      5 C5B        12.0760   25.0070   26.8340 C.3       1 NAD336      0.0000 
      6 C4B        11.6260   24.3470   25.5380 C.3       1 NAD336      0.0000 
      7 O4B        10.1850   24.3520   25.4910 O.3       1 NAD336      0.0000 
      8 C3B        12.1030   25.0850   24.2920 C.3       1 NAD336      0.0000 
      9 O3B        12.8080   24.2330   23.3820 O.3       1 NAD336      0.0000 
     10 C2B        10.8330   25.6870   23.6840 C.3       1 NAD336      0.0000 
     11 O2B        10.8890   25.8670   22.2560 O.3       1 NAD336      0.0000 
     12 C1B         9.7680   24.7140   24.1630 C.3       1 NAD336      0.0000 
     13 N9A         8.3780   25.2240   24.2150 N.pl3     1 NAD336      0.0000 
     14 C8A         7.8920   26.4450   24.5280 C.2       1 NAD336      0.0000 
     15 N7A         6.5520   26.4580   24.4860 N.2       1 NAD336      0.0000 
     16 C5A         6.2390   25.2170   24.1420 C.ar      1 NAD336      0.0000 
     17 C6A         4.9540   24.6970   23.9820 C.ar      1 NAD336      0.0000 
     18 N6A         3.8610   25.4490   24.1220 N.pl3     1 NAD336      0.0000 
     19 N1A         4.8730   23.3810   23.6620 N.ar      1 NAD336      0.0000 
     20 C2A         5.9460   22.5930   23.4940 C.ar      1 NAD336      0.0000 
     21 N3A         7.1740   23.1170   23.6430 N.ar      1 NAD336      0.0000 
     22 C4A         7.3480   24.4190   23.9670 C.ar      1 NAD336      0.0000 
     23 O3         14.3350   25.6350   29.1440 O.3       1 NAD336      0.0000 
     24 PN         14.9550   24.5270   30.1130 P.3       1 NAD336      0.0000 
     25 O1N        16.1190   25.1570   30.7950 O.co2     1 NAD336      0.0000 
     26 O2N        15.0880   23.2610   29.3500 O.co2     1 NAD336      0.0000 
     27 O5D        13.8440   24.3820   31.2300 O.3       1 NAD336      0.0000 
     28 C5D        12.5740   23.7350   31.0330 C.3       1 NAD336      0.0000 
     29 C4D        11.9120   23.5030   32.3910 C.3       1 NAD336      0.0000 
     30 O4D        12.8350   22.7760   33.2400 O.3       1 NAD336      0.0000 
     31 C3D        11.5960   24.7580   33.1950 C.3       1 NAD336      0.0000 
     32 O3D        10.3710   24.6190   33.9090 O.3       1 NAD336      0.0000 
     33 C2D        12.7500   24.9660   34.1610 C.3       1 NAD336      0.0000 
     34 O2D        12.5020   25.8100   35.2850 O.3       1 NAD336      0.0000 
     35 C1D        13.1070   23.5100   34.4610 C.3       1 NAD336      0.0000 
     36 N1N        14.5170   23.2720   34.8630 N.pl3     1 NAD336      0.0000 
     37 C2N        15.6610   23.8590   34.2370 C.ar      1 NAD336      0.0000 
     38 C3N        16.9370   23.5130   34.7090 C.ar      1 NAD336      0.0000 
     39 C7N        18.2140   24.0700   34.0490 C.2       1 NAD336      0.0000 
     40 O7N        19.2510   24.1900   34.7030 O.2       1 NAD336      0.0000 
     41 N7N        18.1210   24.3990   32.7570 N.am      1 NAD336      0.0000 
     42 C4N        17.0480   22.6080   35.7870 C.ar      1 NAD336      0.0000 
     43 C5N        15.9340   22.0270   36.4140 C.ar      1 NAD336      0.0000 
     44 C6N        14.6640   22.3650   35.9420 C.ar      1 NAD336      0.0000 
     45 H          11.8715   26.0728   26.7625 H         1 NAD336      0.0000 
     46 H          11.4934   24.5868   27.6506 H         1 NAD336      0.0000 
     47 H          11.9938   23.3396   25.5041 H         1 NAD336      0.0000 
     48 H          12.7138   25.9180   24.6321 H         1 NAD336      0.0000 
     49 H          10.6588   26.6234   24.2178 H         1 NAD336      0.0000 
     50 H           9.8211   23.8272   23.5343 H         1 NAD336      0.0000 
     51 H           8.4536   27.2209   24.7565 H         1 NAD336      0.0000 
     52 H           4.0141   26.4069   24.3649 H         1 NAD336      0.0000 
     53 H           2.9869   24.9872   23.9714 H         1 NAD336      0.0000 
     54 H           5.8293   21.5895   23.2516 H         1 NAD336      0.0000 
     55 H          12.6887   22.7649   30.5439 H         1 NAD336      0.0000 
     56 H          11.9000   24.3477   30.4298 H         1 NAD336      0.0000 
     57 H          11.0147   22.9317   32.2717 H         1 NAD336      0.0000 
     58 H          11.5789   25.5924   32.5157 H         1 NAD336      0.0000 
     59 H          13.5871   25.3356   33.5301 H         1 NAD336      0.0000 
     60 H          12.4336   23.1551   35.2353 H         1 NAD336      0.0000 
     61 H          15.5408   24.5074   33.4725 H         1 NAD336      0.0000 
     62 H          18.9405   24.7964   32.3440 H         1 NAD336      0.0000 
     63 H          17.2403   24.2183   32.3192 H         1 NAD336      0.0000 
     64 H          18.0020   22.3619   36.1308 H         1 NAD336      0.0000 
     65 H          16.0518   21.3828   37.1848 H         1 NAD336      0.0000 
     66 H          13.8261   21.9590   36.3730 H         1 NAD336      0.0000 
     67 H          12.0998   23.6771   22.9467 H         1 NAD336      0.0000 
     68 H          10.4719   25.0420   21.8747 H         1 NAD336      0.0000 
     69 H          10.0790   23.6775   33.7408 H         1 NAD336      0.0000 
     70 H          11.5434   25.6512   35.5213 H         1 NAD336      0.0000 
@<TRIPOS>BOND
     1    2    1 ar   
     2    3    1 ar   
     3    4    1 1    
     4   23    1 1    
     5    5    4 1    
     6    6    5 1    
     7   45    5 1    
     8   46    5 1    
     9    7    6 1    
    10    8    6 1    
    11   47    6 1    
    12   12    7 1    
    13    9    8 1    
    14   10    8 1    
    15   48    8 1    
    16   67    9 1    
    17   11   10 1    
    18   12   10 1    
    19   49   10 1    
    20   68   11 1    
    21   13   12 1    
    22   50   12 1    
    23   14   13 1    
    24   22   13 1    
    25   15   14 2    
    26   51   14 1    
    27   16   15 1    
    28   17   16 ar   
    29   22   16 ar   
    30   18   17 1    
    31   19   17 ar   
    32   52   18 1    
    33   53   18 1    
    34   20   19 ar   
    35   21   20 ar   
    36   54   20 1    
    37   22   21 ar   
    38   24   23 1    
    39   25   24 ar   
    40   26   24 ar   
    41   27   24 1    
    42   28   27 1    
    43   29   28 1    
    44   55   28 1    
    45   56   28 1    
    46   30   29 1    
    47   31   29 1    
    48   57   29 1    
    49   35   30 1    
    50   32   31 1    
    51   33   31 1    
    52   58   31 1    
    53   69   32 1    
    54   34   33 1    
    55   35   33 1    
    56   59   33 1    
    57   70   34 1    
    58   36   35 1    
    59   60   35 1    
    60   37   36 ar   
    61   44   36 ar   
    62   38   37 ar   
    63   61   37 1    
    64   39   38 1    
    65   42   38 ar   
    66   40   39 2    
    67   41   39 am   
    68   62   41 1    
    69   63   41 1    
    70   43   42 ar   
    71   64   42 1    
    72   44   43 ar   
    73   65   43 1    
    74   66   44 1    
@<TRIPOS>SUBSTRUCTURE
     1 NAD336      1 GROUP   
@<TRIPOS>SET

