#    Name: 2hh5_GNQ_1_INTS_M
#    Modification time : Tue Mar 25 16:21:00 2014

@<TRIPOS>MOLECULE
2hh5_GNQ_1_INTS_M
   88     0     9     0     0
SMALL
NO_CHARGES


@<TRIPOS>ATOM
      1 CA          7.5385   13.3665  -30.5370 C.3       3 GLC5        0.0000 
      2 CA          8.6650   12.0890  -29.6140 C.3       9 GLL5        0.0000 
      3 CA          6.4120   14.6440  -31.4600 C.3       6 GLP5        0.0000 
      4 CA         10.2715   11.0995  -32.4985 C.3       3 GLC5        0.0000 
      5 CA          8.2910   11.1490  -31.9240 C.3       9 GLL5        0.0000 
      6 CA         12.2520   11.0500  -33.0730 C.3       6 GLP5        0.0000 
      7 CA         12.6715   12.2475  -26.9145 C.3       3 GLC5        0.0000 
      8 CA         10.6960   12.1700  -27.7960 C.3       9 GLL5        0.0000 
      9 CA         14.6470   12.3250  -26.0330 C.3       6 GLP5        0.0000 
     10 CA         11.9350   13.7765  -28.6870 C.3       3 GLC5        0.0000 
     11 CA         13.1740   15.3830  -29.5780 C.3       6 GLP5        0.0000 
     12 CA         11.7850   10.4425  -27.1645 C.3       3 GLC5        0.0000 
     13 CA         12.8740    8.7150  -26.5330 C.3       6 GLP5        0.0000 
     14 O           9.4370   14.3565  -27.8610 O.2       1 ALC1        0.0000 
     15 O           9.0110   13.6250  -26.6430 O.2       7 ALL1        0.0000 
     16 O           9.8630   15.0880  -29.0790 O.2       4 ALP1        0.0000 
     17 CA          5.9615   18.5695  -23.9985 C.3       3 GLC5        0.0000 
     18 CA          6.1740   16.7240  -24.4540 C.3       9 GLL5        0.0000 
     19 CA          5.7490   20.4150  -23.5430 C.3       6 GLP5        0.0000 
     20 N          11.0300   15.5320  -26.4475 N.am      2 SEC2        0.0000 
     21 N          11.7130   14.2240  -25.8470 N.am      8 SEL2        0.0000 
     22 N          10.3470   16.8400  -27.0480 N.am      5 SEP2        0.0000 
     23 O          11.1535   11.0790  -24.6105 O.2       1 ALC1        0.0000 
     24 O          11.4220   12.4900  -24.4180 O.2       7 ALL1        0.0000 
     25 O          10.8850    9.6680  -24.8030 O.2       4 ALP1        0.0000 
     26 CA         13.1695   14.0485  -20.9580 C.3       3 GLC5        0.0000 
     27 CA         11.8940   14.0670  -22.5930 C.3       9 GLL5        0.0000 
     28 CA         14.4450   14.0300  -19.3230 C.3       6 GLP5        0.0000 
     29 CA         11.3280   15.5145  -23.6375 C.3       3 GLC5        0.0000 
     30 CA         10.7620   16.9620  -24.6820 C.3       6 GLP5        0.0000 
     31 CA         12.1020   11.2885  -20.7245 C.3       3 GLC5        0.0000 
     32 CA         12.7380   11.7820  -22.4900 C.3       9 GLL5        0.0000 
     33 CA         11.4660   10.7950  -18.9590 C.3       6 GLP5        0.0000 
     34 CA         13.5915   12.9060  -20.9065 C.3       3 GLC5        0.0000 
     35 CA         10.6215    8.0185  -23.2850 C.3       3 GLC5        0.0000 
     36 CA         12.4540    8.3870  -22.3400 C.3       9 GLL5        0.0000 
     37 CA          8.7890    7.6500  -24.2300 C.3       6 GLP5        0.0000 
     38 CA         12.8675   10.1595  -20.1270 C.3       3 GLC5        0.0000 
     39 CA         14.2690    9.5240  -21.2950 C.3       9 GLL5        0.0000 
     40 CA         13.2890    9.3460  -19.0530 C.3       3 GLC5        0.0000 
     41 CA         14.4330    8.4320  -20.4150 C.3       9 GLL5        0.0000 
     42 CA         12.1450   10.2600  -17.6910 C.3       6 GLP5        0.0000 
     43 CA         15.7035    8.0725  -17.2355 C.3       3 GLC5        0.0000 
     44 CA         15.2170    6.7340  -18.1580 C.3       9 GLL5        0.0000 
     45 CA         16.1900    9.4110  -16.3130 C.3       6 GLP5        0.0000 
     46 CA         16.6330    3.8205  -18.1100 C.3       3 GLC5        0.0000 
     47 CA         14.7690    4.5870  -18.5110 C.3       9 GLL5        0.0000 
     48 CA         18.4970    3.0540  -17.7090 C.3       6 GLP5        0.0000 
     49 CA         14.9805    5.2450  -21.8855 C.3       3 GLC5        0.0000 
     50 CA         15.8300    5.6580  -19.9530 C.3       9 GLL5        0.0000 
     51 CA         14.1310    4.8320  -23.8180 C.3       6 GLP5        0.0000 
     52 CA         16.6515    4.4735  -21.6230 C.3       3 GLC5        0.0000 
     53 CA         17.4730    3.2890  -23.2930 C.3       6 GLP5        0.0000 
     54 CA         17.1635    4.3560  -18.8310 C.3       3 GLC5        0.0000 
     55 CA          7.4213    9.3470  -30.2563 C.3       3 GLC5        0.0000 
     56 CA          7.8050   11.3900  -30.6450 C.3       9 GLL5        0.0000 
     57 CA          7.6760    7.5130  -30.0280 C.3       6 GLP5        0.0000 
     58 CA          6.8175    8.8575  -30.9587 C.3       3 GLC5        0.0000 
     59 CA          5.7220   10.3170  -31.2540 C.3       9 GLL5        0.0000 
     60 CA          6.9923    9.0375  -33.9177 C.3       3 GLC5        0.0000 
     61 CA          6.1960   10.0870  -32.5250 C.3       9 GLL5        0.0000 
     62 CA          7.1450    7.7810  -35.1430 C.3       6 GLP5        0.0000 
     63 CA          7.7815    9.1690  -31.2100 C.3       3 GLC5        0.0000 
     64 CA          7.4830   10.5010  -32.8600 C.3       9 GLL5        0.0000 
     65 CA          8.3530   16.8567  -27.5890 C.3       3 GLC5        0.0000 
     66 CA          6.9730   15.6330  -26.9800 C.3       9 GLL5        0.0000 
     67 CA          9.8840   17.3490  -28.3380 C.3       6 GLP5        0.0000 
     68 CA          6.1035   16.5448  -28.4125 C.3       3 GLC5        0.0000 
     69 CA          6.6710   17.0960  -26.7000 C.3       9 GLL5        0.0000 
     70 CA          5.3850   16.7250  -29.9850 C.3       6 GLP5        0.0000 
     71 CA         13.7342   14.7272  -22.6108 C.3       3 GLC5        0.0000 
     72 CA         15.3060   15.9630  -22.2020 C.3       6 GLP5        0.0000 
     73 CA         13.6157   12.3370  -24.5005 C.3       3 GLC5        0.0000 
     74 CA         12.4310   12.9160  -23.4460 C.3       9 GLL5        0.0000 
     75 CA         11.7135    9.3463  -20.8365 C.3       3 GLC5        0.0000 
     76 CA         13.2820    9.4860  -22.2900 C.3       9 GLL5        0.0000 
     77 CA         10.5590    9.7560  -19.3580 C.3       6 GLP5        0.0000 
     78 CA         11.8315    8.5375  -20.1738 C.3       3 GLC5        0.0000 
     79 CA         12.6200    7.3160  -21.4730 C.3       9 GLL5        0.0000 
     80 CA         12.2200    5.4990  -20.6297 C.3       3 GLC5        0.0000 
     81 CA         11.3360    3.6790  -20.2700 C.3       6 GLP5        0.0000 
     82 CA         13.2050    7.9511  -23.7660 C.3       3 GLC5        0.0000 
     83 CA         13.6660    7.7760  -25.6380 C.3       6 GLP5        0.0000 
     84 CA         13.5968    6.2094  -22.5121 C.3       3 GLC5        0.0000 
     85 CA         13.0835    4.4352  -19.5243 C.3       3 GLC5        0.0000 
     86 CA         14.8930    5.7960  -19.0460 C.3       9 GLL5        0.0000 
     87 CA         16.7578    6.3613  -20.4228 C.3       3 GLC5        0.0000 
     88 CA         18.0730    6.7610  -21.5680 C.3       6 GLP5        0.0000 
@<TRIPOS>BOND
@<TRIPOS>SUBSTRUCTURE
     1 ALC1       14 GROUP        1 X    ALC  0     ROOT ALC X 1
     2 SEC2       20 GROUP        1 X    SEC  0     **** SEC X 2
     3 GLC5        1 GROUP        1 X    GLC  0     **** GLC X 6
     4 ALP1       16 GROUP        1 Y    ALP  0     ROOT ALP Y 8
     5 SEP2       22 GROUP        1 Y    SEP  0     **** SEP Y 9
     6 GLP5        3 GROUP        1 Y    GLP  0     **** GLP Y 13
     7 ALL1       15 GROUP        1 Z    ALL  0     ROOT ALL Z 15
     8 SEL2       21 GROUP        1 Z    SEL  0     **** SEL Z 16
     9 GLL5        2 GROUP        1 Z    GLL  0     **** GLL Z 20
@<TRIPOS>SET

