#    Name: 2hh5_GNQ_1_ligand
#    Modification time : Tue Mar 25 16:21:00 2014

@<TRIPOS>MOLECULE
2hh5_GNQ_1_ligand
   69    71     1     0     0
SMALL
NO_CHARGES


@<TRIPOS>ATOM
      1 O5         10.6850   10.4800  -29.6620 O.2       1 GNQ401      0.0000 
      2 S           9.7580   11.1160  -28.7280 S.o2      1 GNQ401      0.0000 
      3 O4          9.0390   10.1590  -27.9620 O.2       1 GNQ401      0.0000 
      4 C17         8.6650   12.0890  -29.6140 C.3       1 GNQ401      0.0000 
      5 C18         7.8050   11.3900  -30.6450 C.ar      1 GNQ401      0.0000 
      6 C20         6.5280   10.9720  -30.3240 C.ar      1 GNQ401      0.0000 
      7 C21         5.7220   10.3170  -31.2540 C.ar      1 GNQ401      0.0000 
      8 C22         6.1960   10.0870  -32.5250 C.ar      1 GNQ401      0.0000 
      9 C23         7.4830   10.5010  -32.8600 C.ar      1 GNQ401      0.0000 
     10 C19         8.2910   11.1490  -31.9240 C.ar      1 GNQ401      0.0000 
     11 C16        10.6960   12.1700  -27.7960 C.3       1 GNQ401      0.0000 
     12 CA         10.0680   12.6080  -26.4490 C.3       1 GNQ401      0.0000 
     13 N           9.0110   13.6250  -26.6430 N.am      1 GNQ401      0.0000 
     14 C11         8.2090   13.9720  -25.6100 C.2       1 GNQ401      0.0000 
     15 O3          8.3080   13.4050  -24.4980 O.2       1 GNQ401      0.0000 
     16 N3          7.2650   14.9260  -25.7310 N.am      1 GNQ401      0.0000 
     17 C15         6.4100   15.2240  -24.5490 C.3       1 GNQ401      0.0000 
     18 C14         6.1740   16.7240  -24.4540 C.3       1 GNQ401      0.0000 
     19 O2          5.6520   17.1340  -25.7230 O.3       1 GNQ401      0.0000 
     20 C13         6.6710   17.0960  -26.7000 C.3       1 GNQ401      0.0000 
     21 C12         6.9730   15.6330  -26.9800 C.3       1 GNQ401      0.0000 
     22 C          11.1540   13.1640  -25.5620 C.2       1 GNQ401      0.0000 
     23 O          11.7130   14.2240  -25.8470 O.2       1 GNQ401      0.0000 
     24 N2         11.4220   12.4900  -24.4180 N.am      1 GNQ401      0.0000 
     25 C9         12.4310   12.9160  -23.4460 C.3       1 GNQ401      0.0000 
     26 C10        11.8940   14.0670  -22.5930 C.3       1 GNQ401      0.0000 
     27 C8         12.7380   11.7820  -22.4900 C.3       1 GNQ401      0.0000 
     28 N1         13.0670   10.5150  -23.1680 N.pl3     1 GNQ401      0.0000 
     29 C7         13.2820    9.4860  -22.2900 C.ar      1 GNQ401      0.0000 
     30 C6         12.4540    8.3870  -22.3400 C.ar      1 GNQ401      0.0000 
     31 C5         12.6200    7.3160  -21.4730 C.ar      1 GNQ401      0.0000 
     32 C4         14.2690    9.5240  -21.2950 C.ar      1 GNQ401      0.0000 
     33 C3         14.4330    8.4320  -20.4150 C.ar      1 GNQ401      0.0000 
     34 C2         13.5880    7.3220  -20.5060 C.ar      1 GNQ401      0.0000 
     35 O1         13.6760    6.2230  -19.6450 O.3       1 GNQ401      0.0000 
     36 C1         14.8930    5.7960  -19.0460 C.3       1 GNQ401      0.0000 
     37 F1         15.2170    6.7340  -18.1580 F         1 GNQ401      0.0000 
     38 F2         14.7690    4.5870  -18.5110 F         1 GNQ401      0.0000 
     39 F3         15.8300    5.6580  -19.9530 F         1 GNQ401      0.0000 
     40 H           9.3016   12.8631  -30.0699 H         1 GNQ401      0.0000 
     41 H           8.0561   12.5830  -28.8410 H         1 GNQ401      0.0000 
     42 H           6.1550   11.1471  -29.3699 H         1 GNQ401      0.0000 
     43 H           4.7787   10.0104  -30.9833 H         1 GNQ401      0.0000 
     44 H           5.6127    9.6154  -33.2253 H         1 GNQ401      0.0000 
     45 H           7.8449   10.3273  -33.8111 H         1 GNQ401      0.0000 
     46 H           9.2383   11.4445  -32.1823 H         1 GNQ401      0.0000 
     47 H          10.8825   13.0336  -28.4366 H         1 GNQ401      0.0000 
     48 H          11.6405   11.6482  -27.6327 H         1 GNQ401      0.0000 
     49 H           9.6564   11.7276  -25.9759 H         1 GNQ401      0.0000 
     50 H           8.9320   14.0316  -27.5763 H         1 GNQ401      0.0000 
     51 H           6.8980   14.8851  -23.6366 H         1 GNQ401      0.0000 
     52 H           5.4490   14.7209  -24.6433 H         1 GNQ401      0.0000 
     53 H           7.1195   17.2032  -24.2318 H         1 GNQ401      0.0000 
     54 H           5.4721   16.9072  -23.6498 H         1 GNQ401      0.0000 
     55 H           7.5903   17.5683  -26.3571 H         1 GNQ401      0.0000 
     56 H           6.3638   17.5599  -27.6360 H         1 GNQ401      0.0000 
     57 H           6.1072   15.1898  -27.4823 H         1 GNQ401      0.0000 
     58 H           7.8263   15.5794  -27.6637 H         1 GNQ401      0.0000 
     59 H          10.9039   11.6117  -24.1748 H         1 GNQ401      0.0000 
     60 H          13.3290   13.2287  -23.9160 H         1 GNQ401      0.0000 
     61 H          11.8645   11.6398  -21.8239 H         1 GNQ401      0.0000 
     62 H          13.5778   12.0920  -21.8377 H         1 GNQ401      0.0000 
     63 H          11.6856    8.3541  -23.0414 H         1 GNQ401      0.0000 
     64 H          11.9881    6.4916  -21.5676 H         1 GNQ401      0.0000 
     65 H          14.8752   10.3444  -21.2025 H         1 GNQ401      0.0000 
     66 H          15.1759    8.4592  -19.7093 H         1 GNQ401      0.0000 
     67 H          12.5675   14.3779  -21.9224 H         1 GNQ401      0.0000 
     68 H          11.6485   14.8597  -23.1510 H         1 GNQ401      0.0000 
     69 H          11.0749   13.8016  -22.0844 H         1 GNQ401      0.0000 
@<TRIPOS>BOND
     1    2    1 2    
     2    3    2 2    
     3    4    2 1    
     4   11    2 1    
     5    5    4 1    
     6   40    4 1    
     7   41    4 1    
     8    6    5 ar   
     9   10    5 ar   
    10    7    6 ar   
    11   42    6 1    
    12    8    7 ar   
    13   43    7 1    
    14    9    8 ar   
    15   44    8 1    
    16   10    9 ar   
    17   45    9 1    
    18   46   10 1    
    19   12   11 1    
    20   47   11 1    
    21   48   11 1    
    22   13   12 1    
    23   22   12 1    
    24   49   12 1    
    25   14   13 am   
    26   50   13 1    
    27   15   14 2    
    28   16   14 am   
    29   17   16 1    
    30   21   16 1    
    31   18   17 1    
    32   51   17 1    
    33   52   17 1    
    34   19   18 1    
    35   53   18 1    
    36   54   18 1    
    37   20   19 1    
    38   21   20 1    
    39   55   20 1    
    40   56   20 1    
    41   57   21 1    
    42   58   21 1    
    43   23   22 2    
    44   24   22 am   
    45   25   24 1    
    46   59   24 1    
    47   26   25 1    
    48   27   25 1    
    49   60   25 1    
    50   67   26 1    
    51   68   26 1    
    52   69   26 1    
    53   28   27 1    
    54   61   27 1    
    55   62   27 1    
    56   29   28 1    
    57   30   29 ar   
    58   32   29 ar   
    59   31   30 ar   
    60   63   30 1    
    61   34   31 ar   
    62   64   31 1    
    63   33   32 ar   
    64   65   32 1    
    65   34   33 ar   
    66   66   33 1    
    67   35   34 1    
    68   36   35 1    
    69   37   36 1    
    70   38   36 1    
    71   39   36 1    
@<TRIPOS>SUBSTRUCTURE
     1 GNQ401      1 GROUP   
@<TRIPOS>SET

