#    Name: 3hf6_LX0_1_INTS_M
#    Modification time : Tue Mar 25 14:14:02 2014

@<TRIPOS>MOLECULE
3hf6_LX0_1_INTS_M
   71     0    12     0     0
SMALL
NO_CHARGES


@<TRIPOS>ATOM
      1 N          16.1910    7.2200   18.4900 N.am      2 SEC2        0.0000 
      2 N          15.7660    5.8280   19.3850 N.am     10 SEL2        0.0000 
      3 N          16.6160    8.6120   17.5950 N.am      6 SEP2        0.0000 
      4 N          15.5720    6.7205   20.4565 N.am      2 SEC2        0.0000 
      5 N          15.3780    7.6130   21.5280 N.am      6 SEP2        0.0000 
      6 NZ         15.2120    6.6480   16.7075 N.4       3 LYC4        0.0000 
      7 NZ         15.4650    5.3890   17.2530 N.4      11 LYL4        0.0000 
      8 NZ         15.5810    8.8880   16.8010 N.4       7 LYP4        0.0000 
      9 N          15.2120    6.6480   16.7075 N.am      2 SEC2        0.0000 
     10 N          15.4650    5.3890   17.2530 N.am     10 SEL2        0.0000 
     11 N          14.9590    7.9070   16.1620 N.am      6 SEP2        0.0000 
     12 N          16.0405    7.0005   17.4240 N.am      2 SEC2        0.0000 
     13 N          15.5465    4.6205   16.1810 N.am      2 SEC2        0.0000 
     14 N          15.6280    3.8520   15.1090 N.am      6 SEP2        0.0000 
     15 O          13.7510    4.8475   20.7705 O.2       1 ALC1        0.0000 
     16 O          14.4200    3.7060   20.2280 O.2       9 ALL1        0.0000 
     17 O          13.0820    5.9890   21.3130 O.2       5 ALP1        0.0000 
     18 CA         13.1380    6.6320   19.0750 C.3       4 GLC5        0.0000 
     19 CA         12.8890    4.5660   18.5400 C.3      12 GLL5        0.0000 
     20 CA         13.3870    8.6980   19.6100 C.3       8 GLP5        0.0000 
     21 CA         11.0920    4.7820   21.5955 C.3       4 GLC5        0.0000 
     22 CA         10.8560    3.7370   19.7670 C.3      12 GLL5        0.0000 
     23 CA         11.3280    5.8270   23.4240 C.3       8 GLP5        0.0000 
     24 CA          9.8965    5.5530   20.3095 C.3       4 GLC5        0.0000 
     25 CA          8.9370    7.3690   20.8520 C.3       8 GLP5        0.0000 
     26 CA         10.9870   -0.4765   17.6045 C.3       4 GLC5        0.0000 
     27 CA         10.6960    1.4780   18.1290 C.3      12 GLL5        0.0000 
     28 CA         11.2780   -2.4310   17.0800 C.3       8 GLP5        0.0000 
     29 CA         13.3205    1.2700   17.2860 C.3       4 GLC5        0.0000 
     30 CA         11.7110    2.4150   17.9330 C.3      12 GLL5        0.0000 
     31 CA         14.9300    0.1250   16.6390 C.3       8 GLP5        0.0000 
     32 CA          9.4285   -1.8725   17.9165 C.3       4 GLC5        0.0000 
     33 CA          7.5790   -1.3140   18.7530 C.3      12 GLL5        0.0000 
     34 O           8.4295   -2.3760   16.8805 O.2       1 ALC1        0.0000 
     35 O           7.5430   -2.4350   17.9930 O.2       9 ALL1        0.0000 
     36 O           9.3160   -2.3170   15.7680 O.2       5 ALP1        0.0000 
     37 CA          2.8030    1.4265   22.4385 C.3       4 GLC5        0.0000 
     38 CA          4.7050    1.3810   23.2870 C.3      12 GLL5        0.0000 
     39 CA          0.9010    1.4720   21.5900 C.3       8 GLP5        0.0000 
     40 CA          5.6115    5.3690   18.1855 C.3       4 GLC5        0.0000 
     41 CA          3.8710    5.8840   18.7630 C.3      12 GLL5        0.0000 
     42 CA          7.3520    4.8540   17.6080 C.3       8 GLP5        0.0000 
     43 CA         10.8102    5.1362   17.9402 C.3       4 GLC5        0.0000 
     44 CA         11.8000    3.5370   18.7530 C.3      12 GLL5        0.0000 
     45 CA          9.2760    6.2210   17.2340 C.3       8 GLP5        0.0000 
     46 CA         12.2317    3.9848   16.4853 C.3       4 GLC5        0.0000 
     47 CA         12.1190    3.9180   14.3240 C.3       8 GLP5        0.0000 
     48 CA          8.9044    3.9372   19.2285 C.3       4 GLC5        0.0000 
     49 CA          7.7550    5.4060   18.9510 C.3       8 GLP5        0.0000 
     50 CA          9.8552    3.4722   17.3755 C.3       4 GLC5        0.0000 
     51 CA          8.5070    4.9980   16.7200 C.3       8 GLP5        0.0000 
     52 CA         11.0602    2.6242   16.1310 C.3       4 GLC5        0.0000 
     53 CA         10.9170    3.3020   14.2310 C.3       8 GLP5        0.0000 
     54 CA          6.3768    0.3228   23.7975 C.3       4 GLC5        0.0000 
     55 CA          5.6300    1.5680   22.0790 C.3      12 GLL5        0.0000 
     56 CA          7.5860   -0.8290   24.9120 C.3       8 GLP5        0.0000 
     57 CA          6.4597    4.3788   20.2165 C.3       4 GLC5        0.0000 
     58 CA          5.1680    2.7030   21.2220 C.3      12 GLL5        0.0000 
     59 CA          5.9455    3.9288   18.5450 C.3       4 GLC5        0.0000 
     60 CA          4.7550    2.4880   19.8990 C.3      12 GLL5        0.0000 
     61 CA          2.3397    4.6275   19.0787 C.3       4 GLC5        0.0000 
     62 CA          4.3230    3.5190   19.0650 C.3      12 GLL5        0.0000 
     63 CA          0.3710    5.0860   18.8480 C.3       8 GLP5        0.0000 
     64 CA          2.4370    7.3960   17.9623 C.3       4 GLC5        0.0000 
     65 CA          1.0080    8.2650   16.8920 C.3       8 GLP5        0.0000 
     66 CA          2.1185    5.8065   18.9402 C.3       4 GLC5        0.0000 
     67 CA          3.8610    7.1700   19.3020 C.3      12 GLL5        0.0000 
     68 CA          5.8027    7.9966   20.4327 C.3       4 GLC5        0.0000 
     69 CA          7.2180    9.1670   20.1600 C.3       8 GLP5        0.0000 
     70 CA          6.0469    5.9383   19.6789 C.3       4 GLC5        0.0000 
     71 CA          4.7080    6.3660   21.4490 C.3      12 GLL5        0.0000 
@<TRIPOS>BOND
@<TRIPOS>SUBSTRUCTURE
     1 ALC1       15 GROUP        1 X    ALC  0     ROOT ALC X 1
     2 SEC2        1 GROUP        1 X    SEC  0     **** SEC X 2
     3 LYC4        6 GROUP        1 X    LYC  0     **** LYC X 4
     4 GLC5       18 GROUP        1 X    GLC  0     **** GLC X 6
     5 ALP1       17 GROUP        1 Y    ALP  0     ROOT ALP Y 8
     6 SEP2        3 GROUP        1 Y    SEP  0     **** SEP Y 9
     7 LYP4        8 GROUP        1 Y    LYP  0     **** LYP Y 11
     8 GLP5       20 GROUP        1 Y    GLP  0     **** GLP Y 13
     9 ALL1       16 GROUP        1 Z    ALL  0     ROOT ALL Z 15
    10 SEL2        2 GROUP        1 Z    SEL  0     **** SEL Z 16
    11 LYL4        7 GROUP        1 Z    LYL  0     **** LYL Z 18
    12 GLL5       19 GROUP        1 Z    GLL  0     **** GLL Z 20
@<TRIPOS>SET

