#    Name: 3hf6_LX0_1_ligand
#    Modification time : Tue Mar 25 14:14:02 2014

@<TRIPOS>MOLECULE
3hf6_LX0_1_ligand
   56    59     1     0     0
SMALL
NO_CHARGES


@<TRIPOS>ATOM
      1 O3         15.7660    5.8280   19.3850 O.co2     1 LX0401      0.0000 
      2 C1         15.2430    5.1580   18.4630 C.2       1 LX0401      0.0000 
      3 O2         15.4650    5.3890   17.2530 O.co2     1 LX0401      0.0000 
      4 C4         14.2970    4.0460   18.8170 C.3       1 LX0401      0.0000 
      5 N5         14.4200    3.7060   20.2280 N.4       1 LX0401      0.0000 
      6 C6         12.8890    4.5660   18.5400 C.3       1 LX0401      0.0000 
      7 C7         11.8000    3.5370   18.7530 C.ar      1 LX0401      0.0000 
      8 C12        10.8560    3.7370   19.7670 C.ar      1 LX0401      0.0000 
      9 C11         9.8390    2.8030   19.9610 C.ar      1 LX0401      0.0000 
     10 C10         9.7600    1.6670   19.1480 C.ar      1 LX0401      0.0000 
     11 C9         10.6960    1.4780   18.1290 C.ar      1 LX0401      0.0000 
     12 C8         11.7110    2.4150   17.9330 C.ar      1 LX0401      0.0000 
     13 C13         8.6600    0.6830   19.3470 C.ar      1 LX0401      0.0000 
     14 N18         7.6950    0.9280   20.2640 N.ar      1 LX0401      0.0000 
     15 C17         6.6770    0.0520   20.4350 C.ar      1 LX0401      0.0000 
     16 N16         6.6160   -1.0690   19.6780 N.ar      1 LX0401      0.0000 
     17 C15         7.5790   -1.3140   18.7530 C.ar      1 LX0401      0.0000 
     18 N19         7.5430   -2.4350   17.9930 N.pl3     1 LX0401      0.0000 
     19 N14         8.5910   -0.4340   18.5890 N.ar      1 LX0401      0.0000 
     20 N20         5.7140    0.3000   21.3590 N.pl3     1 LX0401      0.0000 
     21 C21         5.6300    1.5680   22.0790 C.3       1 LX0401      0.0000 
     22 C22         4.7050    1.3810   23.2870 C.3       1 LX0401      0.0000 
     23 C23         5.1680    2.7030   21.2220 C.ar      1 LX0401      0.0000 
     24 C28         4.7550    2.4880   19.8990 C.ar      1 LX0401      0.0000 
     25 C27         4.3230    3.5190   19.0650 C.ar      1 LX0401      0.0000 
     26 C26         4.2940    4.8190   19.5540 C.ar      1 LX0401      0.0000 
     27 C32         3.8710    5.8840   18.7630 C.ar      1 LX0401      0.0000 
     28 C31         3.8610    7.1700   19.3020 C.ar      1 LX0401      0.0000 
     29 C30         4.2730    7.4030   20.6220 C.ar      1 LX0401      0.0000 
     30 C29         4.7080    6.3660   21.4490 C.ar      1 LX0401      0.0000 
     31 C25         4.7330    5.0680   20.9550 C.ar      1 LX0401      0.0000 
     32 C24         5.1610    4.0000   21.7420 C.ar      1 LX0401      0.0000 
     33 H          14.4789    3.2098   18.1891 H         1 LX0401      0.0000 
     34 H          12.8449    4.9320   17.4991 H         1 LX0401      0.0000 
     35 H          12.6985    5.4372   19.1913 H         1 LX0401      0.0000 
     36 H          10.9142    4.5680   20.3637 H         1 LX0401      0.0000 
     37 H           9.1432    2.9477   20.7040 H         1 LX0401      0.0000 
     38 H          10.6368    0.6504   17.5251 H         1 LX0401      0.0000 
     39 H          12.3969    2.2752   17.1782 H         1 LX0401      0.0000 
     40 H           6.7759   -3.0547   18.1591 H         1 LX0401      0.0000 
     41 H           8.2867   -2.5434   17.3333 H         1 LX0401      0.0000 
     42 H           4.9909   -0.4096   21.5932 H         1 LX0401      0.0000 
     43 H           6.6217    1.8158   22.4855 H         1 LX0401      0.0000 
     44 H           4.7729    1.5118   19.5250 H         1 LX0401      0.0000 
     45 H           4.0318    3.3180   18.1060 H         1 LX0401      0.0000 
     46 H           3.5713    5.7260   17.7990 H         1 LX0401      0.0000 
     47 H           3.5460    7.9651   18.7231 H         1 LX0401      0.0000 
     48 H           4.2530    8.3726   20.9911 H         1 LX0401      0.0000 
     49 H           5.0044    6.5629   22.4077 H         1 LX0401      0.0000 
     50 H           5.4725    4.1654   22.7074 H         1 LX0401      0.0000 
     51 H          15.3452    3.4043   20.4580 H         1 LX0401      0.0000 
     52 H          14.2110    4.4862   20.8176 H         1 LX0401      0.0000 
     53 H          13.7978    2.9674   20.4877 H         1 LX0401      0.0000 
     54 H           5.0468    0.6785   23.9113 H         1 LX0401      0.0000 
     55 H           4.6114    2.2238   23.8171 H         1 LX0401      0.0000 
     56 H           3.7845    1.1048   23.0107 H         1 LX0401      0.0000 
@<TRIPOS>BOND
     1    2    1 ar   
     2    3    2 ar   
     3    4    2 1    
     4    5    4 1    
     5    6    4 1    
     6   33    4 1    
     7   51    5 1    
     8   52    5 1    
     9   53    5 1    
    10    7    6 1    
    11   34    6 1    
    12   35    6 1    
    13    8    7 ar   
    14   12    7 ar   
    15    9    8 ar   
    16   36    8 1    
    17   10    9 ar   
    18   37    9 1    
    19   11   10 ar   
    20   13   10 1    
    21   12   11 ar   
    22   38   11 1    
    23   39   12 1    
    24   14   13 ar   
    25   19   13 ar   
    26   15   14 ar   
    27   16   15 ar   
    28   20   15 1    
    29   17   16 ar   
    30   18   17 1    
    31   19   17 ar   
    32   40   18 1    
    33   41   18 1    
    34   21   20 1    
    35   42   20 1    
    36   22   21 1    
    37   23   21 1    
    38   43   21 1    
    39   54   22 1    
    40   55   22 1    
    41   56   22 1    
    42   24   23 ar   
    43   32   23 ar   
    44   25   24 ar   
    45   44   24 1    
    46   26   25 ar   
    47   45   25 1    
    48   27   26 ar   
    49   31   26 ar   
    50   28   27 ar   
    51   46   27 1    
    52   29   28 ar   
    53   47   28 1    
    54   30   29 ar   
    55   48   29 1    
    56   31   30 ar   
    57   49   30 1    
    58   32   31 ar   
    59   50   32 1    
@<TRIPOS>SUBSTRUCTURE
     1 LX0401      1 GROUP   
@<TRIPOS>SET

