#    Name: 3idp_L1E_2_INTS_M
#    Modification time : Tue Mar 25 16:19:35 2014

@<TRIPOS>MOLECULE
3idp_L1E_2_INTS_M
   91     0     9     0     0
SMALL
NO_CHARGES


@<TRIPOS>ATOM
      1 CA         23.7015   39.7835   41.1730 C.3       3 GLC5        0.0000 
      2 CA         24.2920   38.8990   39.7170 C.3       9 GLL5        0.0000 
      3 CA         23.1110   40.6680   42.6290 C.3       6 GLP5        0.0000 
      4 CA         23.2205   38.4045   38.1100 C.3       3 GLC5        0.0000 
      5 CA         22.1490   37.9100   36.5030 C.3       6 GLP5        0.0000 
      6 CA         23.4400   37.3780   41.0215 C.3       3 GLC5        0.0000 
      7 CA         22.5880   35.8570   42.3260 C.3       6 GLP5        0.0000 
      8 CA         29.2170   42.1615   41.2550 C.3       3 GLC5        0.0000 
      9 CA         27.8340   42.0940   39.4910 C.3       9 GLL5        0.0000 
     10 CA         30.6000   42.2290   43.0190 C.3       6 GLP5        0.0000 
     11 CA         26.8650   45.4435   40.4305 C.3       3 GLC5        0.0000 
     12 CA         27.3430   44.4120   39.0390 C.3       9 GLL5        0.0000 
     13 CA         26.3870   46.4750   41.8220 C.3       6 GLP5        0.0000 
     14 CA         27.5775   44.5470   37.0155 C.3       3 GLC5        0.0000 
     15 CA         27.8120   44.6820   34.9920 C.3       6 GLP5        0.0000 
     16 CA         22.0430   47.0490   38.1165 C.3       3 GLC5        0.0000 
     17 CA         21.4560   45.2890   37.5460 C.3       9 GLL5        0.0000 
     18 CA         22.6300   48.8090   38.6870 C.3       6 GLP5        0.0000 
     19 CA         19.5125   45.5165   36.7035 C.3       3 GLC5        0.0000 
     20 CA         17.5690   45.7440   35.8610 C.3       6 GLP5        0.0000 
     21 CA         24.4295   44.1640   41.9460 C.3       3 GLC5        0.0000 
     22 CA         22.4530   44.1200   41.0060 C.3       9 GLL5        0.0000 
     23 CA         26.4060   44.2080   42.8860 C.3       6 GLP5        0.0000 
     24 CA         22.7820   42.3940   41.8175 C.3       3 GLC5        0.0000 
     25 CA         21.9625   44.1755   43.0040 C.3       3 GLC5        0.0000 
     26 CA         21.4720   44.2310   45.0020 C.3       6 GLP5        0.0000 
     27 CA         23.8535   42.7515   33.3000 C.3       3 GLC5        0.0000 
     28 CA         24.0500   43.1760   35.0940 C.3       9 GLL5        0.0000 
     29 CA         23.6570   42.3270   31.5060 C.3       6 GLP5        0.0000 
     30 CA         24.7230   44.3740   33.6560 C.3       3 GLC5        0.0000 
     31 CA         25.3960   45.5720   32.2180 C.3       6 GLP5        0.0000 
     32 CA         23.8495   45.1390   33.7820 C.3       3 GLC5        0.0000 
     33 CA         22.3030   44.7060   35.3460 C.3       9 GLL5        0.0000 
     34 CA         18.5325   43.8385   28.0030 C.3       3 GLC5        0.0000 
     35 CA         19.4520   45.0050   29.3080 C.3       9 GLL5        0.0000 
     36 CA         17.6130   42.6720   26.6980 C.3       6 GLP5        0.0000 
     37 CA         18.4865   45.9910   27.5650 C.3       3 GLC5        0.0000 
     38 CA         17.5210   46.9770   25.8220 C.3       6 GLP5        0.0000 
     39 CA         19.8600   47.8725   34.0200 C.3       3 GLC5        0.0000 
     40 CA         20.7400   46.5240   32.7670 C.3       9 GLL5        0.0000 
     41 CA         18.9800   49.2210   35.2730 C.3       6 GLP5        0.0000 
     42 O          21.2720   46.8755   35.2325 O.2       1 ALC1        0.0000 
     43 O          21.4300   45.5300   34.7740 O.2       7 ALL1        0.0000 
     44 O          21.1140   48.2210   35.6910 O.2       4 ALP1        0.0000 
     45 N          23.7965   44.2545   33.3610 N.am      2 SEC2        0.0000 
     46 N          23.1570   44.0070   34.5810 N.am      8 SEL2        0.0000 
     47 N          24.4360   44.5020   32.1410 N.am      5 SEP2        0.0000 
     48 CA         22.2665   42.4750   36.6635 C.3       3 GLC5        0.0000 
     49 CA         22.3380   44.5740   36.7360 C.3       9 GLL5        0.0000 
     50 CA         22.1950   40.3760   36.5910 C.3       6 GLP5        0.0000 
     51 CA         22.7685   41.9555   37.6370 C.3       3 GLC5        0.0000 
     52 CA         23.3420   43.5350   38.6830 C.3       9 GLL5        0.0000 
     53 CA         27.3390   43.8035   41.0785 C.3       3 GLC5        0.0000 
     54 CA         28.2720   43.3990   39.2710 C.3       9 GLL5        0.0000 
     55 CA         28.4220   43.3785   37.0935 C.3       3 GLC5        0.0000 
     56 CA         28.5720   43.3580   34.9160 C.3       6 GLP5        0.0000 
     57 CA         24.5700   40.5720   41.1565 C.3       3 GLC5        0.0000 
     58 CA         26.0290   40.4760   39.6840 C.3       9 GLL5        0.0000 
     59 N          24.6870   36.4990   40.3915 N.am      2 SEC2        0.0000 
     60 N          25.1060   37.9010   40.0140 N.am      8 SEL2        0.0000 
     61 N          24.2680   35.0970   40.7690 N.am      5 SEP2        0.0000 
     62 CA         25.7075   36.3620   39.3240 C.3       3 GLC5        0.0000 
     63 CA         26.4200   38.1420   40.1530 C.3       9 GLL5        0.0000 
     64 CA         24.9950   34.5820   38.4950 C.3       6 GLP5        0.0000 
     65 CA         19.7623   45.7023   38.9938 C.3       3 GLC5        0.0000 
     66 CA         18.0390   46.1970   39.7530 C.3       6 GLP5        0.0000 
     67 CA         20.2903   43.7947   38.6352 C.3       3 GLC5        0.0000 
     68 CA         21.5150   45.1260   38.9230 C.3       9 GLL5        0.0000 
     69 CA         19.0950   42.3820   39.0360 C.3       6 GLP5        0.0000 
     70 CA         25.9522   43.8858   35.3865 C.3       3 GLC5        0.0000 
     71 CA         24.1350   43.0030   36.4680 C.3       9 GLL5        0.0000 
     72 CA         23.0358   41.8203   36.2905 C.3       3 GLC5        0.0000 
     73 CA         19.1763   44.4075   33.6390 C.3       3 GLC5        0.0000 
     74 CA         20.7510   44.1050   32.9830 C.3       9 GLL5        0.0000 
     75 CA         17.4860   44.0750   34.0230 C.3       6 GLP5        0.0000 
     76 CA         22.7950   46.4237   32.5290 C.3       3 GLC5        0.0000 
     77 CA         20.9820   45.3750   33.5270 C.3       9 GLL5        0.0000 
     78 CA         24.7290   46.8980   31.9110 C.3       6 GLP5        0.0000 
     79 CA         18.8240   44.3170   32.6625 C.3       3 GLC5        0.0000 
     80 CA         20.0440   45.1360   30.9260 C.3       9 GLL5        0.0000 
     81 CA         22.0862   43.1852   31.9183 C.3       3 GLC5        0.0000 
     82 CA         20.2800   43.9820   31.6780 C.3       9 GLL5        0.0000 
     83 CA         18.2325   46.5734   30.2552 C.3       3 GLC5        0.0000 
     84 CA         16.4550   47.4090   29.7210 C.3       6 GLP5        0.0000 
     85 CA         18.9960   45.2698   33.0688 C.3       3 GLC5        0.0000 
     86 CA         20.2720   46.4050   31.4620 C.3       9 GLL5        0.0000 
     87 CA         22.0871   46.1565   40.6461 C.3       3 GLC5        0.0000 
     88 CA         22.1920   47.6560   41.7070 C.3       6 GLP5        0.0000 
     89 CA         20.9954   43.1217   39.2506 C.3       3 GLC5        0.0000 
     90 CA         26.3820   43.3115   41.1215 C.3       3 GLC5        0.0000 
     91 CA         25.5670   42.8800   39.2280 C.3       9 GLL5        0.0000 
@<TRIPOS>BOND
@<TRIPOS>SUBSTRUCTURE
     1 ALC1       42 GROUP        1 X    ALC  0     ROOT ALC X 1
     2 SEC2       45 GROUP        1 X    SEC  0     **** SEC X 2
     3 GLC5        1 GROUP        1 X    GLC  0     **** GLC X 6
     4 ALP1       44 GROUP        1 Y    ALP  0     ROOT ALP Y 8
     5 SEP2       47 GROUP        1 Y    SEP  0     **** SEP Y 9
     6 GLP5        3 GROUP        1 Y    GLP  0     **** GLP Y 13
     7 ALL1       43 GROUP        1 Z    ALL  0     ROOT ALL Z 15
     8 SEL2       46 GROUP        1 Z    SEL  0     **** SEL Z 16
     9 GLL5        2 GROUP        1 Z    GLL  0     **** GLL Z 20
@<TRIPOS>SET

