#    Name: 3idp_L1E_2_ligand
#    Modification time : Tue Mar 25 16:19:35 2014

@<TRIPOS>MOLECULE
3idp_L1E_2_ligand
   54    59     1     0     0
SMALL
NO_CHARGES


@<TRIPOS>ATOM
      1 C5         24.2920   38.8990   39.7170 C.ar      1 L1E1        0.0000 
      2 C7         26.4640   41.8060   39.4810 C.ar      1 L1E1        0.0000 
      3 C8         27.8340   42.0940   39.4910 C.ar      1 L1E1        0.0000 
      4 C10        27.3430   44.4120   39.0390 C.ar      1 L1E1        0.0000 
      5 C15        23.2710   43.7030   37.3040 C.ar      1 L1E1        0.0000 
      6 C17        21.4560   45.2890   37.5460 C.ar      1 L1E1        0.0000 
      7 C20        22.4530   44.1200   41.0060 C.3       1 L1E1        0.0000 
      8 C21        24.1350   43.0030   36.4680 C.ar      1 L1E1        0.0000 
      9 C22        24.0500   43.1760   35.0940 C.ar      1 L1E1        0.0000 
     10 C24        22.3030   44.7060   35.3460 C.ar      1 L1E1        0.0000 
     11 C26        20.9820   45.3750   33.5270 C.ar      1 L1E1        0.0000 
     12 C28        20.2800   43.9820   31.6780 C.ar      1 L1E1        0.0000 
     13 C27        20.7510   44.1050   32.9830 C.ar      1 L1E1        0.0000 
     14 C29        20.0440   45.1360   30.9260 C.ar      1 L1E1        0.0000 
     15 CL32       19.4520   45.0050   29.3080 Cl        1 L1E1        0.0000 
     16 C30        20.2720   46.4050   31.4620 C.ar      1 L1E1        0.0000 
     17 C31        20.7400   46.5240   32.7670 C.ar      1 L1E1        0.0000 
     18 N25        21.4300   45.5300   34.7740 N.pl3     1 L1E1        0.0000 
     19 N23        23.1570   44.0070   34.5810 N.ar      1 L1E1        0.0000 
     20 C16        22.3380   44.5740   36.7360 C.ar      1 L1E1        0.0000 
     21 C18        21.5150   45.1260   38.9230 C.ar      1 L1E1        0.0000 
     22 C19        22.4460   44.2560   39.4890 C.ar      1 L1E1        0.0000 
     23 C14        23.3420   43.5350   38.6830 C.ar      1 L1E1        0.0000 
     24 N13        24.2400   42.6770   39.2040 N.pl3     1 L1E1        0.0000 
     25 C12        25.5670   42.8800   39.2280 C.ar      1 L1E1        0.0000 
     26 N11        26.0420   44.1350   39.0230 N.ar      1 L1E1        0.0000 
     27 C9         28.2720   43.3990   39.2710 C.ar      1 L1E1        0.0000 
     28 C3         26.0290   40.4760   39.6840 C.ar      1 L1E1        0.0000 
     29 N4         24.7260   40.1470   39.5450 N.ar      1 L1E1        0.0000 
     30 N6         25.1060   37.9010   40.0140 N.ar      1 L1E1        0.0000 
     31 C1         26.4200   38.1420   40.1530 C.ar      1 L1E1        0.0000 
     32 C2         26.9180   39.4350   39.9940 C.ar      1 L1E1        0.0000 
     33 N35        28.2360   39.3630   40.1860 N.pl3     1 L1E1        0.0000 
     34 C34        28.5690   38.1000   40.4560 C.2       1 L1E1        0.0000 
     35 N33        27.4600   37.3560   40.4360 N.2       1 L1E1        0.0000 
     36 H          23.2501   38.7032   39.6102 H         1 L1E1        0.0000 
     37 H          28.5126   41.3438   39.6603 H         1 L1E1        0.0000 
     38 H          27.6963   45.3766   38.8813 H         1 L1E1        0.0000 
     39 H          20.7741   45.9260   37.1267 H         1 L1E1        0.0000 
     40 H          24.8306   42.3628   36.8669 H         1 L1E1        0.0000 
     41 H          24.7043   42.6366   34.4884 H         1 L1E1        0.0000 
     42 H          20.1084   43.0600   31.2734 H         1 L1E1        0.0000 
     43 H          20.9298   43.2678   33.5486 H         1 L1E1        0.0000 
     44 H          20.0955   47.2405   30.8972 H         1 L1E1        0.0000 
     45 H          20.9081   47.4505   33.1735 H         1 L1E1        0.0000 
     46 H          21.0666   46.3617   35.3423 H         1 L1E1        0.0000 
     47 H          20.8693   45.6488   39.5321 H         1 L1E1        0.0000 
     48 H          23.8653   41.7635   39.6314 H         1 L1E1        0.0000 
     49 H          29.2752   43.6132   39.2798 H         1 L1E1        0.0000 
     50 H          28.8572   40.1142   40.1368 H         1 L1E1        0.0000 
     51 H          29.4668   37.7748   40.6369 H         1 L1E1        0.0000 
     52 H          23.1522   43.4768   41.3180 H         1 L1E1        0.0000 
     53 H          22.6366   44.9938   41.4564 H         1 L1E1        0.0000 
     54 H          21.5753   43.7900   41.3533 H         1 L1E1        0.0000 
@<TRIPOS>BOND
     1   29    1 ar   
     2   30    1 ar   
     3   36    1 1    
     4    3    2 ar   
     5   25    2 ar   
     6   28    2 1    
     7   27    3 ar   
     8   37    3 1    
     9   26    4 ar   
    10   27    4 ar   
    11   38    4 1    
    12    8    5 ar   
    13   20    5 ar   
    14   23    5 ar   
    15   20    6 ar   
    16   21    6 ar   
    17   39    6 1    
    18   22    7 1    
    19   52    7 1    
    20   53    7 1    
    21   54    7 1    
    22    9    8 ar   
    23   40    8 1    
    24   19    9 ar   
    25   41    9 1    
    26   18   10 1    
    27   19   10 ar   
    28   20   10 ar   
    29   13   11 ar   
    30   17   11 ar   
    31   18   11 1    
    32   13   12 ar   
    33   14   12 ar   
    34   42   12 1    
    35   43   13 1    
    36   15   14 1    
    37   16   14 ar   
    38   17   16 ar   
    39   44   16 1    
    40   45   17 1    
    41   46   18 1    
    42   22   21 ar   
    43   47   21 1    
    44   23   22 ar   
    45   24   23 1    
    46   25   24 1    
    47   48   24 1    
    48   26   25 ar   
    49   49   27 1    
    50   29   28 ar   
    51   32   28 ar   
    52   31   30 ar   
    53   32   31 ar   
    54   35   31 1    
    55   33   32 1    
    56   34   33 1    
    57   50   33 1    
    58   35   34 2    
    59   51   34 1    
@<TRIPOS>SUBSTRUCTURE
     1 L1E1        1 GROUP   
@<TRIPOS>SET

