#    Name: 3cdp_YRG_1_INTS_M
#    Modification time : Mon Mar 24 20:58:15 2014

@<TRIPOS>MOLECULE
3cdp_YRG_1_INTS_M
   45     0     6     0     0
SMALL
NO_CHARGES


@<TRIPOS>ATOM
      1 CA         18.6580   65.9875   19.7225 C.3       2 GLC5        0.0000 
      2 CA         20.3010   65.6800   18.2520 C.3       6 GLL5        0.0000 
      3 CA         17.0150   66.2950   21.1930 C.3       4 GLP5        0.0000 
      4 CA         20.9080   67.6485   20.1620 C.3       2 GLC5        0.0000 
      5 CA         21.0020   66.8780   18.1800 C.3       6 GLL5        0.0000 
      6 CA         20.8140   68.4190   22.1440 C.3       4 GLP5        0.0000 
      7 CA         24.0060   70.3035   17.4590 C.3       2 GLC5        0.0000 
      8 CA         23.1990   68.3810   17.6610 C.3       6 GLL5        0.0000 
      9 CA         24.8130   72.2260   17.2570 C.3       4 GLP5        0.0000 
     10 CA         18.0645   64.8015   20.0035 C.3       2 GLC5        0.0000 
     11 CA         19.1140   63.3080   18.8140 C.3       6 GLL5        0.0000 
     12 N          19.3360   61.9180   21.9270 N.am      1 SEC2        0.0000 
     13 N          18.6300   63.0780   21.1330 N.am      5 SEL2        0.0000 
     14 N          20.0420   60.7580   22.7210 N.am      3 SEP2        0.0000 
     15 CA         17.9460   60.9455   20.1495 C.3       2 GLC5        0.0000 
     16 CA         18.2900   62.0490   18.5370 C.3       6 GLL5        0.0000 
     17 CA         17.6020   59.8420   21.7620 C.3       4 GLP5        0.0000 
     18 CA         19.8520   60.7575   13.3780 C.3       2 GLC5        0.0000 
     19 CA         18.5520   61.6040   14.7610 C.3       6 GLL5        0.0000 
     20 CA         21.1520   59.9110   11.9950 C.3       4 GLP5        0.0000 
     21 CA         19.9518   64.8807   16.1403 C.3       2 GLC5        0.0000 
     22 CA         20.9460   64.4810   17.9650 C.3       6 GLL5        0.0000 
     23 CA         19.2800   64.6810   14.1720 C.3       4 GLP5        0.0000 
     24 CA         19.9393   67.8240   18.1120 C.3       2 GLC5        0.0000 
     25 CA         19.2270   69.3690   18.0080 C.3       4 GLP5        0.0000 
     26 CA         22.9028   67.9410   15.7480 C.3       2 GLC5        0.0000 
     27 CA         22.3460   66.8830   17.8210 C.3       6 GLL5        0.0000 
     28 CA         23.0330   68.2500   13.7550 C.3       4 GLP5        0.0000 
     29 CA         20.9997   68.5005   17.8745 C.3       2 GLC5        0.0000 
     30 CA         23.5125   65.3890   19.1608 C.3       2 GLC5        0.0000 
     31 CA         24.3560   64.4940   20.6400 C.3       4 GLP5        0.0000 
     32 CA         22.9873   64.4888   19.2153 C.3       2 GLC5        0.0000 
     33 CA         22.2910   64.4860   17.6160 C.3       6 GLL5        0.0000 
     34 CA         17.0575   63.6912   18.5617 C.3       2 GLC5        0.0000 
     35 CA         15.4130   64.7040   18.4480 C.3       4 GLP5        0.0000 
     36 CA         18.2658   63.3588   15.5152 C.3       2 GLC5        0.0000 
     37 CA         17.9120   61.9500   17.0570 C.3       6 GLL5        0.0000 
     38 CA         15.6043   60.3580   16.6935 C.3       2 GLC5        0.0000 
     39 CA         16.5910   62.1230   16.6600 C.3       6 GLL5        0.0000 
     40 CA         14.7890   58.6350   17.3990 C.3       4 GLP5        0.0000 
     41 CA         18.0095   63.2952   14.5065 C.3       2 GLC5        0.0000 
     42 CA         16.2480   62.0390   15.3160 C.3       6 GLL5        0.0000 
     43 CA         16.0814   63.3709   17.2676 C.3       2 GLC5        0.0000 
     44 CA         19.0012   63.1638   14.8027 C.3       2 GLC5        0.0000 
     45 CA         18.8930   61.6890   16.1060 C.3       6 GLL5        0.0000 
@<TRIPOS>BOND
@<TRIPOS>SUBSTRUCTURE
     1 SEC2       12 GROUP        1 X    SEC  0     ROOT SEC X 2
     2 GLC5        1 GROUP        1 X    GLC  0     **** GLC X 6
     3 SEP2       14 GROUP        1 Y    SEP  0     ROOT SEP Y 9
     4 GLP5        3 GROUP        1 Y    GLP  0     **** GLP Y 13
     5 SEL2       13 GROUP        1 Z    SEL  0     ROOT SEL Z 16
     6 GLL5        2 GROUP        1 Z    GLL  0     **** GLL Z 20
@<TRIPOS>SET

