#    Name: 3cdp_YRG_1_ligand
#    Modification time : Mon Mar 24 20:58:15 2014

@<TRIPOS>MOLECULE
3cdp_YRG_1_ligand
   31    32     1     0     0
SMALL
NO_CHARGES


@<TRIPOS>ATOM
      1 CAK        20.3010   65.6800   18.2520 C.ar      1 YRG1        0.0000 
      2 CAI        21.0020   66.8780   18.1800 C.ar      1 YRG1        0.0000 
      3 CAP        22.3460   66.8830   17.8210 C.ar      1 YRG1        0.0000 
      4 CLAC       23.1990   68.3810   17.6610 Cl        1 YRG1        0.0000 
      5 CAJ        22.9920   65.6850   17.5420 C.ar      1 YRG1        0.0000 
      6 CAL        22.2910   64.4860   17.6160 C.ar      1 YRG1        0.0000 
      7 CAR        20.9460   64.4810   17.9650 C.ar      1 YRG1        0.0000 
      8 OAN        20.2630   63.3040   17.9530 O.3       1 YRG1        0.0000 
      9 CAS        19.1140   63.3080   18.8140 C.3       1 YRG1        0.0000 
     10 CAO        19.5260   63.2930   20.2890 C.2       1 YRG1        0.0000 
     11 OAB        18.6300   63.0780   21.1330 O.co2     1 YRG1        0.0000 
     12 OAA        20.7270   63.4890   20.5770 O.co2     1 YRG1        0.0000 
     13 CAM        18.2900   62.0490   18.5370 C.3       1 YRG1        0.0000 
     14 CAQ        17.9120   61.9500   17.0570 C.ar      1 YRG1        0.0000 
     15 CAG        16.5910   62.1230   16.6600 C.ar      1 YRG1        0.0000 
     16 CAE        16.2480   62.0390   15.3160 C.ar      1 YRG1        0.0000 
     17 CAD        17.2300   61.7800   14.3660 C.ar      1 YRG1        0.0000 
     18 CAF        18.5520   61.6040   14.7610 C.ar      1 YRG1        0.0000 
     19 CAH        18.8930   61.6890   16.1060 C.ar      1 YRG1        0.0000 
     20 H          19.3082   65.6790   18.5166 H         1 YRG1        0.0000 
     21 H          20.5251   67.7658   18.3931 H         1 YRG1        0.0000 
     22 H          23.9860   65.6841   17.2813 H         1 YRG1        0.0000 
     23 H          22.7716   63.5979   17.4110 H         1 YRG1        0.0000 
     24 H          18.4874   64.1585   18.6422 H         1 YRG1        0.0000 
     25 H          17.3813   62.0756   19.1378 H         1 YRG1        0.0000 
     26 H          18.8710   61.1710   18.8178 H         1 YRG1        0.0000 
     27 H          15.8643   62.3140   17.3645 H         1 YRG1        0.0000 
     28 H          15.2714   62.1679   15.0244 H         1 YRG1        0.0000 
     29 H          16.9787   61.7185   13.3705 H         1 YRG1        0.0000 
     30 H          19.2770   61.4110   14.0577 H         1 YRG1        0.0000 
     31 H          19.8703   61.5590   16.3982 H         1 YRG1        0.0000 
@<TRIPOS>BOND
     1    2    1 ar   
     2    7    1 ar   
     3   20    1 1    
     4    3    2 ar   
     5   21    2 1    
     6    4    3 1    
     7    5    3 ar   
     8    6    5 ar   
     9   22    5 1    
    10    7    6 ar   
    11   23    6 1    
    12    8    7 1    
    13    9    8 1    
    14   10    9 1    
    15   13    9 1    
    16   24    9 1    
    17   11   10 ar   
    18   12   10 ar   
    19   14   13 1    
    20   25   13 1    
    21   26   13 1    
    22   15   14 ar   
    23   19   14 ar   
    24   16   15 ar   
    25   27   15 1    
    26   17   16 ar   
    27   28   16 1    
    28   18   17 ar   
    29   29   17 1    
    30   19   18 ar   
    31   30   18 1    
    32   31   19 1    
@<TRIPOS>SUBSTRUCTURE
     1 YRG1        1 GROUP   
@<TRIPOS>SET

