#    Name: 3tvx_PNX_1_INTS_M
#    Modification time : Mon Mar 24 21:04:25 2014

@<TRIPOS>MOLECULE
3tvx_PNX_1_INTS_M
   45     0     3     0     0
SMALL
NO_CHARGES


@<TRIPOS>ATOM
      1 CA         38.8455   14.1300  -28.6335 C.3       1 GLC5        0.0000 
      2 CA         39.9500   15.7000  -28.6970 C.3       3 GLL5        0.0000 
      3 CA         37.7410   12.5600  -28.5700 C.3       2 GLP5        0.0000 
      4 CA         40.6815   14.5405  -30.1575 C.3       1 GLC5        0.0000 
      5 CA         41.4130   13.3810  -31.6180 C.3       2 GLP5        0.0000 
      6 CA         38.1415   15.7265  -29.6755 C.3       1 GLC5        0.0000 
      7 CA         36.3330   15.7530  -30.6540 C.3       2 GLP5        0.0000 
      8 CA         39.8195   17.0500  -30.2255 C.3       1 GLC5        0.0000 
      9 CA         39.6890   18.4000  -31.7540 C.3       2 GLP5        0.0000 
     10 CA         40.2020   17.7035  -28.5070 C.3       1 GLC5        0.0000 
     11 CA         40.4540   19.7070  -28.3170 C.3       2 GLP5        0.0000 
     12 CA         39.9990   18.3560  -26.0515 C.3       1 GLC5        0.0000 
     13 CA         39.9090   16.5140  -26.2080 C.3       3 GLL5        0.0000 
     14 CA         40.0890   20.1980  -25.8950 C.3       2 GLP5        0.0000 
     15 CA         39.4530   18.0245  -24.7390 C.3       1 GLC5        0.0000 
     16 CA         39.7630   16.0360  -24.7610 C.3       3 GLL5        0.0000 
     17 CA         39.1430   20.0130  -24.7170 C.3       2 GLP5        0.0000 
     18 CA         41.0560   14.1910  -23.0785 C.3       1 GLC5        0.0000 
     19 CA         41.1300   15.8710  -24.0980 C.3       3 GLL5        0.0000 
     20 CA         40.9820   12.5110  -22.0590 C.3       2 GLP5        0.0000 
     21 CA         40.4585   18.6250  -24.2785 C.3       1 GLC5        0.0000 
     22 CA         41.7740   17.2370  -23.8400 C.3       3 GLL5        0.0000 
     23 CA         42.2635   19.2035  -23.6780 C.3       1 GLC5        0.0000 
     24 CA         42.7530   21.1700  -23.5160 C.3       2 GLP5        0.0000 
     25 CA         45.7940   14.8690  -19.7720 C.3       1 GLC5        0.0000 
     26 CA         46.3660   16.5280  -20.7480 C.3       3 GLL5        0.0000 
     27 CA         45.2220   13.2100  -18.7960 C.3       2 GLP5        0.0000 
     28 CA         45.6840   15.0695  -22.1815 C.3       1 GLC5        0.0000 
     29 CA         45.0020   13.6110  -23.6150 C.3       2 GLP5        0.0000 
     30 CA         46.5765   15.6035  -25.5080 C.3       1 GLC5        0.0000 
     31 CA         45.9260   17.1190  -24.3400 C.3       3 GLL5        0.0000 
     32 CA         47.2270   14.0880  -26.6760 C.3       2 GLP5        0.0000 
     33 CA         46.7215   18.8265  -26.0220 C.3       1 GLC5        0.0000 
     34 CA         45.7430   17.5140  -26.7580 C.3       3 GLL5        0.0000 
     35 CA         47.7000   20.1390  -25.2860 C.3       2 GLP5        0.0000 
     36 CA         47.1915   18.4155  -27.9745 C.3       1 GLC5        0.0000 
     37 CA         48.6400   19.3170  -29.1910 C.3       2 GLP5        0.0000 
     38 CA         46.4850   15.8010  -26.7170 C.3       1 GLC5        0.0000 
     39 CA         37.9525   16.6045  -25.4327 C.3       1 GLC5        0.0000 
     40 CA         36.0690   16.9340  -25.3810 C.3       2 GLP5        0.0000 
     41 CA         42.6110   14.9665  -24.0845 C.3       1 GLC5        0.0000 
     42 CA         43.7700   13.3790  -24.2000 C.3       2 GLP5        0.0000 
     43 CA         46.5605   18.6500  -23.6043 C.3       1 GLC5        0.0000 
     44 CA         45.3720   16.9450  -23.0650 C.3       3 GLL5        0.0000 
     45 CA         47.4720   20.2680  -23.5060 C.3       2 GLP5        0.0000 
@<TRIPOS>BOND
@<TRIPOS>SUBSTRUCTURE
     1 GLC5        1 GROUP        1 X    GLC  0     ROOT GLC X 6
     2 GLP5        3 GROUP        1 Y    GLP  0     ROOT GLP Y 13
     3 GLL5        2 GROUP        1 Z    GLL  0     ROOT GLL Z 20
@<TRIPOS>SET

