#    Name: 3tvx_PNX_1_ligand
#    Modification time : Mon Mar 24 21:04:25 2014

@<TRIPOS>MOLECULE
3tvx_PNX_1_ligand
   38    39     1     0     0
SMALL
NO_CHARGES


@<TRIPOS>ATOM
      1 CAA        39.9500   15.7000  -28.6970 C.3       1 PNX902      0.0000 
      2 CAM        39.9740   15.3860  -27.2170 C.2       1 PNX902      0.0000 
      3 OAD        40.0460   14.2180  -26.8610 O.2       1 PNX902      0.0000 
      4 CAJ        39.9090   16.5140  -26.2080 C.3       1 PNX902      0.0000 
      5 CAH        39.7630   16.0360  -24.7610 C.3       1 PNX902      0.0000 
      6 CAI        41.1300   15.8710  -24.0980 C.3       1 PNX902      0.0000 
      7 CAK        41.7740   17.2370  -23.8400 C.3       1 PNX902      0.0000 
      8 N1         43.2350   17.1890  -24.0050 N.am      1 PNX902      0.0000 
      9 C6         43.9830   16.9800  -22.8900 C.2       1 PNX902      0.0000 
     10 O6         43.4590   16.8300  -21.7970 O.2       1 PNX902      0.0000 
     11 C5         45.3720   16.9450  -23.0650 C.2       1 PNX902      0.0000 
     12 N7         46.4020   16.7550  -22.1950 N.pl3     1 PNX902      0.0000 
     13 CAB        46.3660   16.5280  -20.7480 C.3       1 PNX902      0.0000 
     14 C8         47.5530   16.8080  -22.9050 C.2       1 PNX902      0.0000 
     15 N9         47.2690   17.0230  -24.2070 N.2       1 PNX902      0.0000 
     16 C4         45.9260   17.1190  -24.3400 C.2       1 PNX902      0.0000 
     17 N3         45.1490   17.3300  -25.4320 N.am      1 PNX902      0.0000 
     18 CAC        45.7430   17.5140  -26.7580 C.3       1 PNX902      0.0000 
     19 C2         43.8030   17.3600  -25.2340 C.2       1 PNX902      0.0000 
     20 O2         43.0930   17.5460  -26.2150 O.2       1 PNX902      0.0000 
     21 H          39.0579   17.1709  -26.4502 H         1 PNX902      0.0000 
     22 H          40.8218   17.1265  -26.2869 H         1 PNX902      0.0000 
     23 H          39.2406   15.0804  -24.7509 H         1 PNX902      0.0000 
     24 H          39.1772   16.7638  -24.2012 H         1 PNX902      0.0000 
     25 H          41.7776   15.2877  -24.7484 H         1 PNX902      0.0000 
     26 H          41.0107   15.3478  -23.1521 H         1 PNX902      0.0000 
     27 H          41.5104   17.5528  -22.8214 H         1 PNX902      0.0000 
     28 H          41.3302   17.9616  -24.5362 H         1 PNX902      0.0000 
     29 H          48.4448   16.7067  -22.5332 H         1 PNX902      0.0000 
     30 H          40.7721   15.3691  -29.1602 H         1 PNX902      0.0000 
     31 H          39.1666   15.2783  -29.1535 H         1 PNX902      0.0000 
     32 H          39.8936   16.6838  -28.8671 H         1 PNX902      0.0000 
     33 H          47.2839   16.4204  -20.3660 H         1 PNX902      0.0000 
     34 H          45.9342   17.2887  -20.2634 H         1 PNX902      0.0000 
     35 H          45.8526   15.7023  -20.5143 H         1 PNX902      0.0000 
     36 H          46.3516   18.3070  -26.7855 H         1 PNX902      0.0000 
     37 H          46.2834   16.7200  -27.0363 H         1 PNX902      0.0000 
     38 H          45.0459   17.6550  -27.4609 H         1 PNX902      0.0000 
@<TRIPOS>BOND
     1    2    1 1    
     2   30    1 1    
     3   31    1 1    
     4   32    1 1    
     5    3    2 2    
     6    4    2 1    
     7    5    4 1    
     8   21    4 1    
     9   22    4 1    
    10    6    5 1    
    11   23    5 1    
    12   24    5 1    
    13    7    6 1    
    14   25    6 1    
    15   26    6 1    
    16    8    7 1    
    17   27    7 1    
    18   28    7 1    
    19    9    8 am   
    20   19    8 am   
    21   10    9 2    
    22   11    9 1    
    23   12   11 1    
    24   16   11 2    
    25   13   12 1    
    26   14   12 1    
    27   33   13 1    
    28   34   13 1    
    29   35   13 1    
    30   15   14 2    
    31   29   14 1    
    32   16   15 1    
    33   17   16 1    
    34   18   17 1    
    35   19   17 am   
    36   36   18 1    
    37   37   18 1    
    38   38   18 1    
    39   20   19 2    
@<TRIPOS>SUBSTRUCTURE
     1 PNX902      1 GROUP   
@<TRIPOS>SET

