#    Name: 3b67_B67_1_INTS_M
#    Modification time : Mon Mar 24 18:54:11 2014

@<TRIPOS>MOLECULE
3b67_B67_1_INTS_M
  104     0     9     0     0
SMALL
NO_CHARGES


@<TRIPOS>ATOM
      1 CA         24.4565    1.6160    6.2560 C.3       3 GLC5        0.0000 
      2 CA         23.7470    2.4230    4.4340 C.3       9 GLL5        0.0000 
      3 CA         25.1660    0.8090    8.0780 C.3       6 GLP5        0.0000 
      4 CA         23.0275    1.0170    5.0635 C.3       3 GLC5        0.0000 
      5 CA         22.3080   -0.3890    5.6930 C.3       6 GLP5        0.0000 
      6 CA         24.3390    2.4475    6.9160 C.3       3 GLC5        0.0000 
      7 CA         23.5120    4.0860    5.7540 C.3       9 GLL5        0.0000 
      8 CA         21.8335    4.3570    6.3405 C.3       3 GLC5        0.0000 
      9 CA         20.1550    4.6280    6.9270 C.3       6 GLP5        0.0000 
     10 CA         21.5305    4.4225    5.2985 C.3       3 GLC5        0.0000 
     11 CA         22.9060    4.2170    3.6700 C.3       9 GLL5        0.0000 
     12 CA         21.6235    4.4715    2.4975 C.3       3 GLC5        0.0000 
     13 CA         20.3410    4.7260    1.3250 C.3       6 GLP5        0.0000 
     14 N          25.8360    8.9205    3.7900 N.am      2 SEC2        0.0000 
     15 N          25.0450    7.8390    3.3770 N.am      8 SEL2        0.0000 
     16 N          26.6270   10.0020    4.2030 N.am      5 SEP2        0.0000 
     17 CA         27.1740    6.3395    5.4830 C.3       3 GLC5        0.0000 
     18 CA         26.8160    5.8900    3.3570 C.3       9 GLL5        0.0000 
     19 CA         27.5320    6.7890    7.6090 C.3       6 GLP5        0.0000 
     20 CA         29.4130    5.6495    4.5235 C.3       3 GLC5        0.0000 
     21 CA         27.8490    4.9600    3.3530 C.3       9 GLL5        0.0000 
     22 CA         30.9770    6.3390    5.6940 C.3       6 GLP5        0.0000 
     23 O          29.8430    3.5945    3.2105 O.2       1 ALC1        0.0000 
     24 O          28.6020    2.7960    3.8380 O.2       7 ALL1        0.0000 
     25 O          31.0840    4.3930    2.5830 O.2       4 ALP1        0.0000 
     26 CA         29.9255    1.6435    2.2375 C.3       3 GLC5        0.0000 
     27 CA         29.8210    0.7650    4.2880 C.3       9 GLL5        0.0000 
     28 CA         30.0300    2.5220    0.1870 C.3       6 GLP5        0.0000 
     29 O          32.0325    0.9595    3.4685 O.2       1 ALC1        0.0000 
     30 O          30.8560    1.5720    3.7200 O.2       7 ALL1        0.0000 
     31 O          33.2090    0.3470    3.2170 O.2       4 ALP1        0.0000 
     32 CA         30.1960   -1.2145    1.6405 C.3       3 GLC5        0.0000 
     33 CA         29.6730   -0.5380    3.5000 C.3       9 GLL5        0.0000 
     34 CA         30.7190   -1.8910   -0.2190 C.3       6 GLP5        0.0000 
     35 CA         29.0365   -2.4035    2.5535 C.3       3 GLC5        0.0000 
     36 CA         28.4000   -4.2690    1.6070 C.3       6 GLP5        0.0000 
     37 CA         30.5425   -1.3160    6.4720 C.3       3 GLC5        0.0000 
     38 CA         30.1560    0.4360    5.7350 C.3       9 GLL5        0.0000 
     39 CA         30.9290   -3.0680    7.2090 C.3       6 GLP5        0.0000 
     40 CA         32.0325    1.1550    6.1680 C.3       3 GLC5        0.0000 
     41 CA         33.9090    1.8740    6.6010 C.3       6 GLP5        0.0000 
     42 CA         31.4315    2.5430    7.2785 C.3       3 GLC5        0.0000 
     43 CA         29.7840    1.6280    7.6980 C.3       9 GLL5        0.0000 
     44 CA         33.0790    3.4580    6.8590 C.3       6 GLP5        0.0000 
     45 CA         29.6885    4.8350    6.2720 C.3       3 GLC5        0.0000 
     46 CA         28.4000    3.3310    6.8500 C.3       9 GLL5        0.0000 
     47 CA         29.5860    4.1950    8.3490 C.3       3 GLC5        0.0000 
     48 CA         30.7720    5.0590    9.8480 C.3       6 GLP5        0.0000 
     49 CA         26.7830    2.0700    7.4640 C.3       3 GLC5        0.0000 
     50 CA         26.6080    1.6900    8.5875 C.3       3 GLC5        0.0000 
     51 CA         28.0500    2.5710    9.0970 C.3       9 GLL5        0.0000 
     52 CA         28.3445    4.3890    9.9475 C.3       3 GLC5        0.0000 
     53 CA         27.0690    3.4840    9.2820 C.3       9 GLL5        0.0000 
     54 CA         29.6200    5.2940   10.6130 C.3       6 GLP5        0.0000 
     55 CA         25.7270    3.0225   10.0680 C.3       3 GLC5        0.0000 
     56 CA         24.3850    2.5610   10.8540 C.3       6 GLP5        0.0000 
     57 CA         26.1155    5.0370    9.1445 C.3       3 GLC5        0.0000 
     58 CA         25.1620    6.5900    9.0070 C.3       6 GLP5        0.0000 
     59 CA         28.9540    2.6080   11.7240 C.3       3 GLC5        0.0000 
     60 CA         27.7200    1.7030   11.2880 C.3       9 GLL5        0.0000 
     61 CA         30.1880    3.5130   12.1600 C.3       6 GLP5        0.0000 
     62 CA         26.1025    1.3655   11.0390 C.3       3 GLC5        0.0000 
     63 CA         24.4850    1.0280   10.7900 C.3       6 GLP5        0.0000 
     64 CA         27.0530   -0.3950   11.4415 C.3       3 GLC5        0.0000 
     65 CA         26.3860   -2.4930   11.5950 C.3       6 GLP5        0.0000 
     66 CA         30.5670    1.6060   11.1635 C.3       3 GLC5        0.0000 
     67 CA         29.8010   -0.0670   10.9280 C.3       9 GLL5        0.0000 
     68 CA         31.3330    3.2790   11.3990 C.3       6 GLP5        0.0000 
     69 CA         28.0935   -1.2800   11.2615 C.3       3 GLC5        0.0000 
     70 CA         30.9680    0.2490   12.5760 C.3       3 GLC5        0.0000 
     71 CA         32.1350    0.5650   14.2240 C.3       6 GLP5        0.0000 
     72 CA         31.5620   -1.1220   10.4945 C.3       3 GLC5        0.0000 
     73 CA         33.3230   -2.1770   10.0610 C.3       6 GLP5        0.0000 
     74 CA         29.8735   -1.5395   11.9885 C.3       3 GLC5        0.0000 
     75 CA         29.9460   -3.0120   13.0490 C.3       6 GLP5        0.0000 
     76 CA         31.2860    1.6355    9.9690 C.3       3 GLC5        0.0000 
     77 CA         31.2390   -0.0080    8.5390 C.3       9 GLL5        0.0000 
     78 CA         32.4565   -1.1080    8.5630 C.3       3 GLC5        0.0000 
     79 CA         33.6740   -2.2080    8.5870 C.3       6 GLP5        0.0000 
     80 CA         22.3105    2.6690    5.8942 C.3       3 GLC5        0.0000 
     81 CA         20.8340    2.2520    7.3180 C.3       6 GLP5        0.0000 
     82 CA         23.8608    5.0922    6.5897 C.3       3 GLC5        0.0000 
     83 CA         23.8270    3.7490    4.5070 C.3       9 GLL5        0.0000 
     84 CA         24.0520    6.2670    8.0490 C.3       6 GLP5        0.0000 
     85 CA         23.6487    3.6907    2.2066 C.3       3 GLC5        0.0000 
     86 CA         23.9510    3.7300    0.3430 C.3       6 GLP5        0.0000 
     87 CA         21.7182    2.6943    3.6616 C.3       3 GLC5        0.0000 
     88 CA         20.0900    1.7370    3.2530 C.3       6 GLP5        0.0000 
     89 CA         27.3492    3.5152    1.9500 C.3       3 GLC5        0.0000 
     90 CA         26.2920    3.3280    4.1510 C.3       9 GLL5        0.0000 
     91 CA         27.7580    3.5380   -0.0580 C.3       6 GLP5        0.0000 
     92 CA         27.5452    4.4815    1.6485 C.3       3 GLC5        0.0000 
     93 CA         27.8063    6.8265    2.1965 C.3       3 GLC5        0.0000 
     94 CA         28.2800    8.2280    1.0380 C.3       6 GLP5        0.0000 
     95 CA         28.0488    4.8577    7.4867 C.3       3 GLC5        0.0000 
     96 CA         28.7310    2.5220    7.8790 C.3       9 GLL5        0.0000 
     97 CA         27.8456   -0.0021    9.3511 C.3       3 GLC5        0.0000 
     98 CA         28.4160    1.7050   10.1290 C.3       9 GLL5        0.0000 
     99 CA         26.3180   -0.5990    8.2180 C.3       6 GLP5        0.0000 
    100 CA         28.0141    0.4155    8.2406 C.3       3 GLC5        0.0000 
    101 CA         30.1630    0.7850    8.7380 C.3       9 GLL5        0.0000 
    102 CA         30.8150   -1.3397    7.9238 C.3       3 GLC5        0.0000 
    103 CA         32.5185    0.9227    8.4683 C.3       3 GLC5        0.0000 
    104 CA         34.3360    1.4570    8.2980 C.3       6 GLP5        0.0000 
@<TRIPOS>BOND
@<TRIPOS>SUBSTRUCTURE
     1 ALC1       23 GROUP        1 X    ALC  0     ROOT ALC X 1
     2 SEC2       14 GROUP        1 X    SEC  0     **** SEC X 2
     3 GLC5        1 GROUP        1 X    GLC  0     **** GLC X 6
     4 ALP1       25 GROUP        1 Y    ALP  0     ROOT ALP Y 8
     5 SEP2       16 GROUP        1 Y    SEP  0     **** SEP Y 9
     6 GLP5        3 GROUP        1 Y    GLP  0     **** GLP Y 13
     7 ALL1       24 GROUP        1 Z    ALL  0     ROOT ALL Z 15
     8 SEL2       15 GROUP        1 Z    SEL  0     **** SEL Z 16
     9 GLL5        2 GROUP        1 Z    GLL  0     **** GLL Z 20
@<TRIPOS>SET

