#    Name: 3b67_B67_1_ligand
#    Modification time : Mon Mar 24 18:54:11 2014

@<TRIPOS>MOLECULE
3b67_B67_1_ligand
   42    43     1     0     0
SMALL
NO_CHARGES


@<TRIPOS>ATOM
      1 F1         23.7470    2.4230    4.4340 F         1 B671        0.0000 
      2 C7         23.8270    3.7490    4.5070 C.3       1 B671        0.0000 
      3 F2         23.5120    4.0860    5.7540 F         1 B671        0.0000 
      4 F3         22.9060    4.2170    3.6700 F         1 B671        0.0000 
      5 C4         25.2420    4.2460    4.1560 C.ar      1 B671        0.0000 
      6 C5         26.2920    3.3280    4.1510 C.ar      1 B671        0.0000 
      7 C3         25.5280    5.5560    3.7640 C.ar      1 B671        0.0000 
      8 N8         24.6900    6.5790    3.9270 N.pl3     1 B671        0.0000 
      9 O2         25.0450    7.8390    3.3770 O.2       1 B671        0.0000 
     10 O1         23.4250    6.4580    4.5610 O.2       1 B671        0.0000 
     11 C2         26.8160    5.8900    3.3570 C.ar      1 B671        0.0000 
     12 C1         27.8490    4.9600    3.3530 C.ar      1 B671        0.0000 
     13 C6         27.5890    3.6570    3.7650 C.ar      1 B671        0.0000 
     14 N9         28.6020    2.7960    3.8380 N.am      1 B671        0.0000 
     15 C10        28.5010    1.5400    4.2710 C.2       1 B671        0.0000 
     16 O10        27.4580    1.0070    4.6460 O.2       1 B671        0.0000 
     17 C11        29.8210    0.7650    4.2880 C.3       1 B671        0.0000 
     18 O11        30.8560    1.5720    3.7200 O.3       1 B671        0.0000 
     19 C12        29.6730   -0.5380    3.5000 C.3       1 B671        0.0000 
     20 C13        30.1560    0.4360    5.7350 C.3       1 B671        0.0000 
     21 O14        30.4670    1.6020    6.5180 O.3       1 B671        0.0000 
     22 C16        29.7840    1.6280    7.6980 C.ar      1 B671        0.0000 
     23 C17        28.7310    2.5220    7.8790 C.ar      1 B671        0.0000 
     24 F17        28.4000    3.3310    6.8500 F         1 B671        0.0000 
     25 C18        28.0500    2.5710    9.0970 C.ar      1 B671        0.0000 
     26 F18        27.0690    3.4840    9.2820 F         1 B671        0.0000 
     27 C19        28.4160    1.7050   10.1290 C.ar      1 B671        0.0000 
     28 F19        27.7200    1.7030   11.2880 F         1 B671        0.0000 
     29 C20        29.4750    0.8080    9.9520 C.ar      1 B671        0.0000 
     30 F20        29.8010   -0.0670   10.9280 F         1 B671        0.0000 
     31 C21        30.1630    0.7850    8.7380 C.ar      1 B671        0.0000 
     32 F21        31.2390   -0.0080    8.5390 F         1 B671        0.0000 
     33 H          26.0944    2.3425    4.4527 H         1 B671        0.0000 
     34 H          27.0110    6.8648    3.0466 H         1 B671        0.0000 
     35 H          28.7878    5.2295    3.0513 H         1 B671        0.0000 
     36 H          29.5761    3.1402    3.5236 H         1 B671        0.0000 
     37 H          31.0041   -0.2785    5.7313 H         1 B671        0.0000 
     38 H          29.2939   -0.1135    6.1648 H         1 B671        0.0000 
     39 H          30.5228   -1.0650    3.4907 H         1 B671        0.0000 
     40 H          28.9660   -1.1288    3.8887 H         1 B671        0.0000 
     41 H          29.4224   -0.3691    2.5467 H         1 B671        0.0000 
     42 H          31.6186    0.9438    3.5658 H         1 B671        0.0000 
@<TRIPOS>BOND
     1    2    1 1    
     2    3    2 1    
     3    4    2 1    
     4    5    2 1    
     5    6    5 ar   
     6    7    5 ar   
     7   13    6 ar   
     8   33    6 1    
     9    8    7 1    
    10   11    7 ar   
    11    9    8 2    
    12   10    8 2    
    13   12   11 ar   
    14   34   11 1    
    15   13   12 ar   
    16   35   12 1    
    17   14   13 1    
    18   15   14 am   
    19   36   14 1    
    20   16   15 2    
    21   17   15 1    
    22   18   17 1    
    23   19   17 1    
    24   20   17 1    
    25   42   18 1    
    26   39   19 1    
    27   40   19 1    
    28   41   19 1    
    29   21   20 1    
    30   37   20 1    
    31   38   20 1    
    32   22   21 1    
    33   23   22 ar   
    34   31   22 ar   
    35   24   23 1    
    36   25   23 ar   
    37   26   25 1    
    38   27   25 ar   
    39   28   27 1    
    40   29   27 ar   
    41   30   29 1    
    42   31   29 ar   
    43   32   31 1    
@<TRIPOS>SUBSTRUCTURE
     1 B671        1 GROUP   
@<TRIPOS>SET

