#    Name: 3rim_TPP_2_INTS_M
#    Modification time : Tue Mar 25 11:31:43 2014

@<TRIPOS>MOLECULE
3rim_TPP_2_INTS_M
   81     0    12     0     0
SMALL
NO_CHARGES


@<TRIPOS>ATOM
      1 CA        -24.3860   -0.9750    1.4205 C.3       4 GLC5        0.0000 
      2 CA        -25.0140   -1.0990   -0.5380 C.3      12 GLL5        0.0000 
      3 CA        -23.7580   -0.8510    3.3790 C.3       8 GLP5        0.0000 
      4 CA        -25.8955   -2.6345    0.7740 C.3       4 GLC5        0.0000 
      5 CA        -26.7770   -4.1700    2.0860 C.3       8 GLP5        0.0000 
      6 CA        -22.7770    0.1550   -0.3845 C.3       4 GLC5        0.0000 
      7 CA        -23.6890   -1.8040   -0.7980 C.3      12 GLL5        0.0000 
      8 CA        -21.8650    2.1140    0.0290 C.3       8 GLP5        0.0000 
      9 CA        -23.0780   -0.9940    1.0810 C.3       4 GLC5        0.0000 
     10 CA        -22.4670   -0.1840    2.9600 C.3       8 GLP5        0.0000 
     11 CA        -23.2125   -3.3775    0.7330 C.3       4 GLC5        0.0000 
     12 CA        -22.7360   -4.9510    2.2640 C.3       8 GLP5        0.0000 
     13 CA        -23.8815   -0.8875   -2.5145 C.3       4 GLC5        0.0000 
     14 CA        -24.0740    0.0290   -4.2310 C.3       8 GLP5        0.0000 
     15 CA        -22.0935   -1.9235   -1.1520 C.3       4 GLC5        0.0000 
     16 CA        -20.4980   -2.0430   -1.5060 C.3       8 GLP5        0.0000 
     17 N         -23.8285    0.2935    0.8555 N.am      2 SEC2        0.0000 
     18 N         -25.0420    0.1010    0.0340 N.am     10 SEL2        0.0000 
     19 N         -22.6150    0.4860    1.6770 N.am      6 SEP2        0.0000 
     20 O         -24.8845    2.5835    1.3400 O.2       1 ALC1        0.0000 
     21 O         -26.1760    1.9440    0.8230 O.2       9 ALL1        0.0000 
     22 O         -23.5930    3.2230    1.8570 O.2       5 ALP1        0.0000 
     23 CA        -27.0480   -2.6325    0.6990 C.3       4 GLC5        0.0000 
     24 CA        -27.3190   -1.0950   -0.6880 C.3      12 GLL5        0.0000 
     25 CA        -30.6530    0.1240   -0.4180 C.3       4 GLC5        0.0000 
     26 CA        -28.7880    0.7710    0.0880 C.3      12 GLL5        0.0000 
     27 CA        -32.5180   -0.5230   -0.9240 C.3       8 GLP5        0.0000 
     28 CA        -29.7055    1.7850   -1.5745 C.3       4 GLC5        0.0000 
     29 CA        -30.6230    2.7990   -3.2370 C.3       8 GLP5        0.0000 
     30 CA        -27.6790    0.7640   -1.5815 C.3       4 GLC5        0.0000 
     31 CA        -26.5700    0.7570   -3.2510 C.3       8 GLP5        0.0000 
     32 CA        -30.9010   -3.3145    1.7555 C.3       4 GLC5        0.0000 
     33 CA        -29.6370   -1.6000    1.5930 C.3      12 GLL5        0.0000 
     34 CA        -32.1650   -5.0290    1.9180 C.3       8 GLP5        0.0000 
     35 CA        -28.2070   -2.8850    1.8395 C.3       4 GLC5        0.0000 
     36 CA        -31.8495   -0.1645    3.9995 C.3       4 GLC5        0.0000 
     37 CA        -29.9750   -0.8900    4.7400 C.3      12 GLL5        0.0000 
     38 CA        -33.7240    0.5610    3.2590 C.3       8 GLP5        0.0000 
     39 CA        -29.2940   -2.9250    4.1905 C.3       4 GLC5        0.0000 
     40 CA        -28.6130   -4.9600    3.6410 C.3       8 GLP5        0.0000 
     41 CA        -28.9530    1.6210    6.0880 C.3       4 GLC5        0.0000 
     42 CA        -30.0080   -0.0860    6.0580 C.3      12 GLL5        0.0000 
     43 CA        -27.8980    3.3280    6.1180 C.3       8 GLP5        0.0000 
     44 N         -27.1455   -0.7570    8.2125 N.am      2 SEC2        0.0000 
     45 N         -28.0840   -1.1870    7.5780 N.am     10 SEL2        0.0000 
     46 N         -26.2070   -0.3270    8.8470 N.am      6 SEP2        0.0000 
     47 N         -27.4610   -2.4050    7.6035 N.am      2 SEC2        0.0000 
     48 N         -26.8380   -3.6230    7.6290 N.am      6 SEP2        0.0000 
     49 Zn        -30.3530   -2.0845   10.0335 Zn        3 ZIC7        0.0000 
     50 Zn        -29.9090   -2.1220    9.1870 Zn       11 ZIL7        0.0000 
     51 Zn        -30.7970   -2.0470   10.8800 Zn        7 ZIP7        0.0000 
     52 N         -27.8605    0.0355    8.8760 N.am      2 SEC2        0.0000 
     53 N         -29.5140    0.3980    8.9050 N.am     10 SEL2        0.0000 
     54 N         -29.3885   -0.5525   10.2995 N.am      2 SEC2        0.0000 
     55 N         -29.2630   -1.5030   11.6940 N.am      6 SEP2        0.0000 
     56 Zn        -31.0715   -1.0605   10.8380 Zn        3 ZIC7        0.0000 
     57 Zn        -31.3460   -0.0740   10.7960 Zn       11 ZIL7        0.0000 
     58 N         -31.4955    0.0520   12.1700 N.am      2 SEC2        0.0000 
     59 N         -31.3460   -0.0740   10.7960 N.am     10 SEL2        0.0000 
     60 N         -31.6450    0.1780   13.5440 N.am      6 SEP2        0.0000 
     61 N         -30.3045   -0.7885   11.2450 N.am      2 SEC2        0.0000 
     62 N         -30.5195    3.0985   11.0470 N.am      2 SEC2        0.0000 
     63 N         -30.0590    2.0030   10.7380 N.am     10 SEL2        0.0000 
     64 N         -30.9800    4.1940   11.3560 N.am      6 SEP2        0.0000 
     65 CA        -26.5157   -0.1653    1.9255 C.3       4 GLC5        0.0000 
     66 CA        -26.2050    0.7640    0.2590 C.3      12 GLL5        0.0000 
     67 CA        -26.2260   -0.8000    3.7690 C.3       8 GLP5        0.0000 
     68 CA        -27.6737    0.5360    3.3750 C.3       4 GLC5        0.0000 
     69 CA        -29.2770    1.6970    3.8260 C.3      12 GLL5        0.0000 
     70 CA        -31.0177    1.4940    2.5485 C.3       4 GLC5        0.0000 
     71 CA        -32.9140    1.1160    2.1160 C.3       8 GLP5        0.0000 
     72 CA        -28.6286    2.1390    4.6993 C.3       4 GLC5        0.0000 
     73 CA        -28.9660    2.0470    2.1360 C.3      12 GLL5        0.0000 
     74 CA        -31.0343   -0.7145    0.4903 C.3       4 GLC5        0.0000 
     75 CA        -29.4640   -0.2120    2.2160 C.3      12 GLL5        0.0000 
     76 CA        -27.9049   -0.8230    3.0072 C.3       4 GLC5        0.0000 
     77 CA        -31.2489    0.1350    2.1808 C.3       4 GLC5        0.0000 
     78 CA        -29.5970    0.0280    3.5800 C.3      12 GLL5        0.0000 
     79 CA        -28.1088   -0.6440    4.5840 C.3       4 GLC5        0.0000 
     80 CA        -31.3117   -2.0355    6.0615 C.3       4 GLC5        0.0000 
     81 CA        -32.6320   -3.5830    6.7240 C.3       8 GLP5        0.0000 
@<TRIPOS>BOND
@<TRIPOS>SUBSTRUCTURE
     1 ALC1       20 GROUP        1 X    ALC  0     ROOT ALC X 1
     2 SEC2       17 GROUP        1 X    SEC  0     **** SEC X 2
     3 ZIC7       49 GROUP        1 X    ZIC  0     **** ZIC X 5
     4 GLC5        1 GROUP        1 X    GLC  0     **** GLC X 6
     5 ALP1       22 GROUP        1 Y    ALP  0     ROOT ALP Y 8
     6 SEP2       19 GROUP        1 Y    SEP  0     **** SEP Y 9
     7 ZIP7       51 GROUP        1 Y    ZIP  0     **** ZIP Y 12
     8 GLP5        3 GROUP        1 Y    GLP  0     **** GLP Y 13
     9 ALL1       21 GROUP        1 Z    ALL  0     ROOT ALL Z 15
    10 SEL2       18 GROUP        1 Z    SEL  0     **** SEL Z 16
    11 ZIL7       50 GROUP        1 Z    ZIL  0     **** ZIL Z 19
    12 GLL5        2 GROUP        1 Z    GLL  0     **** GLL Z 20
@<TRIPOS>SET

