#    Name: 3rim_TPP_2_ligand
#    Modification time : Tue Mar 25 11:31:43 2014

@<TRIPOS>MOLECULE
3rim_TPP_2_ligand
   42    43     1     0     0
SMALL
NO_CHARGES


@<TRIPOS>ATOM
      1 N1'       -26.1490   -1.6740   -0.9080 N.ar      1 TPP1002     0.0000 
      2 C2'       -25.0140   -1.0990   -0.5380 C.ar      1 TPP1002     0.0000 
      3 CM2       -23.6890   -1.8040   -0.7980 C.3       1 TPP1002     0.0000 
      4 N3'       -25.0420    0.1010    0.0340 N.ar      1 TPP1002     0.0000 
      5 C4'       -26.2050    0.7640    0.2590 C.ar      1 TPP1002     0.0000 
      6 N4'       -26.1760    1.9440    0.8230 N.pl3     1 TPP1002     0.0000 
      7 C5'       -27.4060    0.1750   -0.0950 C.ar      1 TPP1002     0.0000 
      8 C6'       -27.3190   -1.0950   -0.6880 C.ar      1 TPP1002     0.0000 
      9 C7'       -28.7880    0.7710    0.0880 C.3       1 TPP1002     0.0000 
     10 N3        -29.0780    0.8740    1.4990 N.pl3     1 TPP1002     0.0000 
     11 C2        -28.9660    2.0470    2.1360 C.2       1 TPP1002     0.0000 
     12 S1        -29.2770    1.6970    3.8260 S.3       1 TPP1002     0.0000 
     13 C5        -29.5970    0.0280    3.5800 C.2       1 TPP1002     0.0000 
     14 C4        -29.4640   -0.2120    2.2160 C.2       1 TPP1002     0.0000 
     15 CM4       -29.6370   -1.6000    1.5930 C.3       1 TPP1002     0.0000 
     16 C6        -29.9750   -0.8900    4.7400 C.3       1 TPP1002     0.0000 
     17 C7        -30.0080   -0.0860    6.0580 C.3       1 TPP1002     0.0000 
     18 O7        -30.3810   -0.9570    7.0980 O.3       1 TPP1002     0.0000 
     19 PA        -29.4100   -1.1050    8.2390 P.3       1 TPP1002     0.0000 
     20 O1A       -28.0840   -1.1870    7.5780 O.co2     1 TPP1002     0.0000 
     21 O2A       -29.9090   -2.1220    9.1870 O.co2     1 TPP1002     0.0000 
     22 O3A       -29.5140    0.3980    8.9050 O.3       1 TPP1002     0.0000 
     23 PB        -30.7720    0.9690    9.7510 P.3       1 TPP1002     0.0000 
     24 O1B       -31.8680    1.4250    8.8740 O.co2     1 TPP1002     0.0000 
     25 O2B       -31.3460   -0.0740   10.7960 O.co2     1 TPP1002     0.0000 
     26 O3B       -30.0590    2.0030   10.7380 O.co2     1 TPP1002     0.0000 
     27 H         -26.9100    2.5727    0.5661 H         1 TPP1002     0.0000 
     28 H         -25.4224    2.1092    1.4593 H         1 TPP1002     0.0000 
     29 H         -28.2178   -1.5647   -0.9488 H         1 TPP1002     0.0000 
     30 H         -29.5107    0.1266   -0.4192 H         1 TPP1002     0.0000 
     31 H         -28.8061    1.7523   -0.3930 H         1 TPP1002     0.0000 
     32 H         -28.7916    2.9047    1.9753 H         1 TPP1002     0.0000 
     33 H         -29.2426   -1.6830    4.8302 H         1 TPP1002     0.0000 
     34 H         -30.9554   -1.3154    4.5630 H         1 TPP1002     0.0000 
     35 H         -30.7174    0.7318    5.9184 H         1 TPP1002     0.0000 
     36 H         -29.0127    0.3389    6.2008 H         1 TPP1002     0.0000 
     37 H         -22.9117   -1.2658   -0.4720 H         1 TPP1002     0.0000 
     38 H         -23.6442   -2.6914   -0.3391 H         1 TPP1002     0.0000 
     39 H         -23.5419   -1.9705   -1.7730 H         1 TPP1002     0.0000 
     40 H         -28.7853   -1.9350    1.1901 H         1 TPP1002     0.0000 
     41 H         -29.9275   -2.2770    2.2692 H         1 TPP1002     0.0000 
     42 H         -30.3241   -1.5979    0.8664 H         1 TPP1002     0.0000 
@<TRIPOS>BOND
     1    2    1 ar   
     2    8    1 ar   
     3    3    2 1    
     4    4    2 ar   
     5   37    3 1    
     6   38    3 1    
     7   39    3 1    
     8    5    4 ar   
     9    6    5 1    
    10    7    5 ar   
    11   27    6 1    
    12   28    6 1    
    13    8    7 ar   
    14    9    7 1    
    15   29    8 1    
    16   10    9 1    
    17   30    9 1    
    18   31    9 1    
    19   11   10 2    
    20   14   10 1    
    21   12   11 1    
    22   32   11 1    
    23   13   12 1    
    24   14   13 2    
    25   16   13 1    
    26   15   14 1    
    27   40   15 1    
    28   41   15 1    
    29   42   15 1    
    30   17   16 1    
    31   33   16 1    
    32   34   16 1    
    33   18   17 1    
    34   35   17 1    
    35   36   17 1    
    36   19   18 1    
    37   20   19 ar   
    38   21   19 ar   
    39   22   19 1    
    40   23   22 1    
    41   24   23 ar   
    42   25   23 ar   
    43   26   23 ar   
@<TRIPOS>SUBSTRUCTURE
     1 TPP1002     1 GROUP   
@<TRIPOS>SET

