#    Name: 3bhh_5CP_2_INTS_M
#    Modification time : Mon Mar 24 19:33:41 2014

@<TRIPOS>MOLECULE
3bhh_5CP_2_INTS_M
   54     0     9     0     0
SMALL
NO_CHARGES


@<TRIPOS>ATOM
      1 CA         32.8660   27.2625  -17.0645 C.3       3 GLC5        0.0000 
      2 CA         34.3900   26.1460  -17.1400 C.3       9 GLL5        0.0000 
      3 CA         31.3420   28.3790  -16.9890 C.3       6 GLP5        0.0000 
      4 CA         33.5955   25.6765  -20.9075 C.3       3 GLC5        0.0000 
      5 CA         35.0260   26.1430  -19.4610 C.3       9 GLL5        0.0000 
      6 CA         32.1650   25.2100  -22.3540 C.3       6 GLP5        0.0000 
      7 CA         33.3365   27.5980  -19.4270 C.3       3 GLC5        0.0000 
      8 CA         31.6470   29.0530  -19.3930 C.3       6 GLP5        0.0000 
      9 CA         31.7225   30.5555  -13.5995 C.3       3 GLC5        0.0000 
     10 CA         33.0460   29.6920  -12.5530 C.3       9 GLL5        0.0000 
     11 CA         30.3990   31.4190  -14.6460 C.3       6 GLP5        0.0000 
     12 CA         36.2945   28.9040  -12.0730 C.3       3 GLC5        0.0000 
     13 CA         34.3220   29.0760  -11.9930 C.3       9 GLL5        0.0000 
     14 CA         38.2670   28.7320  -12.1530 C.3       6 GLP5        0.0000 
     15 CA         34.0390   28.9345  -10.0300 C.3       3 GLC5        0.0000 
     16 CA         33.7560   28.7930   -8.0670 C.3       6 GLP5        0.0000 
     17 CA         32.7495   27.5070  -10.3705 C.3       3 GLC5        0.0000 
     18 CA         33.0520   28.2550  -12.0700 C.3       9 GLL5        0.0000 
     19 CA         32.4470   26.7590   -8.6710 C.3       6 GLP5        0.0000 
     20 O          32.0230   25.0640  -12.0535 O.2       1 ALC1        0.0000 
     21 O          32.5730   26.0070  -12.9380 O.2       7 ALL1        0.0000 
     22 O          31.4730   24.1210  -11.1690 O.2       4 ALP1        0.0000 
     23 N          32.1110   23.9575  -14.3095 N.am      2 SEC2        0.0000 
     24 N          32.8260   25.3680  -13.9720 N.am      8 SEL2        0.0000 
     25 N          31.3960   22.5470  -14.6470 N.am      5 SEP2        0.0000 
     26 O          33.1825   24.2640  -16.5350 O.2       1 ALC1        0.0000 
     27 O          33.9780   25.5070  -16.0410 O.2       7 ALL1        0.0000 
     28 O          32.3870   23.0210  -17.0290 O.2       4 ALP1        0.0000 
     29 CA         33.7575   24.6065  -21.4985 C.3       3 GLC5        0.0000 
     30 CA         35.3500   24.0030  -20.6430 C.3       9 GLL5        0.0000 
     31 CA         33.3095   28.5970  -18.8110 C.3       3 GLC5        0.0000 
     32 CA         34.9720   28.1410  -18.2290 C.3       9 GLL5        0.0000 
     33 CA         37.6325   31.0370  -13.5625 C.3       3 GLC5        0.0000 
     34 CA         36.2670   30.9170  -14.9190 C.3       9 GLL5        0.0000 
     35 CA         38.9980   31.1570  -12.2060 C.3       6 GLP5        0.0000 
     36 CA         32.4265   31.7895  -15.2260 C.3       3 GLC5        0.0000 
     37 CA         34.4540   32.1600  -15.8060 C.3       9 GLL5        0.0000 
     38 CA         33.4955   33.6815  -14.5820 C.3       3 GLC5        0.0000 
     39 CA         32.5370   35.2030  -13.3580 C.3       6 GLP5        0.0000 
     40 CA         37.1835   32.1105  -12.9025 C.3       3 GLC5        0.0000 
     41 CA         35.3690   33.0640  -13.5990 C.3       9 GLL5        0.0000 
     42 CA         35.8735   33.1155  -10.5415 C.3       3 GLC5        0.0000 
     43 CA         34.7600   32.7940  -12.3100 C.3       9 GLL5        0.0000 
     44 CA         36.9870   33.4370   -8.7730 C.3       6 GLP5        0.0000 
     45 CA         34.7555   26.9783  -11.7602 C.3       3 GLC5        0.0000 
     46 CA         35.8240   25.2910  -11.4890 C.3       6 GLP5        0.0000 
     47 CA         31.3012   27.3412  -12.0218 C.3       3 GLC5        0.0000 
     48 CA         33.1410   27.1820  -13.1210 C.3       9 GLL5        0.0000 
     49 CA         29.5060   26.9640  -11.4480 C.3       6 GLP5        0.0000 
     50 CA         34.6423   26.2510  -12.6022 C.3       3 GLC5        0.0000 
     51 CA         32.4013   27.7950  -15.3522 C.3       3 GLC5        0.0000 
     52 CA         33.0793   29.5678  -16.9812 C.3       3 GLC5        0.0000 
     53 CA         35.2470   30.2170  -17.0440 C.3       9 GLL5        0.0000 
     54 CA         33.8008   34.0660  -13.1562 C.3       3 GLC5        0.0000 
@<TRIPOS>BOND
@<TRIPOS>SUBSTRUCTURE
     1 ALC1       20 GROUP        1 X    ALC  0     ROOT ALC X 1
     2 SEC2       23 GROUP        1 X    SEC  0     **** SEC X 2
     3 GLC5        1 GROUP        1 X    GLC  0     **** GLC X 6
     4 ALP1       22 GROUP        1 Y    ALP  0     ROOT ALP Y 8
     5 SEP2       25 GROUP        1 Y    SEP  0     **** SEP Y 9
     6 GLP5        3 GROUP        1 Y    GLP  0     **** GLP Y 13
     7 ALL1       21 GROUP        1 Z    ALL  0     ROOT ALL Z 15
     8 SEL2       24 GROUP        1 Z    SEL  0     **** SEL Z 16
     9 GLL5        2 GROUP        1 Z    GLL  0     **** GLL Z 20
@<TRIPOS>SET

