#    Name: 3bhh_5CP_2_ligand
#    Modification time : Mon Mar 24 19:33:41 2014

@<TRIPOS>MOLECULE
3bhh_5CP_2_ligand
   47    50     1     0     0
SMALL
NO_CHARGES


@<TRIPOS>ATOM
      1 C4         34.3900   26.1460  -17.1400 C.ar      1 5CP600      0.0000 
      2 C5         34.6030   25.4470  -18.3230 C.ar      1 5CP600      0.0000 
      3 C6         35.0260   26.1430  -19.4610 C.ar      1 5CP600      0.0000 
      4 N1         35.1680   27.4730  -19.3930 N.ar      1 5CP600      0.0000 
      5 N3         34.5890   27.4570  -17.1350 N.ar      1 5CP600      0.0000 
      6 C1U        33.0460   29.6920  -12.5530 C.3       1 5CP600      0.0000 
      7 C1W        34.3220   29.0760  -11.9930 C.3       1 5CP600      0.0000 
      8 C1T        33.0520   28.2550  -12.0700 C.3       1 5CP600      0.0000 
      9 C1R        33.1410   27.1820  -13.1210 C.2       1 5CP600      0.0000 
     10 C1S        33.7800   27.2400  -14.3100 C.2       1 5CP600      0.0000 
     11 N1Q        32.5730   26.0070  -12.9380 N.pl3     1 5CP600      0.0000 
     12 N1P        32.8260   25.3680  -13.9720 N.2       1 5CP600      0.0000 
     13 C1H        33.5390   26.0560  -14.8630 C.2       1 5CP600      0.0000 
     14 N1G        33.9780   25.5070  -16.0410 N.pl3     1 5CP600      0.0000 
     15 N1X        35.2510   25.4940  -20.6120 N.pl3     1 5CP600      0.0000 
     16 C1Y        35.3500   24.0030  -20.6430 C.3       1 5CP600      0.0000 
     17 C2         34.9720   28.1410  -18.2290 C.ar      1 5CP600      0.0000 
     18 N1I        35.1410   29.4790  -18.1640 N.pl3     1 5CP600      0.0000 
     19 C1J        35.2470   30.2170  -17.0440 C.ar      1 5CP600      0.0000 
     20 C1O        36.2250   30.0460  -16.0300 C.ar      1 5CP600      0.0000 
     21 C1N        36.2670   30.9170  -14.9190 C.ar      1 5CP600      0.0000 
     22 C1K        34.3860   31.2960  -16.9030 C.ar      1 5CP600      0.0000 
     23 C1L        34.4540   32.1600  -15.8060 C.ar      1 5CP600      0.0000 
     24 C1M        35.3550   31.9880  -14.7720 C.ar      1 5CP600      0.0000 
     25 C1V        35.3690   33.0640  -13.5990 C.3       1 5CP600      0.0000 
     26 C1Z        34.7600   32.7940  -12.3100 C.1       1 5CP600      0.0000 
     27 N1A        34.2770   32.7370  -11.2700 N.1       1 5CP600      0.0000 
     28 H          34.4536   24.4375  -18.3651 H         1 5CP600      0.0000 
     29 H          33.1137   29.6815  -13.4968 H         1 5CP600      0.0000 
     30 H          32.6633   30.2258  -11.8718 H         1 5CP600      0.0000 
     31 H          34.4193   29.3800  -11.1018 H         1 5CP600      0.0000 
     32 H          34.8697   28.8357  -12.7268 H         1 5CP600      0.0000 
     33 H          32.6815   28.2156  -11.2189 H         1 5CP600      0.0000 
     34 H          34.2784   27.9611  -14.6549 H         1 5CP600      0.0000 
     35 H          32.0740   25.7448  -12.1462 H         1 5CP600      0.0000 
     36 H          33.9870   24.4124  -16.0714 H         1 5CP600      0.0000 
     37 H          35.3661   25.9650  -21.5177 H         1 5CP600      0.0000 
     38 H          35.1967   30.0104  -19.1103 H         1 5CP600      0.0000 
     39 H          36.9044   29.2840  -16.1072 H         1 5CP600      0.0000 
     40 H          36.9863   30.7678  -14.1902 H         1 5CP600      0.0000 
     41 H          33.6654   31.4714  -17.6345 H         1 5CP600      0.0000 
     42 H          33.7906   32.9709  -15.7723 H         1 5CP600      0.0000 
     43 H          34.9297   34.0118  -14.0578 H         1 5CP600      0.0000 
     44 H          36.4657   33.3515  -13.4705 H         1 5CP600      0.0000 
     45 H          35.5222   23.6614  -21.5669 H         1 5CP600      0.0000 
     46 H          36.0929   23.6680  -20.0634 H         1 5CP600      0.0000 
     47 H          34.5087   23.5682  -20.3218 H         1 5CP600      0.0000 
@<TRIPOS>BOND
     1    2    1 ar   
     2    5    1 ar   
     3   14    1 1    
     4    3    2 ar   
     5   28    2 1    
     6    4    3 ar   
     7   15    3 1    
     8   17    4 ar   
     9   17    5 ar   
    10    7    6 1    
    11    8    6 1    
    12   29    6 1    
    13   30    6 1    
    14    8    7 1    
    15   31    7 1    
    16   32    7 1    
    17    9    8 1    
    18   33    8 1    
    19   10    9 2    
    20   11    9 1    
    21   13   10 1    
    22   34   10 1    
    23   12   11 1    
    24   35   11 1    
    25   13   12 2    
    26   14   13 1    
    27   36   14 1    
    28   16   15 1    
    29   37   15 1    
    30   45   16 1    
    31   46   16 1    
    32   47   16 1    
    33   18   17 1    
    34   19   18 1    
    35   38   18 1    
    36   20   19 ar   
    37   22   19 ar   
    38   21   20 ar   
    39   39   20 1    
    40   24   21 ar   
    41   40   21 1    
    42   23   22 ar   
    43   41   22 1    
    44   24   23 ar   
    45   42   23 1    
    46   25   24 1    
    47   26   25 1    
    48   43   25 1    
    49   44   25 1    
    50   27   26 3    
@<TRIPOS>SUBSTRUCTURE
     1 5CP600      1 GROUP   
@<TRIPOS>SET

