#    Name: 1syn_F89_1_INTS_M
#    Modification time : Tue Mar 25 03:59:26 2014

@<TRIPOS>MOLECULE
1syn_F89_1_INTS_M
   62     0     9     0     0
SMALL
NO_CHARGES


@<TRIPOS>ATOM
      1 O          13.4790   19.9935   33.9435 O.2       1 ALC1        0.0000 
      2 O          13.8690   18.9970   33.0040 O.2       7 ALL1        0.0000 
      3 O          13.0890   20.9900   34.8830 O.2       4 ALP1        0.0000 
      4 CA         11.8705   22.0225   32.6795 C.3       3 GLC5        0.0000 
      5 CA         12.1070   20.2660   31.8200 C.3       9 GLL5        0.0000 
      6 CA         11.6340   23.7790   33.5390 C.3       6 GLP5        0.0000 
      7 CA         11.0700   18.5585   32.1140 C.3       3 GLC5        0.0000 
      8 CA         10.0330   16.8510   32.4080 C.3       6 GLP5        0.0000 
      9 CA         10.1130   21.1250   31.8445 C.3       3 GLC5        0.0000 
     10 CA          8.1190   21.9840   31.8690 C.3       6 GLP5        0.0000 
     11 CA         13.4465   21.0955   30.7990 C.3       3 GLC5        0.0000 
     12 CA         14.7860   21.9250   29.7780 C.3       6 GLP5        0.0000 
     13 CA         12.0920   17.0845   31.6485 C.3       3 GLC5        0.0000 
     14 CA         14.1510   17.3180   30.8890 C.3       9 GLL5        0.0000 
     15 CA         17.2040   17.0740   34.6320 C.3       3 GLC5        0.0000 
     16 CA         16.9190   15.8370   32.9370 C.3       9 GLL5        0.0000 
     17 CA         17.4890   18.3110   36.3270 C.3       6 GLP5        0.0000 
     18 CA         13.9565   15.2075   32.4550 C.3       3 GLC5        0.0000 
     19 CA         14.9940   17.1220   32.0090 C.3       9 GLL5        0.0000 
     20 CA         12.9190   13.2930   32.9010 C.3       6 GLP5        0.0000 
     21 CA         19.4235   14.2440   35.7755 C.3       3 GLC5        0.0000 
     22 CA         18.7270   14.4680   33.9600 C.3       9 GLL5        0.0000 
     23 CA         20.1200   14.0200   37.5910 C.3       6 GLP5        0.0000 
     24 O          20.2890   12.3185   33.4685 O.2       1 ALC1        0.0000 
     25 O          18.9910   13.0500   34.1820 O.2       7 ALL1        0.0000 
     26 O          21.5870   11.5870   32.7550 O.2       4 ALP1        0.0000 
     27 CA         15.5590   12.6390   33.9685 C.3       3 GLC5        0.0000 
     28 CA         16.9390   12.7190   35.5410 C.3       9 GLL5        0.0000 
     29 CA         14.1790   12.5590   32.3960 C.3       6 GLP5        0.0000 
     30 CA         15.1625   11.4360   34.3825 C.3       3 GLC5        0.0000 
     31 CA         16.1060   11.8480   36.2470 C.3       9 GLL5        0.0000 
     32 CA         14.2190   11.0240   32.5180 C.3       6 GLP5        0.0000 
     33 CA         17.2490    8.2985   34.2320 C.3       3 GLC5        0.0000 
     34 CA         17.4800    9.9450   35.6640 C.3       9 GLL5        0.0000 
     35 CA         17.0180    6.6520   32.8000 C.3       6 GLP5        0.0000 
     36 CA         15.9165   12.7765   38.2935 C.3       3 GLC5        0.0000 
     37 CA         14.8870   12.1420   36.9880 C.3       9 GLL5        0.0000 
     38 CA         16.9460   13.4110   39.5990 C.3       6 GLP5        0.0000 
     39 N          11.1710    6.8780   35.1500 N.am      2 SEC2        0.0000 
     40 N          11.1070    6.5910   36.5380 N.am      8 SEL2        0.0000 
     41 N          11.2350    7.1650   33.7620 N.am      5 SEP2        0.0000 
     42 CA         15.5695   17.0225   28.0557 C.3       3 GLC5        0.0000 
     43 CA         14.1870   16.4410   29.7980 C.3       9 GLL5        0.0000 
     44 CA         16.3830   17.9900   26.4150 C.3       6 GLP5        0.0000 
     45 CA         15.7635   13.3092   31.7853 C.3       3 GLC5        0.0000 
     46 CA         16.9290   14.2140   30.6380 C.3       9 GLL5        0.0000 
     47 CA         15.7675   13.9232   32.6440 C.3       3 GLC5        0.0000 
     48 CA         17.9330   16.7467   31.7510 C.3       3 GLC5        0.0000 
     49 CA         17.7930   14.7380   32.8470 C.3       9 GLL5        0.0000 
     50 CA         18.5100   18.2060   30.6100 C.3       6 GLP5        0.0000 
     51 CA         15.0158   14.1825   31.7141 C.3       3 GLC5        0.0000 
     52 CA         16.0000   16.1130   31.9080 C.3       9 GLL5        0.0000 
     53 CA         17.3343   16.8454   30.8813 C.3       3 GLC5        0.0000 
     54 CA         16.0463   18.0829   30.8826 C.3       3 GLC5        0.0000 
     55 CA         17.5110   19.1650   30.5890 C.3       6 GLP5        0.0000 
     56 CA         16.9005   10.9957   33.5448 C.3       3 GLC5        0.0000 
     57 CA         18.0780   12.1900   34.8990 C.3       9 GLL5        0.0000 
     58 CA         15.5920   10.4940   32.1640 C.3       6 GLP5        0.0000 
     59 CA         18.8143   13.2372   36.4055 C.3       3 GLC5        0.0000 
     60 CA         16.2587   10.3577   34.0812 C.3       3 GLC5        0.0000 
     61 CA         18.0294    8.8671   36.4771 C.3       3 GLC5        0.0000 
     62 CA         18.4260    7.2210   37.4790 C.3       6 GLP5        0.0000 
@<TRIPOS>BOND
@<TRIPOS>SUBSTRUCTURE
     1 ALC1        1 GROUP        1 X    ALC  0     ROOT ALC X 1
     2 SEC2       39 GROUP        1 X    SEC  0     **** SEC X 2
     3 GLC5        4 GROUP        1 X    GLC  0     **** GLC X 6
     4 ALP1        3 GROUP        1 Y    ALP  0     ROOT ALP Y 8
     5 SEP2       41 GROUP        1 Y    SEP  0     **** SEP Y 9
     6 GLP5        6 GROUP        1 Y    GLP  0     **** GLP Y 13
     7 ALL1        2 GROUP        1 Z    ALL  0     ROOT ALL Z 15
     8 SEL2       40 GROUP        1 Z    SEL  0     **** SEL Z 16
     9 GLL5        5 GROUP        1 Z    GLL  0     **** GLL Z 20
@<TRIPOS>SET

