#    Name: 1syn_F89_1_ligand
#    Modification time : Tue Mar 25 03:59:26 2014

@<TRIPOS>MOLECULE
1syn_F89_1_ligand
   59    63     1     0     0
SMALL
NO_CHARGES


@<TRIPOS>ATOM
      1 C1         14.7360   17.9660   33.1400 C.2       1 F89301      0.0000 
      2 O1A        15.1760   17.7760   34.2730 O.2       1 F89301      0.0000 
      3 N2         13.8690   18.9970   33.0040 N.am      1 F89301      0.0000 
      4 C3         13.1190   19.1680   31.9000 C.2       1 F89301      0.0000 
      5 C3M        12.1070   20.2660   31.8200 C.3       1 F89301      0.0000 
      6 N4         13.2810   18.3350   30.8590 N.2       1 F89301      0.0000 
      7 C4A        14.1510   17.3180   30.8890 C.ar      1 F89301      0.0000 
      8 C5         14.1870   16.4410   29.7980 C.ar      1 F89301      0.0000 
      9 C6         15.3250   15.6690   29.5950 C.ar      1 F89301      0.0000 
     10 C6A        16.0850   15.3290   30.7180 C.ar      1 F89301      0.0000 
     11 C7         16.9290   14.2140   30.6380 C.ar      1 F89301      0.0000 
     12 C8         17.7670   13.9050   31.7110 C.ar      1 F89301      0.0000 
     13 C9         17.7930   14.7380   32.8470 C.ar      1 F89301      0.0000 
     14 C10        16.9190   15.8370   32.9370 C.ar      1 F89301      0.0000 
     15 C1B        16.0000   16.1130   31.9080 C.ar      1 F89301      0.0000 
     16 C1A        14.9940   17.1220   32.0090 C.ar      1 F89301      0.0000 
     17 C11        18.7270   14.4680   33.9600 C.3       1 F89301      0.0000 
     18 N12        18.9910   13.0500   34.1820 N.pl3     1 F89301      0.0000 
     19 C13        18.0780   12.1900   34.8990 C.ar      1 F89301      0.0000 
     20 C14        16.9390   12.7190   35.5410 C.ar      1 F89301      0.0000 
     21 C15        16.1060   11.8480   36.2470 C.ar      1 F89301      0.0000 
     22 C16        16.3710   10.4980   36.3330 C.ar      1 F89301      0.0000 
     23 C17        17.4800    9.9450   35.6640 C.ar      1 F89301      0.0000 
     24 C18        18.3400   10.8050   34.9520 C.ar      1 F89301      0.0000 
     25 C19        14.8870   12.1420   36.9880 C.3       1 F89301      0.0000 
     26 C          15.3900    9.8680   37.1950 C.2       1 F89301      0.0000 
     27 O          15.4310    8.7150   37.6460 O.2       1 F89301      0.0000 
     28 N          14.5070   10.8360   37.5300 N.am      1 F89301      0.0000 
     29 CA         13.0330   10.8010   37.6030 C.3       1 F89301      0.0000 
     30 CT         12.5530   11.5850   38.8450 C.2       1 F89301      0.0000 
     31 O1         11.9920   12.6720   38.6720 O.co2     1 F89301      0.0000 
     32 O2         12.7940   11.1640   39.9860 O.co2     1 F89301      0.0000 
     33 CB         12.5280    9.3410   37.6720 C.3       1 F89301      0.0000 
     34 CG         11.4820    8.9490   36.6280 C.3       1 F89301      0.0000 
     35 CD         10.6990    7.6760   36.9730 C.2       1 F89301      0.0000 
     36 OE1        11.1070    6.5910   36.5380 O.co2     1 F89301      0.0000 
     37 OE2         9.6460    7.7460   37.6120 O.co2     1 F89301      0.0000 
     38 H          13.7805   19.6921   33.7973 H         1 F89301      0.0000 
     39 H          13.3904   16.3733   29.1665 H         1 F89301      0.0000 
     40 H          15.5961   15.3630   28.6713 H         1 F89301      0.0000 
     41 H          16.9298   13.6309   29.7976 H         1 F89301      0.0000 
     42 H          18.3650   13.0741   31.6779 H         1 F89301      0.0000 
     43 H          16.9523   16.4460   33.7652 H         1 F89301      0.0000 
     44 H          18.3210   14.9252   34.8928 H         1 F89301      0.0000 
     45 H          19.6863   15.0030   33.7660 H         1 F89301      0.0000 
     46 H          19.8629   12.6530   33.8111 H         1 F89301      0.0000 
     47 H          16.7349   13.7105   35.4875 H         1 F89301      0.0000 
     48 H          17.6567    8.9476   35.6937 H         1 F89301      0.0000 
     49 H          19.1592   10.4231   34.4706 H         1 F89301      0.0000 
     50 H          14.1232   12.5105   36.3308 H         1 F89301      0.0000 
     51 H          15.0844   12.8339   37.7839 H         1 F89301      0.0000 
     52 H          12.6035   11.2645   36.7299 H         1 F89301      0.0000 
     53 H          12.1108    9.1647   38.6837 H         1 F89301      0.0000 
     54 H          13.4020    8.6659   37.5774 H         1 F89301      0.0000 
     55 H          11.9819    8.8057   35.6562 H         1 F89301      0.0000 
     56 H          10.7698    9.7811   36.5043 H         1 F89301      0.0000 
     57 H          12.5281   21.1673   31.9217 H         1 F89301      0.0000 
     58 H          11.6259   20.2645   30.9433 H         1 F89301      0.0000 
     59 H          11.4130   20.1843   32.5353 H         1 F89301      0.0000 
@<TRIPOS>BOND
     1    2    1 2    
     2    3    1 am   
     3   16    1 1    
     4    4    3 1    
     5   38    3 1    
     6    5    4 1    
     7    6    4 2    
     8   57    5 1    
     9   58    5 1    
    10   59    5 1    
    11    7    6 1    
    12    8    7 ar   
    13   16    7 ar   
    14    9    8 ar   
    15   39    8 1    
    16   10    9 ar   
    17   40    9 1    
    18   11   10 ar   
    19   15   10 ar   
    20   12   11 ar   
    21   41   11 1    
    22   13   12 ar   
    23   42   12 1    
    24   14   13 ar   
    25   17   13 1    
    26   15   14 ar   
    27   43   14 1    
    28   16   15 ar   
    29   18   17 1    
    30   44   17 1    
    31   45   17 1    
    32   19   18 1    
    33   46   18 1    
    34   20   19 ar   
    35   24   19 ar   
    36   21   20 ar   
    37   47   20 1    
    38   22   21 ar   
    39   25   21 1    
    40   23   22 ar   
    41   26   22 1    
    42   24   23 ar   
    43   48   23 1    
    44   49   24 1    
    45   28   25 1    
    46   50   25 1    
    47   51   25 1    
    48   27   26 2    
    49   28   26 am   
    50   29   28 1    
    51   30   29 1    
    52   33   29 1    
    53   52   29 1    
    54   31   30 ar   
    55   32   30 ar   
    56   34   33 1    
    57   53   33 1    
    58   54   33 1    
    59   35   34 1    
    60   55   34 1    
    61   56   34 1    
    62   36   35 ar   
    63   37   35 ar   
@<TRIPOS>SUBSTRUCTURE
     1 F89301      1 GROUP   
@<TRIPOS>SET

