#    Name: 1z8o_DEB_1_INTS_M
#    Modification time : Tue Mar 25 11:36:43 2014

@<TRIPOS>MOLECULE
1z8o_DEB_1_INTS_M
   45     0     3     0     0
SMALL
NO_CHARGES


@<TRIPOS>ATOM
      1 CA         17.8255    7.8935   14.7415 C.3       1 GLC5        0.0000 
      2 CA         16.1910    6.9340   14.1200 C.3       3 GLL5        0.0000 
      3 CA         19.4600    8.8530   15.3630 C.3       2 GLP5        0.0000 
      4 CA         11.8930    4.5820   18.6865 C.3       1 GLC5        0.0000 
      5 CA         11.2300    5.9600   17.6830 C.3       3 GLL5        0.0000 
      6 CA         12.5560    3.2040   19.6900 C.3       2 GLP5        0.0000 
      7 CA         17.1935    6.5255   17.7625 C.3       1 GLC5        0.0000 
      8 CA         16.2340    5.5550   16.2160 C.3       3 GLL5        0.0000 
      9 CA         18.1530    7.4960   19.3090 C.3       2 GLP5        0.0000 
     10 CA         18.1000    4.5075   16.4305 C.3       1 GLC5        0.0000 
     11 CA         19.9660    3.4600   16.6450 C.3       2 GLP5        0.0000 
     12 CA         12.9925    5.8570   12.4615 C.3       1 GLC5        0.0000 
     13 CA         14.6510    6.6460   12.1050 C.3       3 GLL5        0.0000 
     14 CA         11.3340    5.0680   12.8180 C.3       2 GLP5        0.0000 
     15 CA         15.9550    5.2545   11.3010 C.3       1 GLC5        0.0000 
     16 CA         17.2590    3.8630   10.4970 C.3       2 GLP5        0.0000 
     17 CA         15.1270    7.8285    8.5180 C.3       1 GLC5        0.0000 
     18 CA         15.1910    9.1050    9.8880 C.3       3 GLL5        0.0000 
     19 CA         15.0630    6.5520    7.1480 C.3       2 GLP5        0.0000 
     20 CA         11.7850   14.2430   13.8830 C.3       1 GLC5        0.0000 
     21 CA         11.4040   12.3430   14.5450 C.3       3 GLL5        0.0000 
     22 CA         12.1660   16.1430   13.2210 C.3       2 GLP5        0.0000 
     23 CA         10.1910   13.2455   15.4555 C.3       1 GLC5        0.0000 
     24 CA          8.9780   14.1480   16.3660 C.3       2 GLP5        0.0000 
     25 CA          9.3035    7.3205   14.6030 C.3       1 GLC5        0.0000 
     26 CA         10.9200    8.6170   14.0570 C.3       3 GLL5        0.0000 
     27 CA          7.6870    6.0240   15.1490 C.3       2 GLP5        0.0000 
     28 CA         11.1270    6.8425   13.4375 C.3       1 GLC5        0.0000 
     29 CA         15.7940    3.9158   15.7570 C.3       1 GLC5        0.0000 
     30 CA         15.3460    6.2500   15.1880 C.3       3 GLL5        0.0000 
     31 CA         15.7980    1.9290   15.8120 C.3       2 GLP5        0.0000 
     32 CA         17.2235    9.1182   13.7470 C.3       1 GLC5        0.0000 
     33 CA         15.3380    7.6950   13.0370 C.3       3 GLL5        0.0000 
     34 CA         18.6460   10.0350   14.8480 C.3       2 GLP5        0.0000 
     35 CA         15.9310   12.2240   14.9937 C.3       1 GLC5        0.0000 
     36 CA         14.9990   11.3330   13.1930 C.3       3 GLL5        0.0000 
     37 CA         16.2490   12.6680   16.8720 C.3       2 GLP5        0.0000 
     38 CA         17.1295   10.9075   13.9818 C.3       1 GLC5        0.0000 
     39 CA         16.2270   12.2270   13.0380 C.3       3 GLL5        0.0000 
     40 CA          9.3643    6.2750   16.1767 C.3       1 GLC5        0.0000 
     41 CA         10.8530    7.0920   16.7260 C.3       3 GLL5        0.0000 
     42 CA          9.6777    7.8435   17.9917 C.3       1 GLC5        0.0000 
     43 CA          8.3140    9.1610   18.7790 C.3       2 GLP5        0.0000 
     44 CA         11.2432    4.9890   15.9627 C.3       1 GLC5        0.0000 
     45 CA         11.4450    3.4520   14.7210 C.3       2 GLP5        0.0000 
@<TRIPOS>BOND
@<TRIPOS>SUBSTRUCTURE
     1 GLC5        1 GROUP        1 X    GLC  0     ROOT GLC X 6
     2 GLP5        3 GROUP        1 Y    GLP  0     ROOT GLP Y 13
     3 GLL5        2 GROUP        1 Z    GLL  0     ROOT GLL Z 20
@<TRIPOS>SET

