#    Name: 1z8o_DEB_1_ligand
#    Modification time : Tue Mar 25 11:36:43 2014

@<TRIPOS>MOLECULE
1z8o_DEB_1_ligand
   65    65     1     0     0
SMALL
NO_CHARGES


@<TRIPOS>ATOM
      1 C1         14.4090    7.2880   15.8920 C.2       1 DEB420      0.0000 
      2 C2         15.3460    6.2500   15.1880 C.3       1 DEB420      0.0000 
      3 C3         16.1910    6.9340   14.1200 C.3       1 DEB420      0.0000 
      4 C4         15.3380    7.6950   13.0370 C.3       1 DEB420      0.0000 
      5 C5         16.2640    8.7080   12.2550 C.3       1 DEB420      0.0000 
      6 C6         15.7740    9.7330   11.1720 C.3       1 DEB420      0.0000 
      7 C7         14.6570   10.5980   11.8330 C.3       1 DEB420      0.0000 
      8 C8         14.9990   11.3330   13.1930 C.3       1 DEB420      0.0000 
      9 C9         13.8120   12.1550   13.7490 C.2       1 DEB420      0.0000 
     10 C10        12.4750   11.3860   13.9730 C.3       1 DEB420      0.0000 
     11 C11        12.7320   10.1450   14.9440 C.3       1 DEB420      0.0000 
     12 C12        11.5850    9.1780   15.3510 C.3       1 DEB420      0.0000 
     13 C13        12.0300    8.0180   16.3180 C.3       1 DEB420      0.0000 
     14 C14        10.8530    7.0920   16.7260 C.3       1 DEB420      0.0000 
     15 C15        11.2300    5.9600   17.6830 C.3       1 DEB420      0.0000 
     16 O16        13.0390    7.1600   15.7240 O.3       1 DEB420      0.0000 
     17 O17        14.8490    8.2170   16.5930 O.2       1 DEB420      0.0000 
     18 C18        16.2340    5.5550   16.2160 C.3       1 DEB420      0.0000 
     19 O19        17.0520    5.9430   13.4990 O.3       1 DEB420      0.0000 
     20 C20        14.6510    6.6460   12.1050 C.3       1 DEB420      0.0000 
     21 O21        17.3190    7.9460   11.6110 O.3       1 DEB420      0.0000 
     22 C22        15.1910    9.1050    9.8880 C.3       1 DEB420      0.0000 
     23 C23        16.2270   12.2270   13.0380 C.3       1 DEB420      0.0000 
     24 O24        13.9260   13.3600   14.0110 O.2       1 DEB420      0.0000 
     25 C25        11.4040   12.3430   14.5450 C.3       1 DEB420      0.0000 
     26 O26        13.3360   10.6480   16.1810 O.3       1 DEB420      0.0000 
     27 C27        10.9200    8.6170   14.0570 C.3       1 DEB420      0.0000 
     28 H          14.7147    5.5097   14.7148 H         1 DEB420      0.0000 
     29 H          16.8131    7.6889   14.6197 H         1 DEB420      0.0000 
     30 H          14.5799    8.2526   13.5547 H         1 DEB420      0.0000 
     31 H          16.7989    9.3248   13.0456 H         1 DEB420      0.0000 
     32 H          16.5806   10.3912   10.9256 H         1 DEB420      0.0000 
     33 H          13.7693    9.9545   12.0111 H         1 DEB420      0.0000 
     34 H          14.3296   11.3704   11.1049 H         1 DEB420      0.0000 
     35 H          15.2400   10.5551   13.9255 H         1 DEB420      0.0000 
     36 H          12.1429   11.0000   13.0298 H         1 DEB420      0.0000 
     37 H          13.5236    9.5228   14.4472 H         1 DEB420      0.0000 
     38 H          10.8198    9.7695   15.8674 H         1 DEB420      0.0000 
     39 H          12.4128    8.4681   17.2286 H         1 DEB420      0.0000 
     40 H          10.4176    6.6609   15.8085 H         1 DEB420      0.0000 
     41 H          10.0688    7.7134   17.1908 H         1 DEB420      0.0000 
     42 H          11.9216    5.3550   17.2885 H         1 DEB420      0.0000 
     43 H          11.6022    6.3092   18.5430 H         1 DEB420      0.0000 
     44 H          10.4408    5.3912   17.9147 H         1 DEB420      0.0000 
     45 H          16.8448    4.8883   15.7889 H         1 DEB420      0.0000 
     46 H          16.8103    6.2062   16.7098 H         1 DEB420      0.0000 
     47 H          15.6953    5.0630   16.9000 H         1 DEB420      0.0000 
     48 H          15.3210    6.0675   11.6397 H         1 DEB420      0.0000 
     49 H          14.0428    6.0379   12.6152 H         1 DEB420      0.0000 
     50 H          14.0994    7.0845   11.3955 H         1 DEB420      0.0000 
     51 H          15.8615    8.5311    9.4178 H         1 DEB420      0.0000 
     52 H          14.3976    8.5285   10.0837 H         1 DEB420      0.0000 
     53 H          14.8931    9.8021    9.2358 H         1 DEB420      0.0000 
     54 H          17.0362   11.7035   12.7712 H         1 DEB420      0.0000 
     55 H          16.0891   12.9296   12.3399 H         1 DEB420      0.0000 
     56 H          16.4518   12.7002   13.8898 H         1 DEB420      0.0000 
     57 H          11.6874   12.7378   15.4189 H         1 DEB420      0.0000 
     58 H          11.2184   13.1056   13.9253 H         1 DEB420      0.0000 
     59 H          10.5343   11.8753   14.7030 H         1 DEB420      0.0000 
     60 H          11.5755    8.1206   13.4878 H         1 DEB420      0.0000 
     61 H          10.1753    7.9834   14.2668 H         1 DEB420      0.0000 
     62 H          10.5341    9.3461   13.4917 H         1 DEB420      0.0000 
     63 H          17.9677    6.1402   13.8490 H         1 DEB420      0.0000 
     64 H          17.4023    7.1100   12.1533 H         1 DEB420      0.0000 
     65 H          13.6068    9.8297   16.6880 H         1 DEB420      0.0000 
@<TRIPOS>BOND
     1    2    1 1    
     2   16    1 1    
     3   17    1 2    
     4    3    2 1    
     5   18    2 1    
     6   28    2 1    
     7    4    3 1    
     8   19    3 1    
     9   29    3 1    
    10    5    4 1    
    11   20    4 1    
    12   30    4 1    
    13    6    5 1    
    14   21    5 1    
    15   31    5 1    
    16    7    6 1    
    17   22    6 1    
    18   32    6 1    
    19    8    7 1    
    20   33    7 1    
    21   34    7 1    
    22    9    8 1    
    23   23    8 1    
    24   35    8 1    
    25   10    9 1    
    26   24    9 2    
    27   11   10 1    
    28   25   10 1    
    29   36   10 1    
    30   12   11 1    
    31   26   11 1    
    32   37   11 1    
    33   13   12 1    
    34   27   12 1    
    35   38   12 1    
    36   14   13 1    
    37   16   13 1    
    38   39   13 1    
    39   15   14 1    
    40   40   14 1    
    41   41   14 1    
    42   42   15 1    
    43   43   15 1    
    44   44   15 1    
    45   45   18 1    
    46   46   18 1    
    47   47   18 1    
    48   63   19 1    
    49   48   20 1    
    50   49   20 1    
    51   50   20 1    
    52   64   21 1    
    53   51   22 1    
    54   52   22 1    
    55   53   22 1    
    56   54   23 1    
    57   55   23 1    
    58   56   23 1    
    59   57   25 1    
    60   58   25 1    
    61   59   25 1    
    62   65   26 1    
    63   60   27 1    
    64   61   27 1    
    65   62   27 1    
@<TRIPOS>SUBSTRUCTURE
     1 DEB420      1 GROUP   
@<TRIPOS>SET

