#    Name: 3U17_1_CAVITY_N1_6.mol2
#    Modification time : Tue Mar 11 05:42:38 2014

@<TRIPOS>MOLECULE
3U17_1_CAVITY_N1_6.mol2
   96     0     5     0     0
SMALL
NO_CHARGES


@<TRIPOS>ATOM
      1 N         -16.1413   -1.5443   11.1848 N.2       1 ALA2        0.0000 
      2 O         -17.4334   -0.7867   11.2667 O.2       1 ALA2        0.0000 
      3 N         -16.8666   -2.7175   10.5952 N.2       1 ALA2        0.0000 
      4 O         -17.5918   -3.8907   10.0057 O.2       1 ALA2        0.0000 
      5 O         -19.6091   -4.3063    9.4980 O.2       1 ALA2        0.0000 
      6 DU        -20.3344   -5.4795    8.9084 H         5 CUB7        0.0000 
      7 CA        -21.6265   -4.7220    8.9903 C.3       4 GLY6        0.0000 
      8 CA        -22.9185   -3.9644    9.0722 C.3       4 GLY6        0.0000 
      9 CA        -21.0597   -6.6527    8.3188 C.3       4 GLY6        0.0000 
     10 CA        -21.7849   -7.8259    7.7292 C.3       4 GLY6        0.0000 
     11 CA        -22.5102   -8.9991    7.1396 C.3       4 GLY6        0.0000 
     12 CA        -19.1928   -1.1241   14.1023 C.3       4 GLY6        0.0000 
     13 N         -17.3340   -3.8124   13.3489 N.2       1 ALA2        0.0000 
     14 CA        -18.6260   -3.0548   13.4308 C.3       4 GLY6        0.0000 
     15 CA        -19.9181   -2.2973   13.5127 C.3       4 GLY6        0.0000 
     16 N         -18.0593   -4.9856   12.7593 N.2       1 ALA2        0.0000 
     17 DU        -19.3513   -4.2280   12.8412 H         5 CUB7        0.0000 
     18 N         -20.6433   -3.4705   12.9231 N.2       1 ALA2        0.0000 
     19 CA        -18.7845   -6.1588   12.1698 C.3       4 GLY6        0.0000 
     20 DU        -20.0766   -5.4012   12.2517 H         5 CUB7        0.0000 
     21 N         -21.3686   -4.6437   12.3336 N.2       1 ALA2        0.0000 
     22 CA        -18.2177   -8.0896   11.4983 C.3       4 GLY6        0.0000 
     23 N         -19.5098   -7.3320   11.5802 N.2       1 ALA2        0.0000 
     24 N         -20.8018   -6.5744   11.6621 N.2       1 ALA2        0.0000 
     25 N         -22.0939   -5.8169   11.7440 N.2       1 ALA2        0.0000 
     26 N         -23.3859   -5.0593   11.8259 N.2       1 ALA2        0.0000 
     27 N         -18.9430   -9.2628   10.9087 N.2       1 ALA2        0.0000 
     28 N         -20.2350   -8.5052   10.9906 N.2       1 ALA2        0.0000 
     29 N         -21.5271   -7.7476   11.0725 N.2       1 ALA2        0.0000 
     30 DU        -22.8191   -6.9901   11.1544 H         5 CUB7        0.0000 
     31 N         -24.1112   -6.2325   11.2363 N.2       1 ALA2        0.0000 
     32 O         -25.4032   -5.4749   11.3182 O.2       1 ALA2        0.0000 
     33 N         -20.9603   -9.6784   10.4010 N.2       1 ALA2        0.0000 
     34 N         -22.2523   -8.9208   10.4829 N.2       1 ALA2        0.0000 
     35 DU        -23.5444   -8.1633   10.5648 H         5 CUB7        0.0000 
     36 O         -24.8364   -7.4057   10.6467 O.2       1 ALA2        0.0000 
     37 CA        -26.1285   -6.6481   10.7286 C.3       4 GLY6        0.0000 
     38 CA        -22.9776  -10.0940    9.8933 C.3       4 GLY6        0.0000 
     39 CZ        -24.2696   -9.3364    9.9752 C.ar      3 PHE5        0.0000 
     40 CZ        -25.5617   -8.5789   10.0571 C.ar      3 PHE5        0.0000 
     41 NZ        -18.8598   -3.6023   14.8077 N.2       2 LYS4        0.0000 
     42 O         -18.2930   -5.5330   14.1362 O.2       1 ALA2        0.0000 
     43 CA        -19.5850   -4.7755   14.2181 C.3       4 GLY6        0.0000 
     44 CA        -19.0182   -6.7062   13.5466 C.3       4 GLY6        0.0000 
     45 O         -20.3103   -5.9487   13.6285 O.2       1 ALA2        0.0000 
     46 N         -21.6023   -5.1911   13.7104 N.2       1 ALA2        0.0000 
     47 N         -18.4514   -8.6370   12.8751 N.2       1 ALA2        0.0000 
     48 N         -19.7435   -7.8794   12.9570 N.2       1 ALA2        0.0000 
     49 N         -21.0355   -7.1219   13.0389 N.2       1 ALA2        0.0000 
     50 N         -22.3276   -6.3643   13.1208 N.2       1 ALA2        0.0000 
     51 N         -23.0528   -7.5375   12.5312 N.2       1 ALA2        0.0000 
     52 N         -24.3449   -6.7799   12.6131 N.2       1 ALA2        0.0000 
     53 O         -25.6369   -6.0224   12.6950 O.2       1 ALA2        0.0000 
     54 CA        -23.7781   -8.7107   11.9417 C.3       4 GLY6        0.0000 
     55 CA        -25.0701   -7.9531   12.0236 C.3       4 GLY6        0.0000 
     56 CZ        -26.3622   -7.1956   12.1055 C.ar      3 PHE5        0.0000 
     57 CA        -18.5267   -6.0805   15.5130 C.3       4 GLY6        0.0000 
     58 N         -17.9599   -8.0113   14.8415 N.2       1 ALA2        0.0000 
     59 CA        -19.2519   -7.2537   14.9234 C.3       4 GLY6        0.0000 
     60 O         -20.5440   -6.4961   15.0053 O.2       1 ALA2        0.0000 
     61 N         -19.9772   -8.4269   14.3338 N.2       1 ALA2        0.0000 
     62 N         -21.2692   -7.6693   14.4158 N.2       1 ALA2        0.0000 
     63 CA        -22.5613   -6.9117   14.4977 C.3       4 GLY6        0.0000 
     64 O         -23.8533   -6.1542   14.5796 O.2       1 ALA2        0.0000 
     65 CA        -24.5786   -7.3274   13.9900 C.3       4 GLY6        0.0000 
     66 CA        -25.8706   -6.5698   14.0719 C.3       4 GLY6        0.0000 
     67 CZ        -26.5959   -7.7430   13.4823 C.ar      3 PHE5        0.0000 
     68 N         -17.6671   -1.3342   12.6436 N.2       1 ALA2        0.0000 
     69 NZ        -18.9591   -0.5766   12.7255 N.2       2 LYS4        0.0000 
     70 O         -18.3923   -2.5074   12.0540 O.2       1 ALA2        0.0000 
     71 O         -19.6844   -1.7498   12.1359 O.2       1 ALA2        0.0000 
     72 N         -17.8256   -4.4381   11.3825 N.2       1 ALA2        0.0000 
     73 O         -19.1176   -3.6806   11.4644 O.2       1 ALA2        0.0000 
     74 O         -20.4096   -2.9230   11.5463 O.2       1 ALA2        0.0000 
     75 N         -21.7017   -2.1654   11.6282 N.2       1 ALA2        0.0000 
     76 CA        -18.5508   -5.6113   10.7929 C.3       4 GLY6        0.0000 
     77 O         -19.8429   -4.8538   10.8748 O.2       1 ALA2        0.0000 
     78 O         -21.1349   -4.0962   10.9567 O.2       1 ALA2        0.0000 
     79 N         -22.4269   -3.3386   11.0386 N.2       1 ALA2        0.0000 
     80 DU        -19.2761   -6.7845   10.2033 H         5 CUB7        0.0000 
     81 DU        -20.5681   -6.0270   10.2852 H         5 CUB7        0.0000 
     82 DU        -21.8602   -5.2694   10.3671 H         5 CUB7        0.0000 
     83 N         -23.1522   -4.5118   10.4490 N.2       1 ALA2        0.0000 
     84 CZ        -24.4442   -3.7543   10.5309 C.ar      3 PHE5        0.0000 
     85 DU        -20.0013   -7.9577    9.6137 H         5 CUB7        0.0000 
     86 DU        -21.2934   -7.2002    9.6957 H         5 CUB7        0.0000 
     87 CA        -22.5854   -6.4426    9.7776 C.3       4 GLY6        0.0000 
     88 CA        -23.8775   -5.6850    9.8595 C.3       4 GLY6        0.0000 
     89 O         -25.1695   -4.9275    9.9414 O.2       1 ALA2        0.0000 
     90 N         -20.7266   -9.1309    9.0242 N.2       1 ALA2        0.0000 
     91 CA        -22.0186   -8.3734    9.1061 C.3       4 GLY6        0.0000 
     92 CA        -23.3107   -7.6158    9.1880 C.3       4 GLY6        0.0000 
     93 CA        -21.4518  -10.3041    8.4346 C.3       4 GLY6        0.0000 
     94 CA        -22.7439   -9.5466    8.5165 C.3       4 GLY6        0.0000 
     95 N         -24.0359   -8.7890    8.5984 N.2       1 ALA2        0.0000 
     96 CA        -15.9076   -0.9969    9.8080 C.3       4 GLY6        0.0000 
@<TRIPOS>BOND
@<TRIPOS>SUBSTRUCTURE
     1 ALA2        1 GROUP   
     2 LYS4       41 GROUP   
     3 PHE5       39 GROUP   
     4 GLY6        7 GROUP   
     5 CUB7        6 GROUP   
@<TRIPOS>SET

