#    Name: 3u17_H90_1_INTS_M
#    Modification time : Mon Mar 24 21:18:28 2014

@<TRIPOS>MOLECULE
3u17_H90_1_INTS_M
   74     0     9     0     0
SMALL
NO_CHARGES


@<TRIPOS>ATOM
      1 CA        -23.1890   -7.8150   16.4030 C.3       3 GLC5        0.0000 
      2 CA        -23.7040   -6.5340   14.8910 C.3       9 GLL5        0.0000 
      3 CA        -22.6740   -9.0960   17.9150 C.3       6 GLP5        0.0000 
      4 CA        -27.7060   -5.4390   15.5260 C.3       3 GLC5        0.0000 
      5 CA        -26.3900   -6.7610   14.3710 C.3       9 GLL5        0.0000 
      6 CA        -29.0220   -4.1170   16.6810 C.3       6 GLP5        0.0000 
      7 CA        -25.9245   -8.6505   15.4025 C.3       3 GLC5        0.0000 
      8 CA        -25.8680   -6.8360   15.6780 C.3       9 GLL5        0.0000 
      9 CA        -25.9810  -10.4650   15.1270 C.3       6 GLP5        0.0000 
     10 CA        -26.5300   -5.4995   17.0395 C.3       3 GLC5        0.0000 
     11 CA        -27.1920   -4.1630   18.4010 C.3       6 GLP5        0.0000 
     12 N         -24.2335   -6.9525   17.3355 N.am      1 SEC2        0.0000 
     13 N         -24.5470   -6.7110   15.9220 N.am      7 SEL2        0.0000 
     14 N         -23.9200   -7.1940   18.7490 N.am      4 SEP2        0.0000 
     15 CA        -26.4930   -8.3215   12.2855 C.3       3 GLC5        0.0000 
     16 CA        -26.0490   -6.4890   11.8220 C.3       9 GLL5        0.0000 
     17 CA        -26.9370  -10.1540   12.7490 C.3       6 GLP5        0.0000 
     18 CA        -26.9905   -6.6135   10.0280 C.3       3 GLC5        0.0000 
     19 CA        -27.9320   -6.7380    8.2340 C.3       6 GLP5        0.0000 
     20 CA        -27.9070   -6.0225   12.5660 C.3       3 GLC5        0.0000 
     21 CA        -29.7650   -5.5560   13.3100 C.3       6 GLP5        0.0000 
     22 N         -25.4935   -3.7205   12.2010 N.am      1 SEC2        0.0000 
     23 N         -24.8900   -4.4870   11.0440 N.am      7 SEL2        0.0000 
     24 N         -26.0970   -2.9540   13.3580 N.am      4 SEP2        0.0000 
     25 NZ        -20.6405   -2.3635    9.0810 N.4       2 LYC4        0.0000 
     26 NZ        -21.4410   -3.3570    9.0550 N.4       8 LYL4        0.0000 
     27 NZ        -18.6810   -1.1830    8.4760 N.4       5 LYP4        0.0000 
     28 N         -20.6405   -2.3635    9.0810 N.am      1 SEC2        0.0000 
     29 N         -21.4410   -3.3570    9.0550 N.am      7 SEL2        0.0000 
     30 N         -19.8400   -1.3700    9.1070 N.am      4 SEP2        0.0000 
     31 NZ        -19.0655   -3.4930    8.0450 N.4       2 LYC4        0.0000 
     32 NZ        -20.0280   -4.7900    8.2520 N.4       8 LYL4        0.0000 
     33 N         -19.0655   -3.4930    8.0450 N.am      1 SEC2        0.0000 
     34 N         -20.0280   -4.7900    8.2520 N.am      7 SEL2        0.0000 
     35 N         -18.1030   -2.1960    7.8380 N.am      4 SEP2        0.0000 
     36 CA        -24.2950  -10.3615   11.8770 C.3       3 GLC5        0.0000 
     37 CA        -22.8900  -10.3800   10.1380 C.3       9 GLL5        0.0000 
     38 CA        -25.7000  -10.3430   13.6160 C.3       6 GLP5        0.0000 
     39 CA        -24.5535  -12.6785   10.0900 C.3       3 GLC5        0.0000 
     40 CA        -22.6150  -11.7320    9.9740 C.3       9 GLL5        0.0000 
     41 CA        -26.4920  -13.6250   10.2060 C.3       6 GLP5        0.0000 
     42 CA        -19.6995  -12.5190   11.4285 C.3       3 GLC5        0.0000 
     43 CA        -18.8360  -13.4550    9.7560 C.3       9 GLL5        0.0000 
     44 CA        -20.5630  -11.5830   13.1010 C.3       6 GLP5        0.0000 
     45 CA        -24.8212   -8.4175   13.9242 C.3       3 GLC5        0.0000 
     46 CA        -24.1810   -6.4500   13.5740 C.3       9 GLL5        0.0000 
     47 CA        -24.7608   -4.7710   14.4682 C.3       3 GLC5        0.0000 
     48 CA        -25.5790   -3.0500   14.7040 C.3       6 GLP5        0.0000 
     49 CA        -23.0072   -5.0570   15.1198 C.3       3 GLC5        0.0000 
     50 CA        -22.0720   -3.6220   16.0070 C.3       6 GLP5        0.0000 
     51 CA        -25.8328   -8.5035   13.7215 C.3       3 GLC5        0.0000 
     52 CA        -25.5410   -6.5670   13.2830 C.3       9 GLL5        0.0000 
     53 CA        -27.8652   -6.1100   13.5685 C.3       3 GLC5        0.0000 
     54 CA        -27.4900   -7.5893   16.0383 C.3       3 GLC5        0.0000 
     55 CA        -28.8510   -8.3800   17.0520 C.3       6 GLP5        0.0000 
     56 CA        -25.7479   -4.9000   14.7283 C.3       3 GLC5        0.0000 
     57 CA        -21.5205  -10.7462   11.4683 C.3       3 GLC5        0.0000 
     58 CA        -22.0660   -9.4390    9.5330 C.3       9 GLL5        0.0000 
     59 CA        -23.5240  -10.4788    8.4692 C.3       3 GLC5        0.0000 
     60 CA        -24.5700  -11.0480    7.1030 C.3       6 GLP5        0.0000 
     61 CA        -21.3163  -11.7572   11.3438 C.3       3 GLC5        0.0000 
     62 CA        -23.3197  -11.4898    8.3447 C.3       3 GLC5        0.0000 
     63 CA        -22.7117  -10.7733    7.8900 C.3       3 GLC5        0.0000 
     64 CA        -20.7210  -11.1740    8.5930 C.3       9 GLL5        0.0000 
     65 CA        -19.2163  -16.2477    9.9990 C.3       3 GLC5        0.0000 
     66 CA        -18.2650  -15.8760    8.4710 C.3       9 GLL5        0.0000 
     67 CA        -20.6650  -16.9560   11.1790 C.3       6 GLP5        0.0000 
     68 CA        -17.0446  -14.3001   11.2509 C.3       3 GLC5        0.0000 
     69 CA        -17.2700  -15.2030    9.1670 C.3       9 GLL5        0.0000 
     70 CA        -15.9650  -14.5720   12.8810 C.3       6 GLP5        0.0000 
     71 CA        -19.9636  -15.5251   10.2159 C.3       3 GLC5        0.0000 
     72 CA        -23.3738   -6.3750    8.3544 C.3       3 GLC5        0.0000 
     73 CA        -21.5700   -6.9970    9.1930 C.3       9 GLL5        0.0000 
     74 CA        -24.3970   -6.1020    7.0700 C.3       6 GLP5        0.0000 
@<TRIPOS>BOND
@<TRIPOS>SUBSTRUCTURE
     1 SEC2       12 GROUP        1 X    SEC  0     ROOT SEC X 2
     2 LYC4       25 GROUP        1 X    LYC  0     **** LYC X 4
     3 GLC5        1 GROUP        1 X    GLC  0     **** GLC X 6
     4 SEP2       14 GROUP        1 Y    SEP  0     ROOT SEP Y 9
     5 LYP4       27 GROUP        1 Y    LYP  0     **** LYP Y 11
     6 GLP5        3 GROUP        1 Y    GLP  0     **** GLP Y 13
     7 SEL2       13 GROUP        1 Z    SEL  0     ROOT SEL Z 16
     8 LYL4       26 GROUP        1 Z    LYL  0     **** LYL Z 18
     9 GLL5        2 GROUP        1 Z    GLL  0     **** GLL Z 20
@<TRIPOS>SET

