#    Name: 3u17_H90_1_ligand
#    Modification time : Mon Mar 24 21:18:29 2014

@<TRIPOS>MOLECULE
3u17_H90_1_ligand
   50    54     1     0     0
SMALL
NO_CHARGES


@<TRIPOS>ATOM
      1 C1        -23.7040   -6.5340   14.8910 C.ar      1 H90543      0.0000 
      2 C2        -24.1810   -6.4500   13.5740 C.ar      1 H90543      0.0000 
      3 C3        -25.5410   -6.5670   13.2830 C.ar      1 H90543      0.0000 
      4 C4        -26.3900   -6.7610   14.3710 C.ar      1 H90543      0.0000 
      5 C5        -25.8680   -6.8360   15.6780 C.ar      1 H90543      0.0000 
      6 N6        -24.5470   -6.7110   15.9220 N.ar      1 H90543      0.0000 
      7 C7        -26.0490   -6.4890   11.8220 C.3       1 H90543      0.0000 
      8 N8        -24.9320   -5.8910   11.0910 N.pl3     1 H90543      0.0000 
      9 C9        -23.8880   -6.4500   10.5040 C.ar      1 H90543      0.0000 
     10 C10       -23.1300   -5.3820   10.0610 C.ar      1 H90543      0.0000 
     11 C11       -23.7580   -4.1340   10.3970 C.2       1 H90543      0.0000 
     12 N12       -24.8900   -4.4870   11.0440 N.2       1 H90543      0.0000 
     13 N13       -23.5270   -7.7370   10.3230 N.ar      1 H90543      0.0000 
     14 C14       -22.3800   -8.0160    9.7010 C.ar      1 H90543      0.0000 
     15 C15       -21.5700   -6.9970    9.1930 C.ar      1 H90543      0.0000 
     16 C16       -21.9430   -5.6630    9.3790 C.ar      1 H90543      0.0000 
     17 C18       -21.0850   -4.5370    8.8600 C.2       1 H90543      0.0000 
     18 O19       -21.4410   -3.3570    9.0550 O.co2     1 H90543      0.0000 
     19 O20       -20.0280   -4.7900    8.2520 O.co2     1 H90543      0.0000 
     20 C21       -22.0660   -9.4390    9.5330 C.ar      1 H90543      0.0000 
     21 C22       -22.8900  -10.3800   10.1380 C.ar      1 H90543      0.0000 
     22 C23       -22.6150  -11.7320    9.9740 C.ar      1 H90543      0.0000 
     23 C24       -21.5240  -12.1310    9.1990 C.ar      1 H90543      0.0000 
     24 C25       -20.7210  -11.1740    8.5930 C.ar      1 H90543      0.0000 
     25 C26       -20.9860   -9.8230    8.7610 C.ar      1 H90543      0.0000 
     26 C27       -21.2260  -13.5850    8.9840 C.2       1 H90543      0.0000 
     27 O27       -22.1440  -14.3330    8.6560 O.2       1 H90543      0.0000 
     28 C28       -19.8330  -14.1320    9.0720 C.ar      1 H90543      0.0000 
     29 C29       -19.5440  -15.3350    8.4270 C.ar      1 H90543      0.0000 
     30 C30       -18.2650  -15.8760    8.4710 C.ar      1 H90543      0.0000 
     31 C31       -17.2700  -15.2030    9.1670 C.ar      1 H90543      0.0000 
     32 C32       -17.5550  -14.0000    9.8040 C.ar      1 H90543      0.0000 
     33 C33       -18.8360  -13.4550    9.7560 C.ar      1 H90543      0.0000 
     34 H         -22.6772   -6.4549   15.0441 H         1 H90543      0.0000 
     35 H         -23.5064   -6.2978   12.8031 H         1 H90543      0.0000 
     36 H         -27.4032   -6.8507   14.2268 H         1 H90543      0.0000 
     37 H         -26.5421   -6.9929   16.4599 H         1 H90543      0.0000 
     38 H         -26.9142   -5.8655   11.8019 H         1 H90543      0.0000 
     39 H         -26.2559   -7.4802   11.4868 H         1 H90543      0.0000 
     40 H         -23.4184   -3.2994   10.1914 H         1 H90543      0.0000 
     41 H         -20.7102   -7.2256    8.6886 H         1 H90543      0.0000 
     42 H         -23.6923  -10.0800   10.6994 H         1 H90543      0.0000 
     43 H         -23.2109  -12.4388   10.4204 H         1 H90543      0.0000 
     44 H         -19.9200  -11.4713    8.0125 H         1 H90543      0.0000 
     45 H         -20.3870   -9.1200    8.3172 H         1 H90543      0.0000 
     46 H         -20.2917  -15.8274    7.9112 H         1 H90543      0.0000 
     47 H         -18.0597  -16.7586    7.9966 H         1 H90543      0.0000 
     48 H         -16.3188  -15.5944    9.2123 H         1 H90543      0.0000 
     49 H         -16.8090  -13.5043   10.3188 H         1 H90543      0.0000 
     50 H         -19.0349  -12.5658   10.2210 H         1 H90543      0.0000 
@<TRIPOS>BOND
     1    2    1 ar   
     2    6    1 ar   
     3   34    1 1    
     4    3    2 ar   
     5   35    2 1    
     6    4    3 ar   
     7    7    3 1    
     8    5    4 ar   
     9   36    4 1    
    10    6    5 ar   
    11   37    5 1    
    12    8    7 1    
    13   38    7 1    
    14   39    7 1    
    15    9    8 1    
    16   12    8 1    
    17   10    9 ar   
    18   13    9 ar   
    19   11   10 1    
    20   16   10 ar   
    21   12   11 2    
    22   40   11 1    
    23   14   13 ar   
    24   15   14 ar   
    25   20   14 1    
    26   16   15 ar   
    27   41   15 1    
    28   17   16 1    
    29   18   17 ar   
    30   19   17 ar   
    31   21   20 ar   
    32   25   20 ar   
    33   22   21 ar   
    34   42   21 1    
    35   23   22 ar   
    36   43   22 1    
    37   24   23 ar   
    38   26   23 1    
    39   25   24 ar   
    40   44   24 1    
    41   45   25 1    
    42   27   26 2    
    43   28   26 1    
    44   29   28 ar   
    45   33   28 ar   
    46   30   29 ar   
    47   46   29 1    
    48   31   30 ar   
    49   47   30 1    
    50   32   31 ar   
    51   48   31 1    
    52   33   32 ar   
    53   49   32 1    
    54   50   33 1    
@<TRIPOS>SUBSTRUCTURE
     1 H90543      1 GROUP   
@<TRIPOS>SET

