#    Name: 1fv0_9AR_1_INTS_M
#    Modification time : Tue Mar 25 02:06:19 2014

@<TRIPOS>MOLECULE
1fv0_9AR_1_INTS_M
   45     0     6     0     0
SMALL
NO_CHARGES


@<TRIPOS>ATOM
      1 CA         13.2065   25.0080   42.0840 C.3       2 GLC5        0.0000 
      2 CA         13.6190   22.9400   42.6060 C.3       6 GLL5        0.0000 
      3 CA         12.7940   27.0760   41.5620 C.3       4 GLP5        0.0000 
      4 CA         19.5370   21.5955   42.8160 C.3       2 GLC5        0.0000 
      5 CA         17.8960   22.9940   43.4400 C.3       6 GLL5        0.0000 
      6 CA         21.1780   20.1970   42.1920 C.3       4 GLP5        0.0000 
      7 CA         14.9605   25.2615   46.7465 C.3       2 GLC5        0.0000 
      8 CA         15.2500   23.0370   46.7900 C.3       6 GLL5        0.0000 
      9 CA         14.6710   27.4860   46.7030 C.3       4 GLP5        0.0000 
     10 CA         14.1260   24.2765   47.8360 C.3       2 GLC5        0.0000 
     11 CA         13.0020   25.5160   48.8820 C.3       4 GLP5        0.0000 
     12 CA         15.5720   24.3750   48.4375 C.3       2 GLC5        0.0000 
     13 CA         16.6320   23.0370   46.9950 C.3       6 GLL5        0.0000 
     14 CA         14.5120   25.7130   49.8800 C.3       4 GLP5        0.0000 
     15 CA         10.5585   21.6550   43.4610 C.3       2 GLC5        0.0000 
     16 CA         11.3760   22.9040   42.4750 C.3       6 GLL5        0.0000 
     17 CA          9.7410   20.4060   44.4470 C.3       4 GLP5        0.0000 
     18 CA         10.0800   22.1270   41.6730 C.3       2 GLC5        0.0000 
     19 CA          8.7840   21.3500   40.8710 C.3       4 GLP5        0.0000 
     20 CA         10.4365   24.0880   43.5120 C.3       2 GLC5        0.0000 
     21 CA          9.4970   25.2720   44.5490 C.3       4 GLP5        0.0000 
     22 CA         12.0850   24.9900   42.0185 C.3       2 GLC5        0.0000 
     23 CA         20.1780   20.0940   46.5585 C.3       2 GLC5        0.0000 
     24 CA         20.1900   21.9140   46.0480 C.3       6 GLL5        0.0000 
     25 CA         20.1660   18.2740   47.0690 C.3       4 GLP5        0.0000 
     26 CA         20.6840   21.0555   44.1200 C.3       2 GLC5        0.0000 
     27 O          16.6340   21.5890   48.3740 O.2       1 ALC1        0.0000 
     28 O          17.0970   23.0530   48.3350 O.2       5 ALL1        0.0000 
     29 O          16.1710   20.1250   48.4130 O.2       3 ALP1        0.0000 
     30 CA         15.4153   21.1988   40.7943 C.3       2 GLC5        0.0000 
     31 CA         15.5110   22.9080   40.4330 C.3       6 GLL5        0.0000 
     32 CA         16.0160   19.5000   41.2670 C.3       4 GLP5        0.0000 
     33 CA         12.4002   23.1633   39.2580 C.3       2 GLC5        0.0000 
     34 CA         14.1180   22.8870   40.2100 C.3       6 GLL5        0.0000 
     35 CA         11.1410   23.4320   37.7840 C.3       4 GLP5        0.0000 
     36 CA         13.2267   24.7453   40.4175 C.3       2 GLC5        0.0000 
     37 CA         12.7940   26.5960   40.1030 C.3       4 GLP5        0.0000 
     38 CA         14.7130   21.2105   41.5985 C.3       2 GLC5        0.0000 
     39 CA         13.2010   22.9020   41.2540 C.3       6 GLL5        0.0000 
     40 CA         17.1668   25.1343   43.8205 C.3       2 GLC5        0.0000 
     41 CA         16.8750   27.2690   43.6460 C.3       4 GLP5        0.0000 
     42 CA         16.2551   21.2360   41.7546 C.3       2 GLC5        0.0000 
     43 CA         17.4450   22.9840   42.1020 C.3       6 GLL5        0.0000 
     44 CA         15.8325   21.4160   48.2832 C.3       2 GLC5        0.0000 
     45 CA         15.7240   19.7950   49.6740 C.3       4 GLP5        0.0000 
@<TRIPOS>BOND
@<TRIPOS>SUBSTRUCTURE
     1 ALC1       27 GROUP        1 X    ALC  0     ROOT ALC X 1
     2 GLC5        1 GROUP        1 X    GLC  0     **** GLC X 6
     3 ALP1       29 GROUP        1 Y    ALP  0     ROOT ALP Y 8
     4 GLP5        3 GROUP        1 Y    GLP  0     **** GLP Y 13
     5 ALL1       28 GROUP        1 Z    ALL  0     ROOT ALL Z 15
     6 GLL5        2 GROUP        1 Z    GLL  0     **** GLL Z 20
@<TRIPOS>SET

