#    Name: 1fv0_9AR_1_ligand
#    Modification time : Tue Mar 25 02:06:19 2014

@<TRIPOS>MOLECULE
1fv0_9AR_1_ligand
   36    39     1     0     0
SMALL
NO_CHARGES


@<TRIPOS>ATOM
      1 C1         15.5110   22.9080   40.4330 C.ar      1 9AR401      0.0000 
      2 C2         14.1180   22.8870   40.2100 C.ar      1 9AR401      0.0000 
      3 C3         13.2010   22.9020   41.2540 C.ar      1 9AR401      0.0000 
      4 C4         13.6190   22.9400   42.6060 C.ar      1 9AR401      0.0000 
      5 C5         15.0560   22.9660   42.9560 C.ar      1 9AR401      0.0000 
      6 C6         16.0310   22.9540   41.8090 C.ar      1 9AR401      0.0000 
      7 C7         15.5570   22.9990   44.3250 C.ar      1 9AR401      0.0000 
      8 C8         17.0210   23.0050   44.5500 C.ar      1 9AR401      0.0000 
      9 C9         17.8960   22.9940   43.4400 C.ar      1 9AR401      0.0000 
     10 C10        17.4450   22.9840   42.1020 C.ar      1 9AR401      0.0000 
     11 C11        14.7200   23.0160   45.4980 C.ar      1 9AR401      0.0000 
     12 C12        15.2500   23.0370   46.7900 C.ar      1 9AR401      0.0000 
     13 C13        16.6320   23.0370   46.9950 C.ar      1 9AR401      0.0000 
     14 C14        17.5620   23.0200   45.8850 C.ar      1 9AR401      0.0000 
     15 C15        11.3760   22.9040   42.4750 C.3       1 9AR401      0.0000 
     16 C16        16.3290   23.0260   39.1400 C.2       1 9AR401      0.0000 
     17 C17        20.1900   21.9140   46.0480 C.3       1 9AR401      0.0000 
     18 O1         18.8630   22.5860   46.0210 O.3       1 9AR401      0.0000 
     19 O2         11.8510   22.8780   41.1170 O.3       1 9AR401      0.0000 
     20 O3         12.4940   22.9420   43.3850 O.3       1 9AR401      0.0000 
     21 O4         17.2480   22.2820   38.8000 O.co2     1 9AR401      0.0000 
     22 O5         15.8920   23.4950   38.0950 O.co2     1 9AR401      0.0000 
     23 O6         17.0970   23.0530   48.3350 O.3       1 9AR401      0.0000 
     24 O7         18.7170   23.9890   40.2160 O.2       1 9AR401      0.0000 
     25 O8         19.5990   23.1920   41.9230 O.2       1 9AR401      0.0000 
     26 N1         18.7030   23.3900   41.0990 N.pl3     1 9AR401      0.0000 
     27 H          13.7749   22.8594   39.2280 H         1 9AR401      0.0000 
     28 H          18.9239   22.9932   43.6184 H         1 9AR401      0.0000 
     29 H          13.6947   23.0122   45.3587 H         1 9AR401      0.0000 
     30 H          14.6143   23.0527   47.6020 H         1 9AR401      0.0000 
     31 H          10.7547   22.0136   42.6772 H         1 9AR401      0.0000 
     32 H          10.7293   23.7849   42.6344 H         1 9AR401      0.0000 
     33 H          20.5213   21.7090   45.1270 H         1 9AR401      0.0000 
     34 H          20.8848   22.4815   46.4898 H         1 9AR401      0.0000 
     35 H          20.1578   21.0482   46.5474 H         1 9AR401      0.0000 
     36 H          16.7487   22.2075   48.7398 H         1 9AR401      0.0000 
@<TRIPOS>BOND
     1    2    1 ar   
     2    6    1 ar   
     3   16    1 1    
     4    3    2 ar   
     5   27    2 1    
     6    4    3 ar   
     7   19    3 1    
     8    5    4 ar   
     9   20    4 1    
    10    6    5 ar   
    11    7    5 ar   
    12   10    6 ar   
    13    8    7 ar   
    14   11    7 ar   
    15    9    8 ar   
    16   14    8 ar   
    17   10    9 ar   
    18   28    9 1    
    19   26   10 1    
    20   12   11 ar   
    21   29   11 1    
    22   13   12 ar   
    23   30   12 1    
    24   14   13 ar   
    25   23   13 1    
    26   18   14 1    
    27   19   15 1    
    28   20   15 1    
    29   31   15 1    
    30   32   15 1    
    31   21   16 ar   
    32   22   16 ar   
    33   18   17 1    
    34   33   17 1    
    35   34   17 1    
    36   35   17 1    
    37   36   23 1    
    38   26   24 2    
    39   26   25 2    
@<TRIPOS>SUBSTRUCTURE
     1 9AR401      1 GROUP   
@<TRIPOS>SET

