#    Name: 2xau_ADP_1_INTS_M
#    Modification time : Tue Mar 25 05:46:53 2014

@<TRIPOS>MOLECULE
2xau_ADP_1_INTS_M
   69     0    15     0     0
SMALL
NO_CHARGES


@<TRIPOS>ATOM
      1 NZ         27.0850  101.0360   71.0685 N.4       3 LYC4        0.0000 
      2 NZ         28.4560   99.8560   70.9930 N.4      13 LYL4        0.0000 
      3 NZ         25.7140  102.2160   71.1440 N.4       8 LYP4        0.0000 
      4 N          28.9105  100.2530   69.7300 N.am      2 SEC2        0.0000 
      5 N          28.4560   99.8560   70.9930 N.am     12 SEL2        0.0000 
      6 N          29.3650  100.6500   68.4670 N.am      7 SEP2        0.0000 
      7 NZ         27.0915  102.2530   71.3885 N.4       3 LYC4        0.0000 
      8 NZ         28.4690  102.2900   71.6330 N.4      13 LYL4        0.0000 
      9 N          29.6270  103.2190   71.4000 N.am      2 SEC2        0.0000 
     10 N          28.4690  102.2900   71.6330 N.am     12 SEL2        0.0000 
     11 N          30.7850  104.1480   71.1670 N.am      7 SEP2        0.0000 
     12 N          28.8625  103.2515   72.5775 N.am      2 SEC2        0.0000 
     13 N          29.2560  104.2130   73.5220 N.am      7 SEP2        0.0000 
     14 N          27.0915  102.2530   71.3885 N.am      2 SEC2        0.0000 
     15 N          25.7140  102.2160   71.1440 N.am      7 SEP2        0.0000 
     16 NZ         27.1315  101.4250   72.2975 N.4       3 LYC4        0.0000 
     17 NZ         28.5490  100.6340   73.4510 N.4      13 LYL4        0.0000 
     18 Zn         27.9990   99.8075   73.8505 Zn        4 ZIC7        0.0000 
     19 Zn         28.5490  100.6340   73.4510 Zn       14 ZIL7        0.0000 
     20 Zn         27.4490   98.9810   74.2500 Zn        9 ZIP7        0.0000 
     21 N          28.7345  101.5115   74.6450 N.am      2 SEC2        0.0000 
     22 N          28.5490  100.6340   73.4510 N.am     12 SEL2        0.0000 
     23 N          28.9200  102.3890   75.8390 N.am      7 SEP2        0.0000 
     24 N          31.5845  101.8255   75.5150 N.am      2 SEC2        0.0000 
     25 N          31.6920  101.5970   74.0930 N.am     12 SEL2        0.0000 
     26 N          31.4770  102.0540   76.9370 N.am      7 SEP2        0.0000 
     27 N          32.7675  102.0790   74.7345 N.am      2 SEC2        0.0000 
     28 N          33.8430  102.5610   75.3760 N.am      7 SEP2        0.0000 
     29 N          30.6530  102.6240   71.5745 N.am      2 SEC2        0.0000 
     30 N          30.5210  101.1000   71.9820 N.am     12 SEL2        0.0000 
     31 CA         34.6190  103.1840   71.8875 C.3       5 GLC5        0.0000 
     32 CA         33.5940  101.6610   71.7550 C.3      15 GLL5        0.0000 
     33 CA         35.6440  104.7070   72.0200 C.3      10 GLP5        0.0000 
     34 CA         32.5340  103.0225   72.1025 C.3       5 GLC5        0.0000 
     35 CA         31.4740  104.3840   72.4500 C.3      10 GLP5        0.0000 
     36 CA         32.6720  100.6405   68.9900 C.3       5 GLC5        0.0000 
     37 CA         34.6060  100.3290   69.8600 C.3      15 GLL5        0.0000 
     38 CA         30.7380  100.9520   68.1200 C.3      10 GLP5        0.0000 
     39 CA         33.6130   98.7040   69.2330 C.3       5 GLC5        0.0000 
     40 CA         32.6200   97.0790   68.6060 C.3      10 GLP5        0.0000 
     41 N          34.5500  100.9725   67.2710 N.am      2 SEC2        0.0000 
     42 N          34.4570  101.0420   68.6010 N.am     12 SEL2        0.0000 
     43 N          34.6430  100.9030   65.9410 N.am      7 SEP2        0.0000 
     44 O          33.3145  101.9455   68.4775 O.2       1 ALC1        0.0000 
     45 O          34.4570  101.0420   68.6010 O.2      11 ALL1        0.0000 
     46 O          32.1720  102.8490   68.3540 O.2       6 ALP1        0.0000 
     47 CA         34.6835   98.4085   68.6105 C.3       5 GLC5        0.0000 
     48 CA         35.8450   99.4920   69.8640 C.3      15 GLL5        0.0000 
     49 CA         33.5220   97.3250   67.3570 C.3      10 GLP5        0.0000 
     50 N          36.6145  101.1875   67.8530 N.am      2 SEC2        0.0000 
     51 N          36.6730  100.2940   69.0650 N.am     12 SEL2        0.0000 
     52 N          36.5560  102.0810   66.6410 N.am      7 SEP2        0.0000 
     53 O          36.9990   99.4910   68.1095 O.2       1 ALC1        0.0000 
     54 O          36.6730  100.2940   69.0650 O.2      11 ALL1        0.0000 
     55 O          37.3250   98.6880   67.1540 O.2       6 ALP1        0.0000 
     56 O          37.8125   99.2255   68.7750 O.2       1 ALC1        0.0000 
     57 O          38.9520   98.1570   68.4850 O.2       6 ALP1        0.0000 
     58 O          36.9695   94.2360   75.8440 O.2       1 ALC1        0.0000 
     59 O          36.5620   94.8590   74.8020 O.2      11 ALL1        0.0000 
     60 O          37.3770   93.6130   76.8860 O.2       6 ALP1        0.0000 
     61 CA         39.1605   97.4575   74.7035 C.3       5 GLC5        0.0000 
     62 CA         39.1670   96.5670   73.0200 C.3      15 GLL5        0.0000 
     63 CA         39.1540   98.3480   76.3870 C.3      10 GLP5        0.0000 
     64 CA         35.0225  102.6475   69.9878 C.3       5 GLC5        0.0000 
     65 CA         34.8540  101.3130   70.9910 C.3      15 GLL5        0.0000 
     66 CA         35.3150  104.4740   69.5500 C.3      10 GLP5        0.0000 
     67 CA         37.3235   97.6371   74.9689 C.3       5 GLC5        0.0000 
     68 CA         36.4750   96.7710   73.3930 C.3      15 GLL5        0.0000 
     69 CA         37.6290   98.3010   76.8110 C.3      10 GLP5        0.0000 
@<TRIPOS>BOND
@<TRIPOS>SUBSTRUCTURE
     1 ALC1       44 GROUP        1 X    ALC  0     ROOT ALC X 1
     2 SEC2        4 GROUP        1 X    SEC  0     **** SEC X 2
     3 LYC4        1 GROUP        1 X    LYC  0     **** LYC X 4
     4 ZIC7       18 GROUP        1 X    ZIC  0     **** ZIC X 5
     5 GLC5       31 GROUP        1 X    GLC  0     **** GLC X 6
     6 ALP1       46 GROUP        1 Y    ALP  0     ROOT ALP Y 8
     7 SEP2        6 GROUP        1 Y    SEP  0     **** SEP Y 9
     8 LYP4        3 GROUP        1 Y    LYP  0     **** LYP Y 11
     9 ZIP7       20 GROUP        1 Y    ZIP  0     **** ZIP Y 12
    10 GLP5       33 GROUP        1 Y    GLP  0     **** GLP Y 13
    11 ALL1       45 GROUP        1 Z    ALL  0     ROOT ALL Z 15
    12 SEL2        5 GROUP        1 Z    SEL  0     **** SEL Z 16
    13 LYL4        2 GROUP        1 Z    LYL  0     **** LYL Z 18
    14 ZIL7       19 GROUP        1 Z    ZIL  0     **** ZIL Z 19
    15 GLL5       32 GROUP        1 Z    GLL  0     **** GLL Z 20
@<TRIPOS>SET

