#    Name: 2xau_ADP_1_ligand
#    Modification time : Tue Mar 25 05:46:53 2014

@<TRIPOS>MOLECULE
2xau_ADP_1_ligand
   39    41     1     0     0
SMALL
NO_CHARGES


@<TRIPOS>ATOM
      1 PB         28.9010  100.9240   72.0070 P.3       1 ADP1750     0.0000 
      2 O1B        28.4560   99.8560   70.9930 O.co2     1 ADP1750     0.0000 
      3 O2B        28.4690  102.2900   71.6330 O.co2     1 ADP1750     0.0000 
      4 O3B        28.5490  100.6340   73.4510 O.co2     1 ADP1750     0.0000 
      5 PA         31.6280  100.5350   73.0280 P.3       1 ADP1750     0.0000 
      6 O1A        31.6920  101.5970   74.0930 O.co2     1 ADP1750     0.0000 
      7 O2A        31.3580   99.1000   73.2410 O.co2     1 ADP1750     0.0000 
      8 O3A        30.5210  101.1000   71.9820 O.3       1 ADP1750     0.0000 
      9 O5'        32.9650  100.4610   72.0840 O.3       1 ADP1750     0.0000 
     10 C5'        33.5940  101.6610   71.7550 C.3       1 ADP1750     0.0000 
     11 C4'        34.8540  101.3130   70.9910 C.3       1 ADP1750     0.0000 
     12 O4'        35.7650  100.6920   71.8830 O.3       1 ADP1750     0.0000 
     13 C3'        34.6060  100.3290   69.8600 C.3       1 ADP1750     0.0000 
     14 O3'        34.4570  101.0420   68.6010 O.3       1 ADP1750     0.0000 
     15 C2'        35.8450   99.4920   69.8640 C.3       1 ADP1750     0.0000 
     16 O2'        36.6730  100.2940   69.0650 O.3       1 ADP1750     0.0000 
     17 C1'        36.4680   99.6550   71.2290 C.3       1 ADP1750     0.0000 
     18 N9         36.2490   98.5200   72.1110 N.pl3     1 ADP1750     0.0000 
     19 C8         35.0730   98.1830   72.5990 C.2       1 ADP1750     0.0000 
     20 N7         35.1930   97.0890   73.3870 N.2       1 ADP1750     0.0000 
     21 C5         36.4750   96.7710   73.3930 C.ar      1 ADP1750     0.0000 
     22 C6         37.2470   95.7320   74.0280 C.ar      1 ADP1750     0.0000 
     23 N6         36.5620   94.8590   74.8020 N.pl3     1 ADP1750     0.0000 
     24 N1         38.5830   95.6690   73.8020 N.ar      1 ADP1750     0.0000 
     25 C2         39.1670   96.5670   73.0200 C.ar      1 ADP1750     0.0000 
     26 N3         38.5160   97.5540   72.4030 N.ar      1 ADP1750     0.0000 
     27 C4         37.1750   97.6950   72.5430 C.ar      1 ADP1750     0.0000 
     28 H          33.8862  102.2379   72.6348 H         1 ADP1750     0.0000 
     29 H          32.9797  102.2959   71.1133 H         1 ADP1750     0.0000 
     30 H          35.2779  102.2104   70.5787 H         1 ADP1750     0.0000 
     31 H          33.7734   99.7354   70.1046 H         1 ADP1750     0.0000 
     32 H          35.7140   98.5716   69.5816 H         1 ADP1750     0.0000 
     33 H          37.4917   99.8871   71.1467 H         1 ADP1750     0.0000 
     34 H          34.2228   98.6438   72.4288 H         1 ADP1750     0.0000 
     35 H          35.8194   94.3619   74.3532 H         1 ADP1750     0.0000 
     36 H          36.8591   94.7882   75.7542 H         1 ADP1750     0.0000 
     37 H          40.2300   96.4977   72.8725 H         1 ADP1750     0.0000 
     38 H          33.6308  101.5942   68.7126 H         1 ADP1750     0.0000 
     39 H          37.3069   99.6562   68.6276 H         1 ADP1750     0.0000 
@<TRIPOS>BOND
     1    2    1 ar   
     2    3    1 ar   
     3    4    1 ar   
     4    8    1 1    
     5    6    5 ar   
     6    7    5 ar   
     7    8    5 1    
     8    9    5 1    
     9   10    9 1    
    10   11   10 1    
    11   28   10 1    
    12   29   10 1    
    13   12   11 1    
    14   13   11 1    
    15   30   11 1    
    16   17   12 1    
    17   14   13 1    
    18   15   13 1    
    19   31   13 1    
    20   38   14 1    
    21   16   15 1    
    22   17   15 1    
    23   32   15 1    
    24   39   16 1    
    25   18   17 1    
    26   33   17 1    
    27   19   18 1    
    28   27   18 1    
    29   20   19 2    
    30   34   19 1    
    31   21   20 1    
    32   22   21 ar   
    33   27   21 ar   
    34   23   22 1    
    35   24   22 ar   
    36   35   23 1    
    37   36   23 1    
    38   25   24 ar   
    39   26   25 ar   
    40   37   25 1    
    41   27   26 ar   
@<TRIPOS>SUBSTRUCTURE
     1 ADP1750     1 GROUP   
@<TRIPOS>SET

