#    Name: 4ao5_UMP_4_INTS_M
#    Modification time : Tue Mar 25 05:54:13 2014

@<TRIPOS>MOLECULE
4ao5_UMP_4_INTS_M
   43     0    12     0     0
SMALL
NO_CHARGES


@<TRIPOS>ATOM
      1 O          -4.3950   38.3845  -41.1145 O.2       1 ALC1        0.0000 
      2 O          -4.5830   38.0600  -42.5010 O.2       9 ALL1        0.0000 
      3 O          -4.2070   38.7090  -39.7280 O.2       5 ALP1        0.0000 
      4 CA         -2.6885   38.9990  -45.1730 C.3       4 GLC5        0.0000 
      5 CA         -3.7370   37.4970  -44.6570 C.3      12 GLL5        0.0000 
      6 CA         -1.6400   40.5010  -45.6890 C.3       8 GLP5        0.0000 
      7 N          -6.7000   37.7040  -40.5775 N.am      2 SEC2        0.0000 
      8 N          -6.6960   37.6190  -42.0450 N.am     10 SEL2        0.0000 
      9 N          -6.7040   37.7890  -39.1100 N.am      6 SEP2        0.0000 
     10 N          -1.3100   37.9525  -43.8035 N.am      2 SEC2        0.0000 
     11 N          -2.3870   38.4770  -42.9750 N.am     10 SEL2        0.0000 
     12 N          -0.2330   37.4280  -44.6320 N.am      6 SEP2        0.0000 
     13 CA         -9.0915   36.7040  -44.0460 C.3       4 GLC5        0.0000 
     14 CA         -7.2940   36.5160  -44.4960 C.3      12 GLL5        0.0000 
     15 CA        -10.8890   36.8920  -43.5960 C.3       8 GLP5        0.0000 
     16 CA         -6.5690   35.4610  -43.0905 C.3       4 GLC5        0.0000 
     17 CA         -5.8440   34.4060  -41.6850 C.3       8 GLP5        0.0000 
     18 CA         -9.4985   37.2525  -45.3215 C.3       4 GLC5        0.0000 
     19 CA         -7.7420   36.8950  -45.9120 C.3      12 GLL5        0.0000 
     20 CA        -11.2550   37.6100  -44.7310 C.3       8 GLP5        0.0000 
     21 CA         -9.6055   35.5930  -46.3160 C.3       4 GLC5        0.0000 
     22 CA         -7.5770   35.6290  -46.7350 C.3      12 GLL5        0.0000 
     23 CA        -11.6340   35.5570  -45.8970 C.3       8 GLP5        0.0000 
     24 CA         -9.4375   34.6730  -45.2455 C.3       4 GLC5        0.0000 
     25 CA         -7.6070   34.5030  -45.7170 C.3      12 GLL5        0.0000 
     26 CA        -11.2680   34.8430  -44.7740 C.3       8 GLP5        0.0000 
     27 CA         -6.7255   34.4545  -43.7010 C.3       4 GLC5        0.0000 
     28 CA         -4.6670   33.5545  -46.4335 C.3       4 GLC5        0.0000 
     29 CA         -6.7540   33.3060  -46.1350 C.3      12 GLL5        0.0000 
     30 CA         -2.5800   33.8030  -46.7320 C.3       8 GLP5        0.0000 
     31 NZ         -7.1420   30.8740  -50.5145 N.4       3 LYC4        0.0000 
     32 NZ         -7.2500   31.3670  -49.3270 N.4      11 LYL4        0.0000 
     33 NZ         -7.0340   30.3810  -51.7020 N.4       7 LYP4        0.0000 
     34 N          -7.1420   30.8740  -50.5145 N.am      2 SEC2        0.0000 
     35 N          -7.2500   31.3670  -49.3270 N.am     10 SEL2        0.0000 
     36 N          -7.0340   30.3810  -51.7020 N.am      6 SEP2        0.0000 
     37 CA         -5.6627   38.7205  -44.7452 C.3       4 GLC5        0.0000 
     38 CA         -4.9780   36.9990  -45.0020 C.3      12 GLL5        0.0000 
     39 CA         -6.9680   40.1930  -44.6610 C.3       8 GLP5        0.0000 
     40 CA         -4.4597   35.8365  -43.5142 C.3       4 GLC5        0.0000 
     41 CA         -4.5620   34.4250  -42.1990 C.3       8 GLP5        0.0000 
     42 CA         -3.4688   35.5255  -45.7807 C.3       4 GLC5        0.0000 
     43 CA         -7.2430   38.4492  -44.9325 C.3       4 GLC5        0.0000 
@<TRIPOS>BOND
@<TRIPOS>SUBSTRUCTURE
     1 ALC1        1 GROUP        1 X    ALC  0     ROOT ALC X 1
     2 SEC2        7 GROUP        1 X    SEC  0     **** SEC X 2
     3 LYC4       31 GROUP        1 X    LYC  0     **** LYC X 4
     4 GLC5        4 GROUP        1 X    GLC  0     **** GLC X 6
     5 ALP1        3 GROUP        1 Y    ALP  0     ROOT ALP Y 8
     6 SEP2        9 GROUP        1 Y    SEP  0     **** SEP Y 9
     7 LYP4       33 GROUP        1 Y    LYP  0     **** LYP Y 11
     8 GLP5        6 GROUP        1 Y    GLP  0     **** GLP Y 13
     9 ALL1        2 GROUP        1 Z    ALL  0     ROOT ALL Z 15
    10 SEL2        8 GROUP        1 Z    SEL  0     **** SEL Z 16
    11 LYL4       32 GROUP        1 Z    LYL  0     **** LYL Z 18
    12 GLL5        5 GROUP        1 Z    GLL  0     **** GLL Z 20
@<TRIPOS>SET

