#    Name: 4ao5_UMP_4_ligand
#    Modification time : Tue Mar 25 05:54:13 2014

@<TRIPOS>MOLECULE
4ao5_UMP_4_ligand
   31    32     1     0     0
SMALL
NO_CHARGES


@<TRIPOS>ATOM
      1 N1         -5.9890   37.0590  -44.1140 N.am      1 UMP1129     0.0000 
      2 C2         -5.7880   37.5700  -42.8750 C.2       1 UMP1129     0.0000 
      3 N3         -4.5830   38.0600  -42.5010 N.am      1 UMP1129     0.0000 
      4 C4         -3.5660   38.0160  -43.3750 C.2       1 UMP1129     0.0000 
      5 C5         -3.7370   37.4970  -44.6570 C.2       1 UMP1129     0.0000 
      6 C6         -4.9780   36.9990  -45.0020 C.2       1 UMP1129     0.0000 
      7 O2         -6.6960   37.6190  -42.0450 O.2       1 UMP1129     0.0000 
      8 O4         -2.3870   38.4770  -42.9750 O.2       1 UMP1129     0.0000 
      9 C1'        -7.2940   36.5160  -44.4960 C.3       1 UMP1129     0.0000 
     10 C2'        -7.7420   36.8950  -45.9120 C.3       1 UMP1129     0.0000 
     11 C3'        -7.5770   35.6290  -46.7350 C.3       1 UMP1129     0.0000 
     12 C4'        -7.6070   34.5030  -45.7170 C.3       1 UMP1129     0.0000 
     13 O3'        -8.6530   35.5340  -47.6490 O.3       1 UMP1129     0.0000 
     14 O4'        -7.1180   35.0950  -44.5050 O.3       1 UMP1129     0.0000 
     15 C5'        -6.7540   33.3060  -46.1350 C.3       1 UMP1129     0.0000 
     16 O5'        -7.2450   32.7670  -47.3650 O.3       1 UMP1129     0.0000 
     17 P          -6.2800   32.2020  -48.5360 P.3       1 UMP1129     0.0000 
     18 OP1        -5.7510   33.4210  -49.2560 O.co2     1 UMP1129     0.0000 
     19 OP2        -7.2500   31.3670  -49.3270 O.co2     1 UMP1129     0.0000 
     20 OP3        -5.1990   31.4040  -47.8340 O.co2     1 UMP1129     0.0000 
     21 H          -4.4538   38.4608  -41.5555 H         1 UMP1129     0.0000 
     22 H          -2.9632   37.4879  -45.3180 H         1 UMP1129     0.0000 
     23 H          -5.1146   36.5855  -45.9403 H         1 UMP1129     0.0000 
     24 H          -8.0474   36.7889  -43.8026 H         1 UMP1129     0.0000 
     25 H          -7.1071   37.6628  -46.2920 H         1 UMP1129     0.0000 
     26 H          -8.7672   37.1877  -45.8939 H         1 UMP1129     0.0000 
     27 H          -6.6246   35.6533  -47.1950 H         1 UMP1129     0.0000 
     28 H          -8.6295   34.1910  -45.5944 H         1 UMP1129     0.0000 
     29 H          -6.7923   32.5687  -45.3248 H         1 UMP1129     0.0000 
     30 H          -5.7174   33.6500  -46.2278 H         1 UMP1129     0.0000 
     31 H          -8.4955   36.2667  -48.3110 H         1 UMP1129     0.0000 
@<TRIPOS>BOND
     1    2    1 1    
     2    6    1 1    
     3    9    1 1    
     4    3    2 1    
     5    7    2 2    
     6    4    3 1    
     7   21    3 1    
     8    5    4 1    
     9    8    4 2    
    10    6    5 2    
    11   22    5 1    
    12   23    6 1    
    13   10    9 1    
    14   14    9 1    
    15   24    9 1    
    16   11   10 1    
    17   25   10 1    
    18   26   10 1    
    19   12   11 1    
    20   13   11 1    
    21   27   11 1    
    22   14   12 1    
    23   15   12 1    
    24   28   12 1    
    25   31   13 1    
    26   16   15 1    
    27   29   15 1    
    28   30   15 1    
    29   17   16 1    
    30   18   17 ar   
    31   19   17 ar   
    32   20   17 ar   
@<TRIPOS>SUBSTRUCTURE
     1 UMP1129     1 GROUP   
@<TRIPOS>SET

