#    Name: 1mfz_GDX_3_INTS_M
#    Modification time : Tue Mar 25 11:49:46 2014

@<TRIPOS>MOLECULE
1mfz_GDX_3_INTS_M
   79     0    12     0     0
SMALL
NO_CHARGES


@<TRIPOS>ATOM
      1 O         118.8135  139.0670  177.0880 O.2       1 ALC1        0.0000 
      2 O         119.2790  139.9220  178.5030 O.2       9 ALL1        0.0000 
      3 O         118.3480  138.2120  175.6730 O.2       5 ALP1        0.0000 
      4 O         117.9405  139.2665  178.8675 O.2       1 ALC1        0.0000 
      5 O         116.6020  138.6110  179.2320 O.2       5 ALP1        0.0000 
      6 O         120.2535  140.5560  177.5450 O.2       1 ALC1        0.0000 
      7 O         121.2280  141.1900  176.5870 O.2       5 ALP1        0.0000 
      8 O         117.5450  138.9840  179.9380 O.2       1 ALC1        0.0000 
      9 O         118.4880  139.3570  180.6440 O.2       9 ALL1        0.0000 
     10 CA        119.6335  138.2130  183.3485 C.3       4 GLC5        0.0000 
     11 CA        119.7860  139.8680  182.6050 C.3      12 GLL5        0.0000 
     12 CA        119.4810  136.5580  184.0920 C.3       8 GLP5        0.0000 
     13 N         116.7795  137.9025  182.1635 N.am      2 SEC2        0.0000 
     14 N         117.6910  138.7940  182.7190 N.am     10 SEL2        0.0000 
     15 N         115.8680  137.0110  181.6080 N.am      6 SEP2        0.0000 
     16 CA        122.3170  139.2945  181.5370 C.3       4 GLC5        0.0000 
     17 CA        122.9330  141.2960  182.2150 C.3      12 GLL5        0.0000 
     18 CA        121.7010  137.2930  180.8590 C.3       8 GLP5        0.0000 
     19 CA        124.2410  140.6835  180.7895 C.3       4 GLC5        0.0000 
     20 CA        125.5490  140.0710  179.3640 C.3       8 GLP5        0.0000 
     21 CA        125.9045  144.0280  182.8710 C.3       4 GLC5        0.0000 
     22 CA        124.6500  142.6000  182.5730 C.3      12 GLL5        0.0000 
     23 CA        127.1590  145.4560  183.1690 C.3       8 GLP5        0.0000 
     24 N         126.1065  142.9690  180.3895 N.am      2 SEC2        0.0000 
     25 N         125.1300  143.1820  181.3250 N.am     10 SEL2        0.0000 
     26 N         127.0830  142.7560  179.4540 N.am      6 SEP2        0.0000 
     27 CA        124.6140  139.6305  184.6940 C.3       4 GLC5        0.0000 
     28 CA        125.7860  141.1200  184.0000 C.3      12 GLL5        0.0000 
     29 CA        123.4420  138.1410  185.3880 C.3       8 GLP5        0.0000 
     30 CA        126.5825  143.0740  184.2345 C.3       4 GLC5        0.0000 
     31 CA        127.3790  145.0280  184.4690 C.3       8 GLP5        0.0000 
     32 NZ        123.5930  143.0650  187.5465 N.4       3 LYC4        0.0000 
     33 NZ        123.7900  141.8680  187.1060 N.4      11 LYL4        0.0000 
     34 NZ        123.3960  144.2620  187.9870 N.4       7 LYP4        0.0000 
     35 N         122.4450  141.7705  187.2125 N.am      2 SEC2        0.0000 
     36 N         123.7900  141.8680  187.1060 N.am     10 SEL2        0.0000 
     37 N         121.1000  141.6730  187.3190 N.am      6 SEP2        0.0000 
     38 N         123.5930  143.0650  187.5465 N.am      2 SEC2        0.0000 
     39 N         123.3960  144.2620  187.9870 N.am      6 SEP2        0.0000 
     40 N         127.9090  144.0440  189.1710 N.am      2 SEC2        0.0000 
     41 N         128.4280  143.4680  187.9060 N.am     10 SEL2        0.0000 
     42 N         127.3900  144.6200  190.4360 N.am      6 SEP2        0.0000 
     43 CA        130.2700  140.0785  186.7490 C.3       4 GLC5        0.0000 
     44 CA        128.3220  139.8240  187.8020 C.3      12 GLL5        0.0000 
     45 CA        132.2180  140.3330  185.6960 C.3       8 GLP5        0.0000 
     46 CA        128.7350  138.8170  186.0205 C.3       4 GLC5        0.0000 
     47 CA        129.1480  137.8100  184.2390 C.3       8 GLP5        0.0000 
     48 CA        131.5290  140.5725  188.1025 C.3       4 GLC5        0.0000 
     49 CA        130.2450  139.7320  189.2040 C.3      12 GLL5        0.0000 
     50 CA        132.8130  141.4130  187.0010 C.3       8 GLP5        0.0000 
     51 NZ        132.3830  137.4215  189.1270 N.4       3 LYC4        0.0000 
     52 NZ        132.0430  138.6300  188.5080 N.4      11 LYL4        0.0000 
     53 NZ        132.7230  136.2130  189.7460 N.4       7 LYP4        0.0000 
     54 N         132.3830  137.4215  189.1270 N.am      2 SEC2        0.0000 
     55 N         132.0430  138.6300  188.5080 N.am     10 SEL2        0.0000 
     56 N         132.7230  136.2130  189.7460 N.am      6 SEP2        0.0000 
     57 N         132.1795  137.5675  187.8070 N.am      2 SEC2        0.0000 
     58 N         132.3160  136.5050  187.1060 N.am      6 SEP2        0.0000 
     59 N         127.3785  136.6110  187.5545 N.am      2 SEC2        0.0000 
     60 N         128.2160  137.7050  187.9100 N.am     10 SEL2        0.0000 
     61 N         126.5410  135.5170  187.1990 N.am      6 SEP2        0.0000 
     62 O         129.2290  136.8170  187.8450 O.2       1 ALC1        0.0000 
     63 O         128.2160  137.7050  187.9100 O.2       9 ALL1        0.0000 
     64 O         130.2420  135.9290  187.7800 O.2       5 ALP1        0.0000 
     65 CA        129.6290  137.9860  191.9345 C.3       4 GLC5        0.0000 
     66 CA        129.6470  138.6850  189.8050 C.3      12 GLL5        0.0000 
     67 CA        129.6110  137.2870  194.0640 C.3       8 GLP5        0.0000 
     68 O         129.6425  139.9520  191.3845 O.2       1 ALC1        0.0000 
     69 O         130.0580  138.5850  190.9610 O.2       9 ALL1        0.0000 
     70 O         129.2270  141.3190  191.8080 O.2       5 ALP1        0.0000 
     71 CA        120.9935  138.7253  181.5063 C.3       4 GLC5        0.0000 
     72 CA        120.7860  140.4470  181.7020 C.3      12 GLL5        0.0000 
     73 CA        125.2318  141.0310  180.9850 C.3       4 GLC5        0.0000 
     74 CA        125.1790  141.3820  182.6390 C.3      12 GLL5        0.0000 
     75 CA        126.2862  139.6980  183.0863 C.3       4 GLC5        0.0000 
     76 CA        127.0900  138.1450  182.8530 C.3       8 GLP5        0.0000 
     77 CA        126.6816  139.7697  189.8360 C.3       4 GLC5        0.0000 
     78 CA        128.2960  138.7590  189.7560 C.3      12 GLL5        0.0000 
     79 CA        125.1650  140.5170  190.7250 C.3       8 GLP5        0.0000 
@<TRIPOS>BOND
@<TRIPOS>SUBSTRUCTURE
     1 ALC1        1 GROUP        1 X    ALC  0     ROOT ALC X 1
     2 SEC2       13 GROUP        1 X    SEC  0     **** SEC X 2
     3 LYC4       32 GROUP        1 X    LYC  0     **** LYC X 4
     4 GLC5       10 GROUP        1 X    GLC  0     **** GLC X 6
     5 ALP1        3 GROUP        1 Y    ALP  0     ROOT ALP Y 8
     6 SEP2       15 GROUP        1 Y    SEP  0     **** SEP Y 9
     7 LYP4       34 GROUP        1 Y    LYP  0     **** LYP Y 11
     8 GLP5       12 GROUP        1 Y    GLP  0     **** GLP Y 13
     9 ALL1        2 GROUP        1 Z    ALL  0     ROOT ALL Z 15
    10 SEL2       14 GROUP        1 Z    SEL  0     **** SEL Z 16
    11 LYL4       33 GROUP        1 Z    LYL  0     **** LYL Z 18
    12 GLL5       11 GROUP        1 Z    GLL  0     **** GLL Z 20
@<TRIPOS>SET

