#    Name: 1mfz_GDX_3_ligand
#    Modification time : Tue Mar 25 11:49:46 2014

@<TRIPOS>MOLECULE
1mfz_GDX_3_ligand
   60    63     1     0     0
SMALL
NO_CHARGES


@<TRIPOS>ATOM
      1 N2        119.2790  139.9220  178.5030 N.pl3     1 GDX501      0.0000 
      2 C2        119.4540  139.9110  179.8620 C.2       1 GDX501      0.0000 
      3 N1        118.4880  139.3570  180.6440 N.am      1 GDX501      0.0000 
      4 N3        120.5730  140.4480  180.3860 N.2       1 GDX501      0.0000 
      5 C4        120.7860  140.4470  181.7020 C.2       1 GDX501      0.0000 
      6 C5        119.7860  139.8680  182.6050 C.2       1 GDX501      0.0000 
      7 C6        118.5800  139.2980  181.9890 C.2       1 GDX501      0.0000 
      8 O6        117.6910  138.7940  182.7190 O.2       1 GDX501      0.0000 
      9 N7        120.2260  139.9970  183.8610 N.2       1 GDX501      0.0000 
     10 C8        121.4310  140.6160  183.8290 C.2       1 GDX501      0.0000 
     11 N9        121.7010  140.8700  182.5560 N.pl3     1 GDX501      0.0000 
     12 C1D       122.9330  141.2960  182.2150 C.3       1 GDX501      0.0000 
     13 C2D       123.2970  142.5040  182.6210 C.3       1 GDX501      0.0000 
     14 O2D       122.6740  143.3420  181.9570 O.3       1 GDX501      0.0000 
     15 C3D       124.6500  142.6000  182.5730 C.3       1 GDX501      0.0000 
     16 O3D       125.1300  143.1820  181.3250 O.3       1 GDX501      0.0000 
     17 C4D       125.1790  141.3820  182.6390 C.3       1 GDX501      0.0000 
     18 O4D       124.0940  140.4600  182.3870 O.3       1 GDX501      0.0000 
     19 C5D       125.7860  141.1200  184.0000 C.3       1 GDX501      0.0000 
     20 O5D       125.1260  141.8920  184.9990 O.3       1 GDX501      0.0000 
     21 PA        125.1670  141.5340  186.5740 P.3       1 GDX501      0.0000 
     22 O1A       125.7770  140.1620  186.7890 O.co2     1 GDX501      0.0000 
     23 O2A       123.7900  141.8680  187.1060 O.co2     1 GDX501      0.0000 
     24 O3A       126.1720  142.6240  187.1600 O.3       1 GDX501      0.0000 
     25 PB        127.7080  142.2620  187.3640 P.3       1 GDX501      0.0000 
     26 O2B       128.4280  143.4680  187.9060 O.co2     1 GDX501      0.0000 
     27 O3B       128.3030  141.9090  186.0380 O.co2     1 GDX501      0.0000 
     28 O1B       127.8370  141.0460  188.4230 O.3       1 GDX501      0.0000 
     29 C1'       128.3220  139.8240  187.8020 C.3       1 GDX501      0.0000 
     30 O5'       129.7700  139.8940  187.8340 O.3       1 GDX501      0.0000 
     31 C5'       130.2450  139.7320  189.2040 C.3       1 GDX501      0.0000 
     32 C6'       131.5740  139.5440  189.1690 C.2       1 GDX501      0.0000 
     33 O6A       132.0430  138.6300  188.5080 O.co2     1 GDX501      0.0000 
     34 O6B       132.3450  140.2750  189.7780 O.co2     1 GDX501      0.0000 
     35 C2'       127.8790  138.7480  188.4740 C.3       1 GDX501      0.0000 
     36 O2'       128.2160  137.7050  187.9100 O.3       1 GDX501      0.0000 
     37 C3'       128.2960  138.7590  189.7560 C.3       1 GDX501      0.0000 
     38 O3'       127.7550  137.8400  190.3930 O.3       1 GDX501      0.0000 
     39 C4'       129.6470  138.6850  189.8050 C.3       1 GDX501      0.0000 
     40 O4'       130.0580  138.5850  190.9610 O.3       1 GDX501      0.0000 
     41 H         118.4257  139.5241  178.1660 H         1 GDX501      0.0000 
     42 H         120.0199  140.3269  177.9672 H         1 GDX501      0.0000 
     43 H         117.6283  138.9559  180.1720 H         1 GDX501      0.0000 
     44 H         121.9731  140.8235  184.5935 H         1 GDX501      0.0000 
     45 H         122.9150  141.4145  181.0073 H         1 GDX501      0.0000 
     46 H         123.0004  142.5720  183.7281 H         1 GDX501      0.0000 
     47 H         125.0328  143.2285  183.3912 H         1 GDX501      0.0000 
     48 H         125.9528  141.2192  181.8943 H         1 GDX501      0.0000 
     49 H         126.8591  141.3618  183.9457 H         1 GDX501      0.0000 
     50 H         125.7069  140.0409  184.2053 H         1 GDX501      0.0000 
     51 H         128.0050  139.8297  186.7585 H         1 GDX501      0.0000 
     52 H         130.0088  140.6743  189.7355 H         1 GDX501      0.0000 
     53 H         126.7335  138.8260  188.5025 H         1 GDX501      0.0000 
     54 H         128.0025  139.7729  190.1889 H         1 GDX501      0.0000 
     55 H         129.9476  137.7513  189.2039 H         1 GDX501      0.0000 
     56 H         123.2855  143.5808  181.2025 H         1 GDX501      0.0000 
     57 H         125.7692  143.8991  181.6030 H         1 GDX501      0.0000 
     58 H         129.0775  137.4426  188.3447 H         1 GDX501      0.0000 
     59 H         128.4492  137.5329  191.0440 H         1 GDX501      0.0000 
     60 H         130.2941  139.5179  191.2332 H         1 GDX501      0.0000 
@<TRIPOS>BOND
     1    2    1 1    
     2   41    1 1    
     3   42    1 1    
     4    3    2 1    
     5    4    2 2    
     6    7    3 am   
     7   43    3 1    
     8    5    4 1    
     9    6    5 2    
    10   11    5 1    
    11    7    6 1    
    12    9    6 1    
    13    8    7 2    
    14   10    9 2    
    15   11   10 1    
    16   44   10 1    
    17   12   11 1    
    18   13   12 1    
    19   18   12 1    
    20   45   12 1    
    21   14   13 1    
    22   15   13 1    
    23   46   13 1    
    24   56   14 1    
    25   16   15 1    
    26   17   15 1    
    27   47   15 1    
    28   57   16 1    
    29   18   17 1    
    30   19   17 1    
    31   48   17 1    
    32   20   19 1    
    33   49   19 1    
    34   50   19 1    
    35   21   20 1    
    36   22   21 ar   
    37   23   21 ar   
    38   24   21 1    
    39   25   24 1    
    40   26   25 ar   
    41   27   25 ar   
    42   28   25 1    
    43   29   28 1    
    44   30   29 1    
    45   35   29 1    
    46   51   29 1    
    47   31   30 1    
    48   32   31 1    
    49   39   31 1    
    50   52   31 1    
    51   33   32 ar   
    52   34   32 ar   
    53   36   35 1    
    54   37   35 1    
    55   53   35 1    
    56   58   36 1    
    57   38   37 1    
    58   39   37 1    
    59   54   37 1    
    60   59   38 1    
    61   40   39 1    
    62   55   39 1    
    63   60   40 1    
@<TRIPOS>SUBSTRUCTURE
     1 GDX501      1 GROUP   
@<TRIPOS>SET

