#    Name: 3qih_NI7_2_INTS_M
#    Modification time : Mon Apr  7 19:35:15 2014

@<TRIPOS>MOLECULE
3qih_NI7_2_INTS_M
   65     0     9     0     0
SMALL
NO_CHARGES


@<TRIPOS>ATOM
      1 CA        -20.3990   20.6845   -6.1260 C.3       3 GLC5        0.0000 
      2 CA        -19.1360   19.0040   -6.3390 C.3       9 GLL5        0.0000 
      3 CA        -21.6620   22.3650   -5.9130 C.3       6 GLP5        0.0000 
      4 CA        -18.7370   15.4660   -6.5300 C.3       3 GLC5        0.0000 
      5 CA        -19.8330   16.8320   -7.3550 C.3       9 GLL5        0.0000 
      6 CA        -17.6410   14.1000   -5.7050 C.3       6 GLP5        0.0000 
      7 N         -20.3480   13.2165   -8.1970 N.am      1 SEC2        0.0000 
      8 N         -20.6020   14.7250   -8.1940 N.am      7 SEL2        0.0000 
      9 N         -20.0940   11.7080   -8.2000 N.am      4 SEP2        0.0000 
     10 CA        -20.3435   16.6555  -10.9820 C.3       3 GLC5        0.0000 
     11 CA        -18.9320   15.9570   -9.4000 C.3       9 GLL5        0.0000 
     12 CA        -21.7550   17.3540  -12.5640 C.3       6 GLP5        0.0000 
     13 N         -18.1740   22.6145   -8.5495 N.am      1 SEC2        0.0000 
     14 N         -18.5530   21.5640   -7.5550 N.am      7 SEL2        0.0000 
     15 N         -17.7950   23.6650   -9.5440 N.am      4 SEP2        0.0000 
     16 N         -18.7685   23.7590   -5.5655 N.am      1 SEC2        0.0000 
     17 N         -17.1660   23.2270   -5.8450 N.am      7 SEL2        0.0000 
     18 N         -20.3710   24.2910   -5.2860 N.am      4 SEP2        0.0000 
     19 CA        -15.5080   23.6510   -6.6915 C.3       3 GLC5        0.0000 
     20 CA        -14.5250   22.2540   -5.2970 C.3       9 GLL5        0.0000 
     21 CA        -16.4910   25.0480   -8.0860 C.3       6 GLP5        0.0000 
     22 CA        -12.0995   22.0875   -3.0805 C.3       3 GLC5        0.0000 
     23 CA        -13.1280   23.4570   -3.6070 C.3       9 GLL5        0.0000 
     24 CA        -11.0710   20.7180   -2.5540 C.3       6 GLP5        0.0000 
     25 N         -10.4310   24.2155   -1.2395 N.am      1 SEC2        0.0000 
     26 N         -11.6920   24.6080   -2.0710 N.am      7 SEL2        0.0000 
     27 N          -9.1700   23.8230   -0.4080 N.am      4 SEP2        0.0000 
     28 CA        -14.4035   25.9920   -1.3215 C.3       3 GLC5        0.0000 
     29 CA        -13.8670   23.8970   -1.3700 C.3       9 GLL5        0.0000 
     30 CA        -14.9400   28.0870   -1.2730 C.3       6 GLP5        0.0000 
     31 CA        -16.3575   16.4455   -3.7000 C.3       3 GLC5        0.0000 
     32 CA        -16.7180   18.0010   -5.0460 C.3       9 GLL5        0.0000 
     33 CA        -15.9970   14.8900   -2.3540 C.3       6 GLP5        0.0000 
     34 CA        -17.1795   16.0505   -5.3755 C.3       3 GLC5        0.0000 
     35 OD1       -14.5995   16.8655   -4.6685 O.co2     2 ASC3        0.0000 
     36 OD1       -15.3710   18.0570   -4.4640 O.co2     8 ASL3        0.0000 
     37 OD1       -13.8280   15.6740   -4.8730 O.co2     5 ASP3        0.0000 
     38 OD1       -14.6465   17.4485   -5.5915 O.co2     2 ASC3        0.0000 
     39 OD1       -13.9220   16.8400   -6.7190 O.co2     5 ASP3        0.0000 
     40 OD1       -14.3850   17.6005   -3.4600 O.co2     2 ASC3        0.0000 
     41 OD1       -13.3990   17.1440   -2.4560 O.co2     5 ASP3        0.0000 
     42 OD1       -15.2635   18.1535   -3.0995 O.co2     2 ASC3        0.0000 
     43 OD1       -15.1560   18.2500   -1.7350 O.co2     5 ASP3        0.0000 
     44 CA        -12.8490   18.4920   -4.6810 C.3       3 GLC5        0.0000 
     45 CA        -14.7310   19.3710   -4.5980 C.3       9 GLL5        0.0000 
     46 CA        -10.9670   17.6130   -4.7640 C.3       6 GLP5        0.0000 
     47 CA        -13.4015   20.0845   -3.0010 C.3       3 GLC5        0.0000 
     48 CA        -12.0720   20.7980   -1.4040 C.3       6 GLP5        0.0000 
     49 CA        -18.8747   15.9025  -11.1565 C.3       3 GLC5        0.0000 
     50 CA        -19.2220   15.2830  -12.8640 C.3       6 GLP5        0.0000 
     51 CA        -16.7058   15.6560   -9.6960 C.3       3 GLC5        0.0000 
     52 CA        -14.8840   14.7900   -9.9430 C.3       6 GLP5        0.0000 
     53 CA        -18.7687   18.6455  -10.5100 C.3       3 GLC5        0.0000 
     54 CA        -18.1230   17.0870   -9.4980 C.3       9 GLL5        0.0000 
     55 CA        -19.3970   19.7020  -12.0080 C.3       6 GLP5        0.0000 
     56 CA        -15.2248   24.2237    0.0782 C.3       3 GLC5        0.0000 
     57 CA        -15.0780   23.2720   -1.6570 C.3       9 GLL5        0.0000 
     58 CA        -15.9770   24.8630    1.6700 C.3       6 GLP5        0.0000 
     59 CA        -14.4657   22.1037   -0.1173 C.3       3 GLC5        0.0000 
     60 CA        -14.4590   20.6230    1.2790 C.3       6 GLP5        0.0000 
     61 CA        -16.1644   24.4421   -2.2704 C.3       3 GLC5        0.0000 
     62 CA        -17.4330   25.7270   -2.3240 C.3       6 GLP5        0.0000 
     63 CA        -17.8756   15.4921   -7.9056 C.3       3 GLC5        0.0000 
     64 CA        -16.8900   14.2590   -7.0110 C.3       6 GLP5        0.0000 
     65 CA        -13.1182   22.1416   -1.8002 C.3       3 GLC5        0.0000 
@<TRIPOS>BOND
@<TRIPOS>SUBSTRUCTURE
     1 SEC2        7 GROUP        1 X    SEC  0     ROOT SEC X 2
     2 ASC3       35 GROUP        1 X    ASC  0     **** ASC X 3
     3 GLC5        1 GROUP        1 X    GLC  0     **** GLC X 6
     4 SEP2        9 GROUP        1 Y    SEP  0     ROOT SEP Y 9
     5 ASP3       37 GROUP        1 Y    ASP  0     **** ASP Y 10
     6 GLP5        3 GROUP        1 Y    GLP  0     **** GLP Y 13
     7 SEL2        8 GROUP        1 Z    SEL  0     ROOT SEL Z 16
     8 ASL3       36 GROUP        1 Z    ASL  0     **** ASL Z 17
     9 GLL5        2 GROUP        1 Z    GLL  0     **** GLL Z 20
@<TRIPOS>SET

