#    Name: 3qih_NI7_2_ligand
#    Modification time : Mon Apr  7 19:35:15 2014

@<TRIPOS>MOLECULE
3qih_NI7_2_ligand
   47    50     1     0     0
SMALL
NO_CHARGES


@<TRIPOS>ATOM
      1 C1        -15.6560   20.0440   -5.6100 C.3       1 NI7100      0.0000 
      2 C2        -17.0030   19.4950   -5.1650 C.3       1 NI7100      0.0000 
      3 N3        -18.0070   19.9140   -6.1360 N.am      1 NI7100      0.0000 
      4 C5        -19.1360   19.0040   -6.3390 C.3       1 NI7100      0.0000 
      5 C6        -19.0210   17.9610   -7.4400 C.ar      1 NI7100      0.0000 
      6 C7        -19.8330   16.8320   -7.3550 C.ar      1 NI7100      0.0000 
      7 C8        -19.8000   15.8310   -8.3200 C.ar      1 NI7100      0.0000 
      8 O9        -20.6020   14.7250   -8.1940 O.3       1 NI7100      0.0000 
      9 C10       -18.9320   15.9570   -9.4000 C.ar      1 NI7100      0.0000 
     10 C11       -18.1230   17.0870   -9.4980 C.ar      1 NI7100      0.0000 
     11 C12       -18.1580   18.0910   -8.5260 C.ar      1 NI7100      0.0000 
     12 C13       -17.8840   21.1520   -6.6230 C.2       1 NI7100      0.0000 
     13 O14       -18.5530   21.5640   -7.5550 O.2       1 NI7100      0.0000 
     14 C15       -16.9150   22.0380   -5.9730 C.2       1 NI7100      0.0000 
     15 O16       -17.1660   23.2270   -5.8450 O.2       1 NI7100      0.0000 
     16 N17       -15.7560   21.5060   -5.5830 N.am      1 NI7100      0.0000 
     17 C18       -14.5250   22.2540   -5.2970 C.3       1 NI7100      0.0000 
     18 C19       -14.3360   22.8220   -3.8990 C.ar      1 NI7100      0.0000 
     19 C20       -13.1280   23.4570   -3.6070 C.ar      1 NI7100      0.0000 
     20 C21       -12.8850   23.9960   -2.3490 C.ar      1 NI7100      0.0000 
     21 O22       -11.6920   24.6080   -2.0710 O.3       1 NI7100      0.0000 
     22 C23       -13.8670   23.8970   -1.3700 C.ar      1 NI7100      0.0000 
     23 C24       -15.0780   23.2720   -1.6570 C.ar      1 NI7100      0.0000 
     24 C25       -15.3190   22.7300   -2.9200 C.ar      1 NI7100      0.0000 
     25 C26       -16.7180   18.0010   -5.0460 C.3       1 NI7100      0.0000 
     26 N27       -15.3710   18.0570   -4.4640 N.4       1 NI7100      0.0000 
     27 C28       -14.7310   19.3710   -4.5980 C.3       1 NI7100      0.0000 
     28 H         -15.4686   19.6496   -6.5748 H         1 NI7100      0.0000 
     29 H         -17.1829   19.8899   -4.1848 H         1 NI7100      0.0000 
     30 H         -20.0744   19.5994   -6.5324 H         1 NI7100      0.0000 
     31 H         -19.3628   18.4590   -5.3777 H         1 NI7100      0.0000 
     32 H         -20.4815   16.7361   -6.5470 H         1 NI7100      0.0000 
     33 H         -18.8876   15.2272  -10.1159 H         1 NI7100      0.0000 
     34 H         -17.4827   17.1870  -10.3057 H         1 NI7100      0.0000 
     35 H         -17.5553   18.9120   -8.6131 H         1 NI7100      0.0000 
     36 H         -14.4237   23.1087   -6.0279 H         1 NI7100      0.0000 
     37 H         -13.6281   21.6072   -5.5254 H         1 NI7100      0.0000 
     38 H         -12.4017   23.5266   -4.3418 H         1 NI7100      0.0000 
     39 H         -13.7001   24.2854   -0.4324 H         1 NI7100      0.0000 
     40 H         -15.8062   23.2084   -0.9281 H         1 NI7100      0.0000 
     41 H         -16.2101   22.2703   -3.1212 H         1 NI7100      0.0000 
     42 H         -16.7059   17.5741   -6.0071 H         1 NI7100      0.0000 
     43 H         -17.4086   17.5697   -4.3804 H         1 NI7100      0.0000 
     44 H         -14.7616   19.9114   -3.6900 H         1 NI7100      0.0000 
     45 H         -13.7633   19.2900   -5.0157 H         1 NI7100      0.0000 
     46 H         -21.3945   15.0384   -7.6709 H         1 NI7100      0.0000 
     47 H         -11.3997   25.0110   -2.9383 H         1 NI7100      0.0000 
@<TRIPOS>BOND
     1    2    1 1    
     2   16    1 1    
     3   27    1 1    
     4   28    1 1    
     5    3    2 1    
     6   25    2 1    
     7   29    2 1    
     8    4    3 1    
     9   12    3 am   
    10    5    4 1    
    11   30    4 1    
    12   31    4 1    
    13    6    5 ar   
    14   11    5 ar   
    15    7    6 ar   
    16   32    6 1    
    17    8    7 1    
    18    9    7 ar   
    19   46    8 1    
    20   10    9 ar   
    21   33    9 1    
    22   11   10 ar   
    23   34   10 1    
    24   35   11 1    
    25   13   12 2    
    26   14   12 1    
    27   15   14 2    
    28   16   14 am   
    29   17   16 1    
    30   18   17 1    
    31   36   17 1    
    32   37   17 1    
    33   19   18 ar   
    34   24   18 ar   
    35   20   19 ar   
    36   38   19 1    
    37   21   20 1    
    38   22   20 ar   
    39   47   21 1    
    40   23   22 ar   
    41   39   22 1    
    42   24   23 ar   
    43   40   23 1    
    44   41   24 1    
    45   26   25 1    
    46   42   25 1    
    47   43   25 1    
    48   27   26 1    
    49   44   27 1    
    50   45   27 1    
@<TRIPOS>SUBSTRUCTURE
     1 NI7100      1 GROUP   
@<TRIPOS>SET

