#    Name: 3zoi_M2W_1_INTS_M
#    Modification time : Tue Mar 25 03:45:26 2014

@<TRIPOS>MOLECULE
3zoi_M2W_1_INTS_M
   65     0     9     0     0
SMALL
NO_CHARGES


@<TRIPOS>ATOM
      1 NZ         18.5875   35.4410    3.9930 N.4       2 LYC4        0.0000 
      2 NZ         17.2880   35.7250    4.4260 N.4       8 LYL4        0.0000 
      3 NZ         20.9130   35.3530    4.3650 N.4       5 LYP4        0.0000 
      4 N          18.5875   35.4410    3.9930 N.am      1 SEC2        0.0000 
      5 N          17.2880   35.7250    4.4260 N.am      7 SEL2        0.0000 
      6 N          19.8870   35.1570    3.5600 N.am      4 SEP2        0.0000 
      7 N          16.8495   34.6760    3.7555 N.am      1 SEC2        0.0000 
      8 N          16.4110   33.6270    3.0850 N.am      4 SEP2        0.0000 
      9 CA         12.3675   37.8295    3.7905 C.3       3 GLC5        0.0000 
     10 CA         13.2660   39.1140    5.3080 C.3       9 GLL5        0.0000 
     11 CA         11.4690   36.5450    2.2730 C.3       6 GLP5        0.0000 
     12 CA         15.2500   39.7980    4.7725 C.3       3 GLC5        0.0000 
     13 CA         17.2340   40.4820    4.2370 C.3       6 GLP5        0.0000 
     14 CA         12.8705   40.9475    4.9375 C.3       3 GLC5        0.0000 
     15 CA         12.4750   42.7810    4.5670 C.3       6 GLP5        0.0000 
     16 CA         16.1330   34.3755    6.8685 C.3       3 GLC5        0.0000 
     17 CA         15.6770   36.2040    6.2100 C.3       9 GLL5        0.0000 
     18 CA         16.5890   32.5470    7.5270 C.3       6 GLP5        0.0000 
     19 CA         14.2745   34.6645    5.9795 C.3       3 GLC5        0.0000 
     20 CA         12.8720   33.1250    5.7490 C.3       6 GLP5        0.0000 
     21 CA         16.1850   38.9275    4.8160 C.3       3 GLC5        0.0000 
     22 CA         15.1360   37.3730    5.3950 C.3       9 GLL5        0.0000 
     23 NZ         19.4065   35.9190    6.0550 N.4       2 LYC4        0.0000 
     24 NZ         18.1170   36.0660    6.5300 N.4       8 LYL4        0.0000 
     25 N          19.4065   35.9190    6.0550 N.am      1 SEC2        0.0000 
     26 N          18.1170   36.0660    6.5300 N.am      7 SEL2        0.0000 
     27 N          20.6960   35.7720    5.5800 N.am      4 SEP2        0.0000 
     28 CA          8.9810   41.1105    5.8790 C.3       3 GLC5        0.0000 
     29 CA          9.4870   39.3270    4.9550 C.3       9 GLL5        0.0000 
     30 CA          8.4750   42.8940    6.8030 C.3       6 GLP5        0.0000 
     31 CA         10.4780   37.9360    3.6140 C.3       3 GLC5        0.0000 
     32 CA          8.3175   41.7955    4.8310 C.3       3 GLC5        0.0000 
     33 CA          9.0460   40.3940    3.8770 C.3       9 GLL5        0.0000 
     34 CA          7.5890   43.1970    5.7850 C.3       6 GLP5        0.0000 
     35 CA         10.7605   41.5875    4.2220 C.3       3 GLC5        0.0000 
     36 CA         10.5425   38.4395    1.5960 C.3       3 GLC5        0.0000 
     37 CA          9.3960   39.8050    2.1970 C.3       9 GLL5        0.0000 
     38 CA         11.6890   37.0740    0.9950 C.3       6 GLP5        0.0000 
     39 CA          7.0705   35.5505    5.5900 C.3       3 GLC5        0.0000 
     40 CA          6.6110   36.8540    4.4560 C.3       9 GLL5        0.0000 
     41 CA          7.5300   34.2470    6.7240 C.3       6 GLP5        0.0000 
     42 N           4.4720   37.9905    7.1215 N.am      1 SEC2        0.0000 
     43 N           5.2880   38.0080    6.0010 N.am      7 SEL2        0.0000 
     44 N           3.6560   37.9730    8.2420 N.am      4 SEP2        0.0000 
     45 CA          8.5295   34.9050    1.9245 C.3       3 GLC5        0.0000 
     46 CA          7.4850   36.3960    2.1080 C.3       9 GLL5        0.0000 
     47 CA          9.5740   33.4140    1.7410 C.3       6 GLP5        0.0000 
     48 CA          9.4770   36.4705    2.1905 C.3       3 GLC5        0.0000 
     49 CA          4.4015   35.9120    0.5245 C.3       3 GLC5        0.0000 
     50 CA          4.4020   37.2850    1.6850 C.3       9 GLL5        0.0000 
     51 CA          4.4010   34.5390   -0.6360 C.3       6 GLP5        0.0000 
     52 CA          3.0985   37.3000    0.4890 C.3       3 GLC5        0.0000 
     53 CA          1.7950   37.3150   -0.7070 C.3       6 GLP5        0.0000 
     54 CA          3.4295   38.5770    2.9830 C.3       3 GLC5        0.0000 
     55 CA          2.4570   39.8690    4.2810 C.3       6 GLP5        0.0000 
     56 N           4.4060   34.8990    4.5825 N.am      1 SEC2        0.0000 
     57 N           4.4420   36.0500    5.2210 N.am      7 SEL2        0.0000 
     58 N           4.3700   33.7480    3.9440 N.am      4 SEP2        0.0000 
     59 CA         13.3915   36.5982    4.2237 C.3       3 GLC5        0.0000 
     60 CA         13.7000   37.8180    5.9060 C.3       9 GLL5        0.0000 
     61 CA         12.3650   35.6010    2.7970 C.3       6 GLP5        0.0000 
     62 CA          8.8730   41.8777    2.3550 C.3       3 GLC5        0.0000 
     63 CA          8.5250   43.6560    1.6730 C.3       6 GLP5        0.0000 
     64 CA          6.3498   34.7743    1.6735 C.3       3 GLC5        0.0000 
     65 CA          5.8030   32.9800    0.8070 C.3       6 GLP5        0.0000 
@<TRIPOS>BOND
@<TRIPOS>SUBSTRUCTURE
     1 SEC2        4 GROUP        1 X    SEC  0     ROOT SEC X 2
     2 LYC4        1 GROUP        1 X    LYC  0     **** LYC X 4
     3 GLC5        9 GROUP        1 X    GLC  0     **** GLC X 6
     4 SEP2        6 GROUP        1 Y    SEP  0     ROOT SEP Y 9
     5 LYP4        3 GROUP        1 Y    LYP  0     **** LYP Y 11
     6 GLP5       11 GROUP        1 Y    GLP  0     **** GLP Y 13
     7 SEL2        5 GROUP        1 Z    SEL  0     ROOT SEL Z 16
     8 LYL4        2 GROUP        1 Z    LYL  0     **** LYL Z 18
     9 GLL5       10 GROUP        1 Z    GLL  0     **** GLL Z 20
@<TRIPOS>SET

