#    Name: 3zoi_M2W_1_ligand
#    Modification time : Tue Mar 25 03:45:26 2014

@<TRIPOS>MOLECULE
3zoi_M2W_1_ligand
   48    47     1     0     0
SMALL
NO_CHARGES


@<TRIPOS>ATOM
      1 C8         11.8380   39.4180    5.6620 C.2       1 M2W1332     0.0000 
      2 O27        11.5260   39.8010    6.7830 O.2       1 M2W1332     0.0000 
      3 O22        17.2880   35.7250    4.4260 O.co2     1 M2W1332     0.0000 
      4 C9         13.2660   39.1140    5.3080 C.3       1 M2W1332     0.0000 
      5 C20        17.1300   35.9880    5.6530 C.2       1 M2W1332     0.0000 
      6 C16        15.6770   36.2040    6.2100 C.3       1 M2W1332     0.0000 
      7 C13        15.1360   37.3730    5.3950 C.3       1 M2W1332     0.0000 
      8 C10        13.7000   37.8180    5.9060 C.3       1 M2W1332     0.0000 
      9 N19        15.6820   36.4030    7.6990 N.4       1 M2W1332     0.0000 
     10 O21        18.1170   36.0660    6.5300 O.co2     1 M2W1332     0.0000 
     11 N7         10.9230   39.1020    4.7470 N.am      1 M2W1332     0.0000 
     12 C3          9.4870   39.3270    4.9550 C.3       1 M2W1332     0.0000 
     13 C1          8.7340   37.9940    4.8370 C.2       1 M2W1332     0.0000 
     14 O6          9.3330   36.9150    4.8450 O.2       1 M2W1332     0.0000 
     15 C35         9.0460   40.3940    3.8770 C.3       1 M2W1332     0.0000 
     16 S37         9.3960   39.8050    2.1970 S.3       1 M2W1332     0.0000 
     17 N2          7.4150   38.0570    4.6930 N.am      1 M2W1332     0.0000 
     18 C4          6.6110   36.8540    4.4560 C.3       1 M2W1332     0.0000 
     19 C23         5.3330   36.9170    5.2740 C.2       1 M2W1332     0.0000 
     20 O25         5.2880   38.0080    6.0010 O.co2     1 M2W1332     0.0000 
     21 C5          6.3080   36.7410    2.9720 C.3       1 M2W1332     0.0000 
     22 O41         5.3380   37.7460    2.6180 O.3       1 M2W1332     0.0000 
     23 C46         7.4850   36.3960    2.1080 C.3       1 M2W1332     0.0000 
     24 C42         4.4020   37.2850    1.6850 C.3       1 M2W1332     0.0000 
     25 O26         4.4420   36.0500    5.2210 O.co2     1 M2W1332     0.0000 
     26 H          13.9094   39.9230    5.6727 H         1 M2W1332     0.0000 
     27 H          13.3670   39.0699    4.2174 H         1 M2W1332     0.0000 
     28 H          15.1213   35.3153    5.9371 H         1 M2W1332     0.0000 
     29 H          15.0426   37.0918    4.3512 H         1 M2W1332     0.0000 
     30 H          15.7972   38.2290    5.4814 H         1 M2W1332     0.0000 
     31 H          13.0040   37.0163    5.6476 H         1 M2W1332     0.0000 
     32 H          13.7539   37.8892    6.9950 H         1 M2W1332     0.0000 
     33 H          11.1789   38.6752    3.8281 H         1 M2W1332     0.0000 
     34 H           9.3200   39.7559    5.9216 H         1 M2W1332     0.0000 
     35 H           9.6073   41.2886    3.9412 H         1 M2W1332     0.0000 
     36 H           7.9993   40.5479    3.8659 H         1 M2W1332     0.0000 
     37 H           6.8860   38.9497    4.7395 H         1 M2W1332     0.0000 
     38 H           7.1701   35.9772    4.7575 H         1 M2W1332     0.0000 
     39 H           5.6565   35.7172    2.9744 H         1 M2W1332     0.0000 
     40 H          15.1459   35.7019    8.1692 H         1 M2W1332     0.0000 
     41 H          16.6077   36.3658    8.0755 H         1 M2W1332     0.0000 
     42 H          15.2962   37.2889    7.9566 H         1 M2W1332     0.0000 
     43 H           8.2089   37.0826    2.1751 H         1 M2W1332     0.0000 
     44 H           7.8892   35.5180    2.3643 H         1 M2W1332     0.0000 
     45 H           7.2310   36.3312    1.1430 H         1 M2W1332     0.0000 
     46 H           4.8381   36.9985    0.8319 H         1 M2W1332     0.0000 
     47 H           3.8894   36.4989    2.0305 H         1 M2W1332     0.0000 
     48 H           3.7335   37.9905    1.4499 H         1 M2W1332     0.0000 
@<TRIPOS>BOND
     1    2    1 2    
     2    4    1 1    
     3   11    1 am   
     4    5    3 ar   
     5    8    4 1    
     6   26    4 1    
     7   27    4 1    
     8    6    5 1    
     9   10    5 ar   
    10    7    6 1    
    11    9    6 1    
    12   28    6 1    
    13    8    7 1    
    14   29    7 1    
    15   30    7 1    
    16   31    8 1    
    17   32    8 1    
    18   40    9 1    
    19   41    9 1    
    20   42    9 1    
    21   12   11 1    
    22   33   11 1    
    23   13   12 1    
    24   15   12 1    
    25   34   12 1    
    26   14   13 2    
    27   17   13 am   
    28   16   15 1    
    29   35   15 1    
    30   36   15 1    
    31   18   17 1    
    32   37   17 1    
    33   19   18 1    
    34   21   18 1    
    35   38   18 1    
    36   20   19 ar   
    37   25   19 ar   
    38   22   21 1    
    39   23   21 1    
    40   39   21 1    
    41   24   22 1    
    42   43   23 1    
    43   44   23 1    
    44   45   23 1    
    45   46   24 1    
    46   47   24 1    
    47   48   24 1    
@<TRIPOS>SUBSTRUCTURE
     1 M2W1332     1 GROUP   
@<TRIPOS>SET

