#    Name: 2gz8_F3F_1_INTS_M
#    Modification time : Tue Mar 25 15:16:12 2014

@<TRIPOS>MOLECULE
2gz8_F3F_1_INTS_M
   40     0     6     0     0
SMALL
NO_CHARGES


@<TRIPOS>ATOM
      1 CA        -27.7190  -37.5530    7.6790 C.3       2 GLC5        0.0000 
      2 CA        -26.0460  -36.6780    7.3640 C.3       6 GLL5        0.0000 
      3 CA        -29.3920  -38.4280    7.9940 C.3       4 GLP5        0.0000 
      4 CA        -27.2295  -38.0170    5.8445 C.3       2 GLC5        0.0000 
      5 CA        -25.5570  -37.2210    6.1650 C.3       6 GLL5        0.0000 
      6 CA        -28.9020  -38.8130    5.5240 C.3       4 GLP5        0.0000 
      7 CA        -19.9295  -39.1780    2.1735 C.3       2 GLC5        0.0000 
      8 CA        -20.0150  -41.1560    1.3150 C.3       6 GLL5        0.0000 
      9 CA        -19.8440  -37.2000    3.0320 C.3       4 GLP5        0.0000 
     10 CA        -20.4815  -48.4595    1.4810 C.3       2 GLC5        0.0000 
     11 CA        -20.3730  -46.5440    0.7750 C.3       6 GLL5        0.0000 
     12 CA        -20.5900  -50.3750    2.1870 C.3       4 GLP5        0.0000 
     13 CA        -18.4340  -46.1775    0.4830 C.3       2 GLC5        0.0000 
     14 CA        -16.4950  -45.8110    0.1910 C.3       4 GLP5        0.0000 
     15 CA        -22.0555  -48.0530    3.1220 C.3       2 GLC5        0.0000 
     16 CA        -22.1450  -46.3600    2.0590 C.3       6 GLL5        0.0000 
     17 CA        -21.9660  -49.7460    4.1850 C.3       4 GLP5        0.0000 
     18 CA        -21.2770  -45.6665    3.0775 C.3       2 GLC5        0.0000 
     19 CA        -20.4090  -44.9730    4.0960 C.3       4 GLP5        0.0000 
     20 N         -22.1840  -41.8630   -1.1645 N.am      1 SEC2        0.0000 
     21 N         -22.0550  -42.6210    0.1760 N.am      5 SEL2        0.0000 
     22 N         -22.3130  -41.1050   -2.5050 N.am      3 SEP2        0.0000 
     23 CA        -22.9577  -34.4140    6.1795 C.3       2 GLC5        0.0000 
     24 CA        -24.7560  -35.0310    5.5060 C.3       6 GLL5        0.0000 
     25 CA        -20.9130  -34.0680    6.2560 C.3       4 GLP5        0.0000 
     26 CA        -23.9222  -33.3115    6.3965 C.3       2 GLC5        0.0000 
     27 CA        -22.8420  -31.8630    6.6900 C.3       4 GLP5        0.0000 
     28 CA        -25.5880  -35.4935    9.3708 C.3       2 GLC5        0.0000 
     29 CA        -25.2060  -34.9920   11.2440 C.3       4 GLP5        0.0000 
     30 CA        -24.2713  -37.2570    7.9056 C.3       2 GLC5        0.0000 
     31 CA        -25.8940  -35.3120    7.6310 C.3       6 GLL5        0.0000 
     32 CA        -22.7790  -37.9060    8.9800 C.3       4 GLP5        0.0000 
     33 CA        -21.7443  -37.4685    2.6932 C.3       2 GLC5        0.0000 
     34 CA        -23.9760  -37.5160    2.9550 C.3       6 GLL5        0.0000 
     35 CA        -21.1523  -37.8670    1.6771 C.3       2 GLC5        0.0000 
     36 CA        -21.8780  -39.0890    0.5440 C.3       6 GLL5        0.0000 
     37 CA        -20.3498  -46.4645    2.3282 C.3       2 GLC5        0.0000 
     38 CA        -19.7010  -46.6070    3.8500 C.3       4 GLP5        0.0000 
     39 CA        -20.3340  -46.5650   -0.7213 C.3       2 GLC5        0.0000 
     40 CA        -19.4880  -46.6480   -2.0150 C.3       4 GLP5        0.0000 
@<TRIPOS>BOND
@<TRIPOS>SUBSTRUCTURE
     1 SEC2       20 GROUP        1 X    SEC  0     ROOT SEC X 2
     2 GLC5        1 GROUP        1 X    GLC  0     **** GLC X 6
     3 SEP2       22 GROUP        1 Y    SEP  0     ROOT SEP Y 9
     4 GLP5        3 GROUP        1 Y    GLP  0     **** GLP Y 13
     5 SEL2       21 GROUP        1 Z    SEL  0     ROOT SEL Z 16
     6 GLL5        2 GROUP        1 Z    GLL  0     **** GLL Z 20
@<TRIPOS>SET

