#    Name: 2gz8_F3F_1_ligand
#    Modification time : Tue Mar 25 15:16:12 2014

@<TRIPOS>MOLECULE
2gz8_F3F_1_ligand
   33    35     1     0     0
SMALL
NO_CHARGES


@<TRIPOS>ATOM
      1 CAA       -24.7560  -35.0310    5.5060 C.ar      1 F3F307      0.0000 
      2 CAB       -25.2490  -34.4890    6.7000 C.ar      1 F3F307      0.0000 
      3 CAC       -25.8940  -35.3120    7.6310 C.ar      1 F3F307      0.0000 
      4 CAD       -26.0460  -36.6780    7.3640 C.ar      1 F3F307      0.0000 
      5 CAE       -25.5570  -37.2210    6.1650 C.ar      1 F3F307      0.0000 
      6 CAF       -24.9120  -36.4010    5.2340 C.ar      1 F3F307      0.0000 
      7 CAG       -24.3950  -36.9560    4.0080 C.1       1 F3F307      0.0000 
      8 CAH       -23.9760  -37.5160    2.9550 C.1       1 F3F307      0.0000 
      9 CAI       -23.3130  -37.9580    1.7540 C.2       1 F3F307      0.0000 
     10 OAM       -22.2450  -38.8630    1.8760 O.3       1 F3F307      0.0000 
     11 CAJ       -23.4840  -37.6320    0.4720 C.2       1 F3F307      0.0000 
     12 CAK       -22.6020  -38.3260   -0.2710 C.2       1 F3F307      0.0000 
     13 CAL       -21.8780  -39.0890    0.5440 C.2       1 F3F307      0.0000 
     14 CAN       -20.7490  -40.0400    0.1400 C.2       1 F3F307      0.0000 
     15 OAY       -20.3180  -40.0490   -1.0160 O.2       1 F3F307      0.0000 
     16 SAO       -20.0150  -41.1560    1.3150 S.3       1 F3F307      0.0000 
     17 CAP       -20.9140  -42.5960    0.8640 C.2       1 F3F307      0.0000 
     18 NAT       -20.5730  -43.8360    1.1650 N.pl3     1 F3F307      0.0000 
     19 CAS       -21.5560  -44.5860    0.6630 C.2       1 F3F307      0.0000 
     20 CAU       -21.6240  -46.1000    0.8380 C.3       1 F3F307      0.0000 
     21 FAW       -22.3500  -46.7400   -0.0980 F         1 F3F307      0.0000 
     22 FAX       -20.3730  -46.5440    0.7750 F         1 F3F307      0.0000 
     23 FAV       -22.1450  -46.3600    2.0590 F         1 F3F307      0.0000 
     24 NAR       -22.4380  -43.7950    0.0590 N.2       1 F3F307      0.0000 
     25 NAQ       -22.0550  -42.6210    0.1760 N.2       1 F3F307      0.0000 
     26 H         -24.2795  -34.4280    4.8270 H         1 F3F307      0.0000 
     27 H         -25.1371  -33.4877    6.8921 H         1 F3F307      0.0000 
     28 H         -26.2533  -34.9164    8.5040 H         1 F3F307      0.0000 
     29 H         -26.5153  -37.2848    8.0446 H         1 F3F307      0.0000 
     30 H         -25.6745  -38.2220    5.9740 H         1 F3F307      0.0000 
     31 H         -24.1346  -36.9999    0.1252 H         1 F3F307      0.0000 
     32 H         -22.5160  -38.2727   -1.2350 H         1 F3F307      0.0000 
     33 H         -19.8024  -44.1359    1.6336 H         1 F3F307      0.0000 
@<TRIPOS>BOND
     1    2    1 ar   
     2    6    1 ar   
     3   26    1 1    
     4    3    2 ar   
     5   27    2 1    
     6    4    3 ar   
     7   28    3 1    
     8    5    4 ar   
     9   29    4 1    
    10    6    5 ar   
    11   30    5 1    
    12    7    6 1    
    13    8    7 3    
    14    9    8 1    
    15   10    9 1    
    16   11    9 2    
    17   13   10 1    
    18   12   11 1    
    19   31   11 1    
    20   13   12 2    
    21   32   12 1    
    22   14   13 1    
    23   15   14 2    
    24   16   14 1    
    25   17   16 1    
    26   18   17 1    
    27   25   17 2    
    28   19   18 1    
    29   33   18 1    
    30   20   19 1    
    31   24   19 2    
    32   21   20 1    
    33   22   20 1    
    34   23   20 1    
    35   25   24 1    
@<TRIPOS>SUBSTRUCTURE
     1 F3F307      1 GROUP   
@<TRIPOS>SET

