#    Name: 2WC3_1_CAVITY_N1_6.mol2
#    Modification time : Mon Mar 10 19:24:05 2014

@<TRIPOS>MOLECULE
2WC3_1_CAVITY_N1_6.mol2
  159     0     6     0     0
SMALL
NO_CHARGES


@<TRIPOS>ATOM
      1 NZ          2.0929    1.1365   13.6614 N.2       3 LYS4        0.0000 
      2 O           2.0907    0.0895   11.8164 O.2       2 ALA2        0.0000 
      3 O           1.6218   -0.2138   13.2086 O.2       2 ALA2        0.0000 
      4 CA         -0.0572    8.2735   14.4921 C.3       5 GLY6        0.0000 
      5 DU         -0.5261    7.9702   15.8843 H         6 CUB7        0.0000 
      6 DU         -0.9949    7.6669   17.2765 H         6 CUB7        0.0000 
      7 DU         -1.4638    7.3636   18.6687 H         6 CUB7        0.0000 
      8 CZ         -1.9326    7.0603   20.0609 C.ar      4 PHE5        0.0000 
      9 CA         -0.5283    6.9232   14.0394 C.3       5 GLY6        0.0000 
     10 DU         -0.9971    6.6200   15.4316 H         6 CUB7        0.0000 
     11 DU         -1.9348    6.0134   18.2159 H         6 CUB7        0.0000 
     12 CZ         -2.4036    5.7101   19.6081 C.ar      4 PHE5        0.0000 
     13 CA         -6.9154    2.9551   12.6401 C.3       5 GLY6        0.0000 
     14 DU         -7.3843    2.6518   14.0323 H         6 CUB7        0.0000 
     15 DU         -7.8531    2.3485   15.4245 H         6 CUB7        0.0000 
     16 CZ          2.6322    7.1161   15.1457 C.ar      4 PHE5        0.0000 
     17 CA          2.1634    6.8128   16.5379 C.3       5 GLY6        0.0000 
     18 CZ         -4.1511    9.5679   19.8601 C.ar      4 PHE5        0.0000 
     19 CA         -2.7467    9.4309   13.8386 C.3       5 GLY6        0.0000 
     20 N          -3.2156    9.1276   15.2308 N.2       2 ALA2        0.0000 
     21 N          -3.6844    8.8243   16.6230 N.2       2 ALA2        0.0000 
     22 N          -4.1532    8.5210   18.0151 N.2       2 ALA2        0.0000 
     23 CZ         -4.6221    8.2177   19.4073 C.ar      4 PHE5        0.0000 
     24 CZ         -5.0909    7.9144   20.7995 C.ar      4 PHE5        0.0000 
     25 NZ         -4.6970    0.4475   12.8409 N.2       3 LYS4        0.0000 
     26 NZ          2.5639    2.4867   14.1142 N.2       3 LYS4        0.0000 
     27 NZ          2.5617    1.4398   12.2692 N.2       3 LYS4        0.0000 
     28 CZ         -6.4444    4.3054   13.0928 C.ar      4 PHE5        0.0000 
     29 DU         -6.9133    4.0021   14.4850 H         6 CUB7        0.0000 
     30 N          -3.6822    9.8712   18.4679 N.2       2 ALA2        0.0000 
     31 CZ          0.8165    6.3446   14.3662 C.ar      4 PHE5        0.0000 
     32 DU          0.3476    6.0413   15.7583 H         6 CUB7        0.0000 
     33 CA         -0.1212    5.7380   17.1505 C.3       5 GLY6        0.0000 
     34 O          -0.5901    5.4347   18.5427 O.2       2 ALA2        0.0000 
     35 CZ          0.3454    4.9943   13.9134 C.ar      4 PHE5        0.0000 
     36 DU         -0.1234    4.6910   15.3056 H         6 CUB7        0.0000 
     37 CA         -0.5922    4.3877   16.6978 C.3       5 GLY6        0.0000 
     38 CA         -1.0611    4.0844   18.0899 C.3       5 GLY6        0.0000 
     39 CZ         -1.5299    3.7811   19.4821 C.ar      4 PHE5        0.0000 
     40 NZ          0.7459    0.6682   11.4896 N.2       3 LYS4        0.0000 
     41 CA          0.2771    0.3649   12.8818 C.3       5 GLY6        0.0000 
     42 CZ         -0.1918    0.0616   14.2740 C.ar      4 PHE5        0.0000 
     43 CZ         -1.9414    2.8726   12.6810 C.ar      4 PHE5        0.0000 
     44 CZ         -2.4102    2.5693   14.0732 C.ar      4 PHE5        0.0000 
     45 DU         -2.8790    2.2660   15.4654 H         6 CUB7        0.0000 
     46 N          -3.3479    1.9627   16.8576 N.2       2 ALA2        0.0000 
     47 CA         -3.8167    1.6594   18.2498 C.3       5 GLY6        0.0000 
     48 NZ         -2.8812    1.2190   13.6204 N.2       3 LYS4        0.0000 
     49 N          -3.3501    0.9157   15.0126 N.2       2 ALA2        0.0000 
     50 CZ          2.1612    5.7659   14.6929 C.ar      4 PHE5        0.0000 
     51 CA          1.6924    5.4626   16.0851 C.3       5 GLY6        0.0000 
     52 CA          1.2235    5.1593   17.4773 C.3       5 GLY6        0.0000 
     53 O           0.7547    4.8560   18.8695 O.2       2 ALA2        0.0000 
     54 CZ          1.6902    4.4156   14.2402 C.ar      4 PHE5        0.0000 
     55 NZ          1.2213    4.1123   15.6324 N.2       3 LYS4        0.0000 
     56 NZ          0.7525    3.8090   17.0245 N.2       3 LYS4        0.0000 
     57 CA         -1.8664   10.6427   19.2475 C.3       5 GLY6        0.0000 
     58 CZ         -2.3353   10.3394   20.6397 C.ar      4 PHE5        0.0000 
     59 CA         -0.9309   10.2024   14.6181 C.3       5 GLY6        0.0000 
     60 N          -1.8686    9.5958   17.4025 N.2       2 ALA2        0.0000 
     61 N          -2.3375    9.2925   18.7947 N.2       2 ALA2        0.0000 
     62 N          -2.8063    8.9892   20.1869 N.2       2 ALA2        0.0000 
     63 CZ         -5.0975    4.7736   15.2646 C.ar      4 PHE5        0.0000 
     64 DU         -6.0352    4.1670   18.0490 H         6 CUB7        0.0000 
     65 NZ         -4.2260    1.7977   13.2936 N.2       3 LYS4        0.0000 
     66 N          -4.6948    1.4944   14.6858 N.2       2 ALA2        0.0000 
     67 N          -5.1636    1.1911   16.0780 N.2       2 ALA2        0.0000 
     68 CZ         -5.0997    3.7267   13.4196 C.ar      4 PHE5        0.0000 
     69 CZ         -5.5685    3.4234   14.8118 C.ar      4 PHE5        0.0000 
     70 DU         -6.5062    2.8168   17.5962 H         6 CUB7        0.0000 
     71 CA         -5.5707    2.3764   12.9669 C.3       5 GLY6        0.0000 
     72 DU         -6.0395    2.0731   14.3590 H         6 CUB7        0.0000 
     73 DU         -6.5084    1.7698   15.7512 H         6 CUB7        0.0000 
     74 CZ          1.6880    3.3687   12.3952 C.ar      4 PHE5        0.0000 
     75 NZ          1.2191    3.0654   13.7874 N.2       3 LYS4        0.0000 
     76 NZ          0.7503    2.7621   15.1796 N.2       3 LYS4        0.0000 
     77 NZ          0.2815    2.4588   16.5718 N.2       3 LYS4        0.0000 
     78 OG          1.6858    2.3218   10.5502 O.2       1 SER1        0.0000 
     79 OG          1.2170    2.0185   11.9424 O.2       1 SER1        0.0000 
     80 DU          0.7481    1.7152   13.3346 H         6 CUB7        0.0000 
     81 CZ          0.2793    1.4119   14.7268 C.ar      4 PHE5        0.0000 
     82 CZ         -0.1896    1.1086   16.1190 C.ar      4 PHE5        0.0000 
     83 N          -4.5603    9.7063   14.9040 N.2       2 ALA2        0.0000 
     84 N          -5.0291    9.4030   16.2962 N.2       2 ALA2        0.0000 
     85 CZ         -5.4980    9.0997   17.6884 C.ar      4 PHE5        0.0000 
     86 O          -7.7891    4.8840   12.7661 O.2       2 ALA2        0.0000 
     87 N           1.7585    9.0450   15.2717 N.2       2 ALA2        0.0000 
     88 N           1.2897    8.7417   16.6639 N.2       2 ALA2        0.0000 
     89 N           0.8208    8.4384   18.0561 N.2       2 ALA2        0.0000 
     90 O           0.3520    8.1351   19.4483 O.2       2 ALA2        0.0000 
     91 CZ          1.2875    7.6948   14.8189 C.ar      4 PHE5        0.0000 
     92 N           0.8187    7.3915   16.2111 N.2       2 ALA2        0.0000 
     93 CA          0.3498    7.0882   17.6033 C.3       5 GLY6        0.0000 
     94 O          -0.1190    6.7849   18.9955 O.2       2 ALA2        0.0000 
     95 O          -0.5879    6.4816   20.3877 O.2       2 ALA2        0.0000 
     96 CA         -1.4020    8.8522   14.1654 C.3       5 GLY6        0.0000 
     97 N          -1.8708    8.5489   15.5575 N.2       2 ALA2        0.0000 
     98 N          -2.3397    8.2456   16.9497 N.2       2 ALA2        0.0000 
     99 DU         -2.8085    7.9423   18.3419 H         6 CUB7        0.0000 
    100 N          -3.2773    7.6390   19.7341 N.2       2 ALA2        0.0000 
    101 N          -3.7462    7.3357   21.1263 N.2       2 ALA2        0.0000 
    102 CZ         -0.9993    5.5730   13.5866 C.ar      4 PHE5        0.0000 
    103 CZ         -1.4681    5.2697   14.9788 C.ar      4 PHE5        0.0000 
    104 DU         -1.9370    4.9664   16.3710 H         6 CUB7        0.0000 
    105 DU         -2.4058    4.6631   17.7632 H         6 CUB7        0.0000 
    106 CZ         -2.8747    4.3598   19.1554 C.ar      4 PHE5        0.0000 
    107 CZ         -1.9392    3.9195   14.5260 C.ar      4 PHE5        0.0000 
    108 DU         -2.4080    3.6162   15.9182 H         6 CUB7        0.0000 
    109 DU         -2.8769    3.3129   17.3104 H         6 CUB7        0.0000 
    110 CA         -3.3457    3.0096   18.7026 C.3       5 GLY6        0.0000 
    111 NZ         -1.5365    0.6403   13.9472 N.2       3 LYS4        0.0000 
    112 N          -2.0053    0.3370   15.3394 N.2       2 ALA2        0.0000 
    113 CZ         -3.2839    4.4982   14.1992 C.ar      4 PHE5        0.0000 
    114 CZ         -3.7527    4.1949   15.5914 C.ar      4 PHE5        0.0000 
    115 DU         -4.2216    3.8916   16.9836 H         6 CUB7        0.0000 
    116 CA         -4.6904    3.5883   18.3758 C.3       5 GLY6        0.0000 
    117 CA         -5.1593    3.2850   19.7680 C.3       5 GLY6        0.0000 
    118 CZ         -3.7549    3.1480   13.7464 C.ar      4 PHE5        0.0000 
    119 DU         -4.2238    2.8447   15.1386 H         6 CUB7        0.0000 
    120 DU         -4.6926    2.5414   16.5308 H         6 CUB7        0.0000 
    121 CA         -5.1615    2.2381   17.9230 C.3       5 GLY6        0.0000 
    122 DU         -6.4400    6.3992   16.7828 H         6 CUB7        0.0000 
    123 DU         -6.9111    5.0490   16.3300 H         6 CUB7        0.0000 
    124 O          -3.6866    7.7773   14.7780 O.2       2 ALA2        0.0000 
    125 DU         -4.1554    7.4740   16.1702 H         6 CUB7        0.0000 
    126 DU         -5.0931    6.8675   18.9546 H         6 CUB7        0.0000 
    127 CZ         -6.0308    6.2609   21.7389 C.ar      4 PHE5        0.0000 
    128 CZ         -4.1576    6.4271   14.3252 C.ar      4 PHE5        0.0000 
    129 O          -4.6265    6.1238   15.7174 O.2       2 ALA2        0.0000 
    130 CZ         -1.8730    7.5019   13.7126 C.ar      4 PHE5        0.0000 
    131 CZ         -2.3418    7.1986   15.1048 C.ar      4 PHE5        0.0000 
    132 DU         -2.8107    6.8954   16.4970 H         6 CUB7        0.0000 
    133 DU         -3.7484    6.2888   19.2813 H         6 CUB7        0.0000 
    134 CZ         -4.2172    5.9855   20.6735 C.ar      4 PHE5        0.0000 
    135 CZ         -2.8129    5.8484   14.6520 C.ar      4 PHE5        0.0000 
    136 DU         -3.2817    5.5451   16.0442 H         6 CUB7        0.0000 
    137 DU         -4.2194    4.9385   18.8286 H         6 CUB7        0.0000 
    138 CZ         -4.6882    4.6352   20.2208 C.ar      4 PHE5        0.0000 
    139 O          -5.0313    8.3560   14.4512 O.2       2 ALA2        0.0000 
    140 O          -5.5002    8.0527   15.8434 O.2       2 ALA2        0.0000 
    141 DU         -5.9690    7.7495   17.2356 H         6 CUB7        0.0000 
    142 CZ          0.3433    3.9474   12.0684 C.ar      4 PHE5        0.0000 
    143 CZ         -0.1256    3.6441   13.4606 C.ar      4 PHE5        0.0000 
    144 DU         -0.5944    3.3408   14.8528 H         6 CUB7        0.0000 
    145 CA         -1.0633    3.0375   16.2450 C.3       5 GLY6        0.0000 
    146 CA         -1.5321    2.7342   17.6372 C.3       5 GLY6        0.0000 
    147 CA         -2.0010    2.4309   19.0294 C.3       5 GLY6        0.0000 
    148 NZ         -0.1278    2.5972   11.6156 N.2       3 LYS4        0.0000 
    149 NZ         -0.5966    2.2939   13.0078 N.2       3 LYS4        0.0000 
    150 DU         -1.0655    1.9906   14.4000 H         6 CUB7        0.0000 
    151 DU         -1.5343    1.6873   15.7922 H         6 CUB7        0.0000 
    152 CA         -2.0031    1.3840   17.1844 C.3       5 GLY6        0.0000 
    153 CA         -0.0529   10.3673   18.1821 C.3       5 GLY6        0.0000 
    154 CZ         -0.5217   10.0640   19.5743 C.ar      4 PHE5        0.0000 
    155 O           0.4138    9.6237   14.9449 O.2       2 ALA2        0.0000 
    156 N          -0.0551    9.3204   16.3371 N.2       2 ALA2        0.0000 
    157 N          -0.5239    9.0171   17.7293 N.2       2 ALA2        0.0000 
    158 DU         -0.9927    8.7138   19.1215 H         6 CUB7        0.0000 
    159 N          -1.4616    8.4105   20.5137 N.2       2 ALA2        0.0000 
@<TRIPOS>BOND
@<TRIPOS>SUBSTRUCTURE
     1 SER1       78 GROUP   
     2 ALA2        2 GROUP   
     3 LYS4        1 GROUP   
     4 PHE5        8 GROUP   
     5 GLY6        4 GROUP   
     6 CUB7        5 GROUP   
@<TRIPOS>SET

