#    Name: 2wc3_AM3_1_INTS_M
#    Modification time : Tue Mar 25 04:02:07 2014

@<TRIPOS>MOLECULE
2wc3_AM3_1_INTS_M
   74     0     9     0     0
SMALL
NO_CHARGES


@<TRIPOS>ATOM
      1 N          -0.9275    0.2525   11.2230 N.am      2 SEC2        0.0000 
      2 N           0.4080   -0.0410   11.7630 N.am      8 SEL2        0.0000 
      3 N          -2.2630    0.5460   10.6830 N.am      5 SEP2        0.0000 
      4 O          -0.3490   -0.3220   10.4960 O.2       1 ALC1        0.0000 
      5 O           0.4080   -0.0410   11.7630 O.2       7 ALL1        0.0000 
      6 O          -1.1060   -0.6030    9.2290 O.2       4 ALP1        0.0000 
      7 CA          0.2800   -1.1430   11.9735 C.3       3 GLC5        0.0000 
      8 CA          1.6890    0.3380   11.2440 C.3       9 GLL5        0.0000 
      9 CA         -1.1290   -2.6240   12.7030 C.3       6 GLP5        0.0000 
     10 CA         -0.9885    3.9185   10.8090 C.3       3 GLC5        0.0000 
     11 CA          0.6760    2.5940   10.3810 C.3       9 GLL5        0.0000 
     12 CA         -2.6530    5.2430   11.2370 C.3       6 GLP5        0.0000 
     13 CA          1.9655    2.2800    8.9100 C.3       3 GLC5        0.0000 
     14 CA          3.2550    1.9660    7.4390 C.3       6 GLP5        0.0000 
     15 CA         -0.3305    3.3335    9.0395 C.3       3 GLC5        0.0000 
     16 CA         -1.3370    4.0730    7.6980 C.3       6 GLP5        0.0000 
     17 CA          3.2640   -0.7745   10.3780 C.3       3 GLC5        0.0000 
     18 CA          2.8740   -0.1490   12.0980 C.3       9 GLL5        0.0000 
     19 CA          3.6540   -1.4000    8.6580 C.3       6 GLP5        0.0000 
     20 N           3.8935   -2.2325   12.9840 N.am      2 SEC2        0.0000 
     21 N           2.9070   -1.5580   12.1860 N.am      8 SEL2        0.0000 
     22 N           4.8800   -2.9070   13.7820 N.am      5 SEP2        0.0000 
     23 N           1.5630   -2.2510   12.4575 N.am      2 SEC2        0.0000 
     24 N           0.2190   -2.9440   12.7290 N.am      5 SEP2        0.0000 
     25 O           2.8480   -2.5410   11.3075 O.2       1 ALC1        0.0000 
     26 O           2.9070   -1.5580   12.1860 O.2       7 ALL1        0.0000 
     27 O           2.7890   -3.5240   10.4290 O.2       4 ALP1        0.0000 
     28 CA          1.9405   -0.5420   14.9095 C.3       3 GLC5        0.0000 
     29 CA          2.9180    0.4130   13.5280 C.3       9 GLL5        0.0000 
     30 CA          0.9630   -1.4970   16.2910 C.3       6 GLP5        0.0000 
     31 N           4.8145   -0.5090   15.1280 N.am      2 SEC2        0.0000 
     32 N           4.2510    0.1860   14.0480 N.am      8 SEL2        0.0000 
     33 N           5.3780   -1.2040   16.2080 N.am      5 SEP2        0.0000 
     34 O           5.3470    0.5795   13.3985 O.2       1 ALC1        0.0000 
     35 O           4.2510    0.1860   14.0480 O.2       7 ALL1        0.0000 
     36 O           6.4430    0.9730   12.7490 O.2       4 ALP1        0.0000 
     37 CA          3.0210    3.8170   12.7745 C.3       3 GLC5        0.0000 
     38 CA          2.6310    1.9250   13.5880 C.3       9 GLL5        0.0000 
     39 CA          3.4110    5.7090   11.9610 C.3       6 GLP5        0.0000 
     40 N           2.9325    2.7550   15.4240 N.am      2 SEC2        0.0000 
     41 N           1.7810    2.1770   14.6900 N.am      8 SEL2        0.0000 
     42 N           4.0840    3.3330   16.1580 N.am      5 SEP2        0.0000 
     43 O           2.3485    1.9170   15.8030 O.2       1 ALC1        0.0000 
     44 O           1.7810    2.1770   14.6900 O.2       7 ALL1        0.0000 
     45 O           2.9160    1.6570   16.9160 O.2       4 ALP1        0.0000 
     46 CA          2.1635    4.6175   12.2375 C.3       3 GLC5        0.0000 
     47 CA          0.9160    3.5260   12.5140 C.3       9 GLL5        0.0000 
     48 CA         -0.8685    4.3845   11.8755 C.3       3 GLC5        0.0000 
     49 CA          0.9990    5.7690   13.2120 C.3       3 GLC5        0.0000 
     50 CA         -0.7070    4.7020   14.1310 C.3       9 GLL5        0.0000 
     51 CA          2.7050    6.8360   12.2930 C.3       6 GLP5        0.0000 
     52 CA          0.0465    7.4435   12.7215 C.3       3 GLC5        0.0000 
     53 CA         -1.0960    6.1100   13.7270 C.3       9 GLL5        0.0000 
     54 CA          1.1890    8.7770   11.7160 C.3       6 GLP5        0.0000 
     55 CA         -4.1285    7.3495   13.6255 C.3       3 GLC5        0.0000 
     56 CA         -3.8480    7.9790   15.5160 C.3       9 GLL5        0.0000 
     57 CA         -4.4090    6.7200   11.7350 C.3       6 GLP5        0.0000 
     58 CA         -5.4475    8.1020   14.0215 C.3       3 GLC5        0.0000 
     59 CA         -5.1960    7.6560   16.1520 C.3       9 GLL5        0.0000 
     60 CA         -5.6990    8.5480   11.8910 C.3       6 GLP5        0.0000 
     61 CA         -5.8225   10.2775   18.2540 C.3       3 GLC5        0.0000 
     62 CA         -5.9040    8.9200   16.6040 C.3       9 GLL5        0.0000 
     63 CA         -5.7410   11.6350   19.9040 C.3       6 GLP5        0.0000 
     64 CA         -6.2440    9.0005   13.6940 C.3       3 GLC5        0.0000 
     65 CA         -6.7890    9.4530   15.4970 C.3       9 GLL5        0.0000 
     66 CA          2.7313    0.5230    9.7168 C.3       3 GLC5        0.0000 
     67 CA          1.8200    1.8740   11.1390 C.3       9 GLL5        0.0000 
     68 CA          3.7080   -0.0600    8.2420 C.3       6 GLP5        0.0000 
     69 CA          2.3040    3.7270   10.7075 C.3       3 GLC5        0.0000 
     70 CA          3.3600    5.2200   10.6550 C.3       6 GLP5        0.0000 
     71 CA         -1.7772    5.3245   12.5830 C.3       3 GLC5        0.0000 
     72 CA         -3.1412    6.1355   13.3967 C.3       3 GLC5        0.0000 
     73 CA         -1.6840    6.9770   14.8290 C.3       9 GLL5        0.0000 
     74 CA         -3.8680    5.4440   11.8090 C.3       6 GLP5        0.0000 
@<TRIPOS>BOND
@<TRIPOS>SUBSTRUCTURE
     1 ALC1        4 GROUP        1 X    ALC  0     ROOT ALC X 1
     2 SEC2        1 GROUP        1 X    SEC  0     **** SEC X 2
     3 GLC5        7 GROUP        1 X    GLC  0     **** GLC X 6
     4 ALP1        6 GROUP        1 Y    ALP  0     ROOT ALP Y 8
     5 SEP2        3 GROUP        1 Y    SEP  0     **** SEP Y 9
     6 GLP5        9 GROUP        1 Y    GLP  0     **** GLP Y 13
     7 ALL1        5 GROUP        1 Z    ALL  0     ROOT ALL Z 15
     8 SEL2        2 GROUP        1 Z    SEL  0     **** SEL Z 16
     9 GLL5        8 GROUP        1 Z    GLL  0     **** GLL Z 20
@<TRIPOS>SET

