#    Name: 2wc3_AM3_1_ligand
#    Modification time : Tue Mar 25 04:02:07 2014

@<TRIPOS>MOLECULE
2wc3_AM3_1_ligand
   51    52     1     0     0
SMALL
NO_CHARGES


@<TRIPOS>ATOM
      1 O4          0.4080   -0.0410   11.7630 O.3       1 AM31446     0.0000 
      2 C4          1.6890    0.3380   11.2440 C.3       1 AM31446     0.0000 
      3 C5          1.8200    1.8740   11.1390 C.3       1 AM31446     0.0000 
      4 C6          0.6760    2.5940   10.3810 C.3       1 AM31446     0.0000 
      5 O6          0.3070    3.6430   11.3140 O.3       1 AM31446     0.0000 
      6 C3          2.8740   -0.1490   12.0980 C.3       1 AM31446     0.0000 
      7 O3          2.9070   -1.5580   12.1860 O.3       1 AM31446     0.0000 
      8 C2          2.9180    0.4130   13.5280 C.3       1 AM31446     0.0000 
      9 O2          4.2510    0.1860   14.0480 O.3       1 AM31446     0.0000 
     10 C1          2.6310    1.9250   13.5880 C.3       1 AM31446     0.0000 
     11 O1          1.7810    2.1770   14.6900 O.3       1 AM31446     0.0000 
     12 N1          1.8160    2.4440   12.4920 N.pl3     1 AM31446     0.0000 
     13 C7          0.9160    3.5260   12.5140 C.2       1 AM31446     0.0000 
     14 N2          0.6120    4.3240   13.5520 N.pl3     1 AM31446     0.0000 
     15 C8         -0.7070    4.7020   14.1310 C.3       1 AM31446     0.0000 
     16 C9         -1.0960    6.1100   13.7270 C.3       1 AM31446     0.0000 
     17 C10        -1.6840    6.9770   14.8290 C.3       1 AM31446     0.0000 
     18 C11        -3.1450    6.6770   15.1400 C.3       1 AM31446     0.0000 
     19 C12        -3.8480    7.9790   15.5160 C.3       1 AM31446     0.0000 
     20 C13        -5.1960    7.6560   16.1520 C.3       1 AM31446     0.0000 
     21 C14        -5.9040    8.9200   16.6040 C.3       1 AM31446     0.0000 
     22 C15        -6.7890    9.4530   15.4970 C.3       1 AM31446     0.0000 
     23 H           1.8447   -0.0499   10.2336 H         1 AM31446     0.0000 
     24 H           2.7521    2.1209   10.6583 H         1 AM31446     0.0000 
     25 H          -0.1098    1.8976   10.2295 H         1 AM31446     0.0000 
     26 H           1.0718    2.9827    9.4768 H         1 AM31446     0.0000 
     27 H           3.8024    0.2032   11.5981 H         1 AM31446     0.0000 
     28 H           2.1926   -0.1020   14.1251 H         1 AM31446     0.0000 
     29 H           3.5320    2.4675   13.6794 H         1 AM31446     0.0000 
     30 H           1.4401    4.7998   14.0959 H         1 AM31446     0.0000 
     31 H          -0.6658    4.6450   15.2242 H         1 AM31446     0.0000 
     32 H          -1.4801    4.0071   13.7854 H         1 AM31446     0.0000 
     33 H          -1.8268    6.0547   12.8895 H         1 AM31446     0.0000 
     34 H          -0.2019    6.6239   13.3087 H         1 AM31446     0.0000 
     35 H          -1.5907    8.0382   14.5402 H         1 AM31446     0.0000 
     36 H          -1.0881    6.8433   15.7484 H         1 AM31446     0.0000 
     37 H          -3.2034    5.9849   15.9687 H         1 AM31446     0.0000 
     38 H          -3.6203    6.2512   14.2671 H         1 AM31446     0.0000 
     39 H          -4.0028    8.5742   14.6253 H         1 AM31446     0.0000 
     40 H          -3.2376    8.5261   16.2228 H         1 AM31446     0.0000 
     41 H          -5.0387    7.0011   17.0107 H         1 AM31446     0.0000 
     42 H          -5.8182    7.1316   15.4248 H         1 AM31446     0.0000 
     43 H          -5.1630    9.6727   16.8708 H         1 AM31446     0.0000 
     44 H          -6.5121    8.6990   17.4805 H         1 AM31446     0.0000 
     45 H          -6.2634    9.6749   14.6757 H         1 AM31446     0.0000 
     46 H          -7.4872    8.7897   15.2278 H         1 AM31446     0.0000 
     47 H          -7.2675   10.2866   15.7729 H         1 AM31446     0.0000 
     48 H           0.0244   -0.6605   11.0781 H         1 AM31446     0.0000 
     49 H           2.8328   -1.8780   11.2415 H         1 AM31446     0.0000 
     50 H           4.8383    0.1336   13.2403 H         1 AM31446     0.0000 
     51 H           2.0463    1.5041   15.3806 H         1 AM31446     0.0000 
@<TRIPOS>BOND
     1    2    1 1    
     2   48    1 1    
     3    3    2 1    
     4    6    2 1    
     5   23    2 1    
     6    4    3 1    
     7   12    3 1    
     8   24    3 1    
     9    5    4 1    
    10   25    4 1    
    11   26    4 1    
    12   13    5 1    
    13    7    6 1    
    14    8    6 1    
    15   27    6 1    
    16   49    7 1    
    17    9    8 1    
    18   10    8 1    
    19   28    8 1    
    20   50    9 1    
    21   11   10 1    
    22   12   10 1    
    23   29   10 1    
    24   51   11 1    
    25   13   12 1    
    26   14   13 2    
    27   15   14 1    
    28   30   14 1    
    29   16   15 1    
    30   31   15 1    
    31   32   15 1    
    32   17   16 1    
    33   33   16 1    
    34   34   16 1    
    35   18   17 1    
    36   35   17 1    
    37   36   17 1    
    38   19   18 1    
    39   37   18 1    
    40   38   18 1    
    41   20   19 1    
    42   39   19 1    
    43   40   19 1    
    44   21   20 1    
    45   41   20 1    
    46   42   20 1    
    47   22   21 1    
    48   43   21 1    
    49   44   21 1    
    50   45   22 1    
    51   46   22 1    
    52   47   22 1    
@<TRIPOS>SUBSTRUCTURE
     1 AM31446     1 GROUP   
@<TRIPOS>SET

