#    Name: 2h9t_PHE_PRO_ARG_2_INTS_M
#    Modification time : Tue Mar 25 15:46:05 2014

@<TRIPOS>MOLECULE
2h9t_PHE_PRO_ARG_2_INTS_M
   75     0    12     0     0
SMALL
NO_CHARGES


@<TRIPOS>ATOM
      1 O           1.4440    6.4105   30.7215 O.2       1 ALC1        0.0000 
      2 O           0.3290    5.4420   30.6110 O.2       9 ALL1        0.0000 
      3 O           2.5590    7.3790   30.8320 O.2       5 ALP1        0.0000 
      4 CA          2.2550    6.5185   28.0030 C.3       4 GLC5        0.0000 
      5 CA          1.2870    5.2470   29.4820 C.3      12 GLL5        0.0000 
      6 CA          3.2230    7.7900   26.5240 C.3       8 GLP5        0.0000 
      7 N           1.9555    8.2310   28.6345 N.am      2 SEC2        0.0000 
      8 N           0.9620    7.2600   28.2490 N.am     10 SEL2        0.0000 
      9 N           2.9490    9.2020   29.0200 N.am      6 SEP2        0.0000 
     10 CA          6.2450    3.0350   26.7400 C.3       4 GLC5        0.0000 
     11 CA          4.1720    2.8970   25.9440 C.3      12 GLL5        0.0000 
     12 CA          8.3180    3.1730   27.5360 C.3       8 GLP5        0.0000 
     13 CA          1.4440    6.9845   26.3320 C.3       4 GLC5        0.0000 
     14 CA         -0.3350    6.1790   26.1400 C.3      12 GLL5        0.0000 
     15 O           0.1135    8.9125   25.1780 O.2       1 ALC1        0.0000 
     16 O          -0.9220    8.5320   25.9650 O.2       9 ALL1        0.0000 
     17 O           1.1490    9.2930   24.3910 O.2       5 ALP1        0.0000 
     18 N          -4.6940   11.5225   26.0605 N.am      2 SEC2        0.0000 
     19 N          -3.6460   10.9180   25.1460 N.am     10 SEL2        0.0000 
     20 N          -5.7420   12.1270   26.9750 N.am      6 SEP2        0.0000 
     21 N          -3.3560   12.2335   24.5175 N.am      2 SEC2        0.0000 
     22 N          -3.0660   13.5490   23.8890 N.am      6 SEP2        0.0000 
     23 CA         -0.4230   12.5925   25.8125 C.3       4 GLC5        0.0000 
     24 CA         -1.0530   10.8930   26.6040 C.3      12 GLL5        0.0000 
     25 CA          0.2070   14.2920   25.0210 C.3       8 GLP5        0.0000 
     26 CA          0.2995   14.2190   28.1735 C.3       4 GLC5        0.0000 
     27 CA          0.2500   12.0100   28.3900 C.3      12 GLL5        0.0000 
     28 CA          0.3490   16.4280   27.9570 C.3       8 GLP5        0.0000 
     29 CA         -1.0160   13.0530   29.4435 C.3       4 GLC5        0.0000 
     30 CA         -2.2820   14.0960   30.4970 C.3       8 GLP5        0.0000 
     31 CA          0.2285   13.1510   26.7055 C.3       4 GLC5        0.0000 
     32 O           0.4175   10.6205   30.4990 O.2       1 ALC1        0.0000 
     33 O           0.6740   11.8990   29.7840 O.2       9 ALL1        0.0000 
     34 O           0.1610    9.3420   31.2140 O.2       5 ALP1        0.0000 
     35 OD1         2.3470   14.1700   31.2765 O.co2     3 ASC3        0.0000 
     36 OD1         1.5900   12.6710   30.3460 O.co2    11 ASL3        0.0000 
     37 OD1         3.0310   15.8240   31.1180 O.co2     7 ASP3        0.0000 
     38 OD1         2.1915   13.5955   32.2525 O.co2     3 ASC3        0.0000 
     39 OD1         2.4910   14.7040   32.9020 O.co2     7 ASP3        0.0000 
     40 O           2.6170   14.7300   30.3845 O.2       1 ALC1        0.0000 
     41 O           2.2030   13.6360   29.6510 O.2       9 ALL1        0.0000 
     42 O           3.0310   15.8240   31.1180 O.2       5 ALP1        0.0000 
     43 O           2.3470   14.1700   31.2765 O.2       1 ALC1        0.0000 
     44 O           2.4910   14.7040   32.9020 O.2       5 ALP1        0.0000 
     45 O           2.1915   13.5955   32.2525 O.2       1 ALC1        0.0000 
     46 O           1.8920   12.4870   31.6030 O.2       9 ALL1        0.0000 
     47 O           1.3830   11.6175   32.6110 O.2       1 ALC1        0.0000 
     48 O           0.8740   10.7480   33.6190 O.2       5 ALP1        0.0000 
     49 CA          2.9980    4.6865   25.5375 C.3       4 GLC5        0.0000 
     50 CA          3.5250    4.3190   27.7610 C.3      12 GLL5        0.0000 
     51 CA          2.0520    5.1940   23.8510 C.3       8 GLP5        0.0000 
     52 CA          3.5835    5.9845   26.8740 C.3       4 GLC5        0.0000 
     53 CA          4.3630    4.0390   26.6870 C.3      12 GLL5        0.0000 
     54 CA          3.2200    3.3327   24.5215 C.3       4 GLC5        0.0000 
     55 CA          2.7760    4.2240   22.9250 C.3       8 GLP5        0.0000 
     56 CA          5.4577    2.6611   25.1623 C.3       4 GLC5        0.0000 
     57 CA          6.9020    2.0820   23.9220 C.3       8 GLP5        0.0000 
     58 CA          4.9885    3.7665   28.6789 C.3       4 GLC5        0.0000 
     59 CA          6.2930    3.5690   30.0500 C.3       8 GLP5        0.0000 
     60 CA         -1.7163    6.3918   24.1002 C.3       4 GLC5        0.0000 
     61 CA         -2.6980    7.1100   22.4850 C.3       8 GLP5        0.0000 
     62 CA         -1.1063    2.6697   24.8635 C.3       4 GLC5        0.0000 
     63 CA         -1.1340    5.1680   25.2910 C.3      12 GLL5        0.0000 
     64 CA         -1.1810    0.8500   24.0930 C.3       8 GLP5        0.0000 
     65 CA         -2.7287    3.6650   27.1547 C.3       4 GLC5        0.0000 
     66 CA         -0.9290    3.8110   25.9770 C.3      12 GLL5        0.0000 
     67 CA         -4.6190    3.3610   27.6220 C.3       8 GLP5        0.0000 
     68 CA          0.6101    4.9681   24.8486 C.3       4 GLC5        0.0000 
     69 CA         -3.0793   10.9055   27.7390 C.3       4 GLC5        0.0000 
     70 CA         -1.8360    9.6610   26.2080 C.3      12 GLL5        0.0000 
     71 CA         -4.7140   11.5340   29.0720 C.3       8 GLP5        0.0000 
     72 CA         -1.9028   10.8615   24.6290 C.3       4 GLC5        0.0000 
     73 CA         -2.3610   11.4460   22.8520 C.3       8 GLP5        0.0000 
     74 CA          1.2646   10.3291   27.2335 C.3       4 GLC5        0.0000 
     75 CA          2.7700    9.2490   26.6340 C.3       8 GLP5        0.0000 
@<TRIPOS>BOND
@<TRIPOS>SUBSTRUCTURE
     1 ALC1        1 GROUP        1 X    ALC  0     ROOT ALC X 1
     2 SEC2        7 GROUP        1 X    SEC  0     **** SEC X 2
     3 ASC3       35 GROUP        1 X    ASC  0     **** ASC X 3
     4 GLC5        4 GROUP        1 X    GLC  0     **** GLC X 6
     5 ALP1        3 GROUP        1 Y    ALP  0     ROOT ALP Y 8
     6 SEP2        9 GROUP        1 Y    SEP  0     **** SEP Y 9
     7 ASP3       37 GROUP        1 Y    ASP  0     **** ASP Y 10
     8 GLP5        6 GROUP        1 Y    GLP  0     **** GLP Y 13
     9 ALL1        2 GROUP        1 Z    ALL  0     ROOT ALL Z 15
    10 SEL2        8 GROUP        1 Z    SEL  0     **** SEL Z 16
    11 ASL3       36 GROUP        1 Z    ASL  0     **** ASL Z 17
    12 GLL5        5 GROUP        1 Z    GLL  0     **** GLL Z 20
@<TRIPOS>SET

