#    Name: 2h9t_PHE_PRO_ARG_2_ligand
#    Modification time : Tue Mar 25 15:46:05 2014

@<TRIPOS>MOLECULE
2h9t_PHE_PRO_ARG_2_ligand
   61    62     3     0     0
SMALL
NO_CHARGES


@<TRIPOS>ATOM
      1 N           0.3290    5.4420   30.6110 N.4       1 PHE1        0.0000
      2 CA          1.2870    5.2470   29.4820 C.3       1 PHE1        0.0000
      3 C           0.7570    6.0400   28.2760 C.2       1 PHE1        0.0000
      4 O           0.9620    7.2600   28.2490 O.2       1 PHE1        0.0000
      5 CB          1.5560    3.7630   29.2490 C.3       1 PHE1        0.0000
      6 CG          2.4850    3.4590   28.0960 C.ar      1 PHE1        0.0000
      7 CD1         2.3170    2.2720   27.3620 C.ar      1 PHE1        0.0000
      8 CD2         3.5250    4.3190   27.7610 C.ar      1 PHE1        0.0000
      9 CE1         3.1560    1.9860   26.2920 C.ar      1 PHE1        0.0000
     10 CE2         4.3630    4.0390   26.6870 C.ar      1 PHE1        0.0000
     11 CZ          4.1720    2.8970   25.9440 C.ar      1 PHE1        0.0000
     12 HA          2.2405    5.7250   29.7871 H         1 PHE1        0.0000
     13 HB2         0.5877    3.2507   29.0807 H         1 PHE1        0.0000
     14 HB3         1.9764    3.3300   30.1786 H         1 PHE1        0.0000
     15 HD1         1.5687    1.6179   27.6234 H         1 PHE1        0.0000
     16 HD2         3.6773    5.1773   28.3171 H         1 PHE1        0.0000
     17 HE1         3.0435    1.1229   25.7560 H         1 PHE1        0.0000
     18 HE2         5.1259    4.6918   26.4529 H         1 PHE1        0.0000
     19 HZ          4.7664    2.6946   25.1280 H         1 PHE1        0.0000
     20 HNCA        0.3056    4.6487   31.2194 H         1 PHE1        0.0000
     21 H           0.5715    6.2341   31.1712 H         1 PHE1        0.0000
     22 H          -0.6047    5.5887   30.2846 H         1 PHE1        0.0000
     23 N          -0.0250    5.4210   27.3580 N.am      2 PRO2        0.0000
     24 CA         -0.3350    6.1790   26.1400 C.3       2 PRO2        0.0000
     25 C          -1.2290    7.3540   26.4730 C.2       2 PRO2        0.0000
     26 O          -2.2250    7.2000   27.1780 O.2       2 PRO2        0.0000
     27 CB         -1.1340    5.1680   25.2910 C.3       2 PRO2        0.0000
     28 CG         -0.9290    3.8110   25.9770 C.3       2 PRO2        0.0000
     29 CD         -0.7480    4.1270   27.3980 C.3       2 PRO2        0.0000
     30 HA          0.5154    6.4627   25.6267 H         2 PRO2        0.0000
     31 HB2        -0.7331    5.1380   24.3061 H         2 PRO2        0.0000
     32 HB3        -2.1653    5.4282   25.3083 H         2 PRO2        0.0000
     33 HG2        -0.0546    3.3481   25.5654 H         2 PRO2        0.0000
     34 HG3        -1.8032    3.2119   25.8184 H         2 PRO2        0.0000
     35 HD2        -1.6931    4.2494   27.8819 H         2 PRO2        0.0000
     36 HD3        -0.1462    3.3850   27.8771 H         2 PRO2        0.0000
     37 N          -0.9220    8.5320   25.9650 N.am      3 ARG3        0.0000
     38 CA         -1.8360    9.6610   26.2080 C.3       3 ARG3        0.0000
     39 C          -2.8870    9.9340   25.0900 C.2       3 ARG3        0.0000
     40 O          -3.6460   10.9180   25.1460 O.2       3 ARG3        0.0000
     41 CB         -1.0530   10.8930   26.6040 C.3       3 ARG3        0.0000
     42 CG         -0.4100   10.7240   27.9480 C.3       3 ARG3        0.0000
     43 CD          0.2500   12.0100   28.3900 C.3       3 ARG3        0.0000
     44 NE          0.6740   11.8990   29.7840 N.pl3     3 ARG3        0.0000
     45 CZ          1.5900   12.6710   30.3460 C.cat     3 ARG3        0.0000
     46 NH1         2.2030   13.6360   29.6510 N.pl3     3 ARG3        0.0000
     47 NH2         1.8920   12.4870   31.6030 N.pl3     3 ARG3        0.0000
     48 HNCA       -0.0917    8.7287   25.4096 H         3 ARG3        0.0000
     49 HA         -2.4498    9.3923   27.1327 H         3 ARG3        0.0000
     50 H          -2.8458    9.2052   24.3458 H         3 ARG3        0.0000
     51 HB2        -1.7282   11.7560   26.6247 H         3 ARG3        0.0000
     52 HB3        -0.2826   11.0866   25.8489 H         3 ARG3        0.0000
     53 HG2         0.3419    9.9320   27.8997 H         3 ARG3        0.0000
     54 HG3        -1.1651   10.4358   28.6840 H         3 ARG3        0.0000
     55 HD2        -0.4638   12.8304   28.2670 H         3 ARG3        0.0000
     56 HD3         1.1080   12.2052   27.7392 H         3 ARG3        0.0000
     57 HE          0.1848   11.1363   30.3322 H         3 ARG3        0.0000
     58 HH11        1.9484   13.7136   28.6871 H         3 ARG3        0.0000
     59 HH12        2.8608   14.1932   30.1578 H         3 ARG3        0.0000
     60 HH21        1.3774   11.7741   32.0794 H         3 ARG3        0.0000
     61 HH22        2.6102   13.0759   31.9738 H         3 ARG3        0.0000
@<TRIPOS>BOND
     1    2    1 1
     2   20    1 1
     3   21    1 1
     4   22    1 1
     5    3    2 1
     6    5    2 1
     7   12    2 1
     8    4    3 2
     9    6    5 1
    10   13    5 1
    11   14    5 1
    12    7    6 ar
    13    8    6 ar
    14    9    7 ar
    15   15    7 1
    16   10    8 ar
    17   16    8 1
    18   11    9 ar
    19   17    9 1
    20   11   10 ar
    21   18   10 1
    22   19   11 1
    23   24   23 1
    24   29   23 1
    25   25   24 1
    26   27   24 1
    27   30   24 1
    28   26   25 2
    29   28   27 1
    30   31   27 1
    31   32   27 1
    32   29   28 1
    33   33   28 1
    34   34   28 1
    35   35   29 1
    36   36   29 1
    37   38   37 1
    38   48   37 1
    39   39   38 1
    40   41   38 1
    41   49   38 1
    42   40   39 2
    43   50   39 1
    44   42   41 1
    45   51   41 1
    46   52   41 1
    47   43   42 1
    48   53   42 1
    49   54   42 1
    50   44   43 1
    51   55   43 1
    52   56   43 1
    53   45   44 ar
    54   57   44 1
    55   46   45 ar
    56   47   45 ar
    57   58   46 1
    58   59   46 1
    59   60   47 1
    60   61   47 1
    61   23    3 am
    62   37   25 am
@<TRIPOS>SUBSTRUCTURE
     1 PHE1        1 RESIDUE
     2 PRO2       23 RESIDUE
     3 ARG3       37 RESIDUE
@<TRIPOS>SET

