#    Name: 1ros_DEO_2_INTS_M
#    Modification time : Tue Mar 25 01:00:25 2014

@<TRIPOS>MOLECULE
1ros_DEO_2_INTS_M
   75     0     9     0     0
SMALL
NO_CHARGES


@<TRIPOS>ATOM
      1 CA         48.5685   90.1895   19.6860 C.3       3 GLC5        0.0000 
      2 CA         47.8560   91.1300   18.2120 C.3       9 GLL5        0.0000 
      3 CA         49.2810   89.2490   21.1600 C.3       6 GLP5        0.0000 
      4 CA         48.3005   89.2490   14.2165 C.3       3 GLC5        0.0000 
      5 CA         48.1880   89.5930   16.3370 C.3       9 GLL5        0.0000 
      6 CA         48.4130   88.9050   12.0960 C.3       6 GLP5        0.0000 
      7 N          47.3835   93.2630   21.0850 N.am      1 SEC2        0.0000 
      8 N          46.8080   92.5070   19.8730 N.am      7 SEL2        0.0000 
      9 N          47.9590   94.0190   22.2970 N.am      4 SEP2        0.0000 
     10 CA         44.5895   93.0550   20.1160 C.3       3 GLC5        0.0000 
     11 CA         44.2300   91.6300   18.7010 C.3       9 GLL5        0.0000 
     12 CA         44.9490   94.4800   21.5310 C.3       6 GLP5        0.0000 
     13 CA         41.8485   91.6680   20.3305 C.3       3 GLC5        0.0000 
     14 CA         43.3280   90.4930   19.2340 C.3       9 GLL5        0.0000 
     15 CA         40.3690   92.8430   21.4270 C.3       6 GLP5        0.0000 
     16 N          40.6790   90.0990   23.5755 N.am      1 SEC2        0.0000 
     17 N          41.9670   89.4900   23.3010 N.am      7 SEL2        0.0000 
     18 N          39.3910   90.7080   23.8500 N.am      4 SEP2        0.0000 
     19 N          41.8045   90.7040   24.0545 N.am      1 SEC2        0.0000 
     20 N          41.6420   91.9180   24.8080 N.am      4 SEP2        0.0000 
     21 CA         42.8245   83.4715   21.7265 C.3       3 GLC5        0.0000 
     22 CA         43.7660   85.0200   22.8560 C.3       9 GLL5        0.0000 
     23 CA         41.8830   81.9230   20.5970 C.3       6 GLP5        0.0000 
     24 CA         42.2710   84.8365   24.9975 C.3       3 GLC5        0.0000 
     25 CA         43.9320   86.0840   25.0190 C.3       9 GLL5        0.0000 
     26 CA         40.6100   83.5890   24.9760 C.3       6 GLP5        0.0000 
     27 CA         41.3885   87.1330   25.2480 C.3       3 GLC5        0.0000 
     28 CA         43.4060   87.2810   24.4780 C.3       9 GLL5        0.0000 
     29 CA         39.3710   86.9850   26.0180 C.3       6 GLP5        0.0000 
     30 CA         44.9820   85.0430   27.6325 C.3       3 GLC5        0.0000 
     31 CA         44.6040   83.3760   26.2090 C.3       9 GLL5        0.0000 
     32 CA         45.3600   86.7100   29.0560 C.3       6 GLP5        0.0000 
     33 CA         46.2475   84.4725   25.8085 C.3       3 GLC5        0.0000 
     34 CA         47.8910   85.5690   25.4080 C.3       6 GLP5        0.0000 
     35 CA         45.1545   82.4500   28.9070 C.3       3 GLC5        0.0000 
     36 CA         45.0580   82.1780   26.7830 C.3       9 GLL5        0.0000 
     37 CA         45.2510   82.7220   31.0310 C.3       6 GLP5        0.0000 
     38 CA         47.5570   80.7710   24.6795 C.3       3 GLC5        0.0000 
     39 CA         45.6730   81.3680   24.5780 C.3       9 GLL5        0.0000 
     40 CA         49.4410   80.1740   24.7810 C.3       6 GLP5        0.0000 
     41 CA         47.7240   80.6640   27.3005 C.3       3 GLC5        0.0000 
     42 CA         46.0160   79.6140   27.8230 C.3       9 GLL5        0.0000 
     43 CA         49.4320   81.7140   26.7780 C.3       6 GLP5        0.0000 
     44 CA         45.9545   77.5945   29.8165 C.3       3 GLC5        0.0000 
     45 CA         46.5710   78.2120   28.0600 C.3       9 GLL5        0.0000 
     46 CA         45.3380   76.9770   31.5730 C.3       6 GLP5        0.0000 
     47 Zn         46.1020   87.8600   20.0170 Zn        2 ZIC7        0.0000 
     48 Zn         45.2540   88.2350   19.7880 Zn        8 ZIL7        0.0000 
     49 Zn         46.9500   87.4850   20.2460 Zn        5 ZIP7        0.0000 
     50 Zn         46.3935   88.4735   20.9120 Zn        2 ZIC7        0.0000 
     51 Zn         45.8370   89.4620   21.5780 Zn        8 ZIL7        0.0000 
     52 N          45.8140   89.7150   22.8740 N.am      1 SEC2        0.0000 
     53 N          45.8370   89.4620   21.5780 N.am      7 SEL2        0.0000 
     54 N          45.7910   89.9680   24.1700 N.am      4 SEP2        0.0000 
     55 CA         50.1382   90.1893   19.4423 C.3       3 GLC5        0.0000 
     56 CA         49.2440   91.2830   18.4060 C.3       9 GLL5        0.0000 
     57 CA         50.5960   89.4550   20.9110 C.3       6 GLP5        0.0000 
     58 CA         45.3171   86.3634   23.0150 C.3       3 GLC5        0.0000 
     59 CA         43.2400   86.2060   22.3010 C.3       9 GLL5        0.0000 
     60 CA         47.1800   86.8240   23.2500 C.3       6 GLP5        0.0000 
     61 CA         42.7060   83.7237   23.9450 C.3       3 GLC5        0.0000 
     62 CA         41.4660   82.4790   24.3490 C.3       6 GLP5        0.0000 
     63 CA         43.8490   87.6658   26.4603 C.3       3 GLC5        0.0000 
     64 CA         44.0290   88.6490   28.1720 C.3       6 GLP5        0.0000 
     65 CA         45.4245   86.7533   23.9992 C.3       3 GLC5        0.0000 
     66 CA         47.3813   81.6865   26.5780 C.3       3 GLC5        0.0000 
     67 CA         43.1554   82.6589   25.2481 C.3       3 GLC5        0.0000 
     68 CA         43.4537   82.2277   24.3212 C.3       3 GLC5        0.0000 
     69 CA         45.2100   82.5850   24.0090 C.3       9 GLL5        0.0000 
     70 CA         46.1871   84.5817   24.1093 C.3       3 GLC5        0.0000 
     71 CA         47.5730   85.7360   23.9540 C.3       6 GLP5        0.0000 
     72 CA         46.4382   79.8135   29.8312 C.3       3 GLC5        0.0000 
     73 CA         46.5830   80.7140   31.7210 C.3       6 GLP5        0.0000 
     74 CA         47.9813   78.9480   28.7918 C.3       3 GLC5        0.0000 
     75 CA         49.6690   78.9830   29.6420 C.3       6 GLP5        0.0000 
@<TRIPOS>BOND
@<TRIPOS>SUBSTRUCTURE
     1 SEC2        7 GROUP        1 X    SEC  0     ROOT SEC X 2
     2 ZIC7       47 GROUP        1 X    ZIC  0     **** ZIC X 5
     3 GLC5        1 GROUP        1 X    GLC  0     **** GLC X 6
     4 SEP2        9 GROUP        1 Y    SEP  0     ROOT SEP Y 9
     5 ZIP7       49 GROUP        1 Y    ZIP  0     **** ZIP Y 12
     6 GLP5        3 GROUP        1 Y    GLP  0     **** GLP Y 13
     7 SEL2        8 GROUP        1 Z    SEL  0     ROOT SEL Z 16
     8 ZIL7       48 GROUP        1 Z    ZIL  0     **** ZIL Z 19
     9 GLL5        2 GROUP        1 Z    GLL  0     **** GLL Z 20
@<TRIPOS>SET

