#    Name: 1ros_DEO_2_ligand
#    Modification time : Tue Mar 25 01:00:25 2014

@<TRIPOS>MOLECULE
1ros_DEO_2_ligand
   59    62     1     0     0
SMALL
NO_CHARGES


@<TRIPOS>ATOM
      1 N1         45.6010   91.2570   18.3100 N.am      1 DEO1        0.0000 
      2 C1         46.7460   91.7330   18.9220 C.2       1 DEO1        0.0000 
      3 C2         47.8560   91.1300   18.2120 C.ar      1 DEO1        0.0000 
      4 C3         47.3430   90.3230   17.2100 C.ar      1 DEO1        0.0000 
      5 C4         48.1880   89.5930   16.3370 C.ar      1 DEO1        0.0000 
      6 C5         49.5920   89.7260   16.5130 C.ar      1 DEO1        0.0000 
      7 C6         50.1170   90.5640   17.5410 C.ar      1 DEO1        0.0000 
      8 C7         49.2440   91.2830   18.4060 C.ar      1 DEO1        0.0000 
      9 C8         45.8900   90.3970   17.2700 C.2       1 DEO1        0.0000 
     10 O1         45.0830   89.8270   16.5450 O.2       1 DEO1        0.0000 
     11 O2         46.8080   92.5070   19.8730 O.2       1 DEO1        0.0000 
     12 C9         44.2300   91.6300   18.7010 C.3       1 DEO1        0.0000 
     13 C10        43.3280   90.4930   19.2340 C.3       1 DEO1        0.0000 
     14 C11        43.6580   89.8720   20.6160 C.3       1 DEO1        0.0000 
     15 C12        42.5310   88.9110   21.0650 C.3       1 DEO1        0.0000 
     16 C13        42.4810   88.6400   22.5850 C.2       1 DEO1        0.0000 
     17 O3         41.9670   89.4900   23.3010 O.2       1 DEO1        0.0000 
     18 C14        43.0450   87.3650   23.1070 C.ar      1 DEO1        0.0000 
     19 C15        43.2400   86.2060   22.3010 C.ar      1 DEO1        0.0000 
     20 C16        43.7660   85.0200   22.8560 C.ar      1 DEO1        0.0000 
     21 C17        44.1260   84.9170   24.2260 C.ar      1 DEO1        0.0000 
     22 C18        43.9320   86.0840   25.0190 C.ar      1 DEO1        0.0000 
     23 C19        43.4060   87.2810   24.4780 C.ar      1 DEO1        0.0000 
     24 C20        44.6590   83.6230   24.8140 C.ar      1 DEO1        0.0000 
     25 C21        44.6040   83.3760   26.2090 C.ar      1 DEO1        0.0000 
     26 C22        45.0580   82.1780   26.7830 C.ar      1 DEO1        0.0000 
     27 C23        45.6030   81.1400   25.9730 C.ar      1 DEO1        0.0000 
     28 C24        45.6730   81.3680   24.5780 C.ar      1 DEO1        0.0000 
     29 C25        45.2100   82.5850   24.0090 C.ar      1 DEO1        0.0000 
     30 O4         46.0730   79.8980   26.4270 O.3       1 DEO1        0.0000 
     31 C26        46.0160   79.6140   27.8230 C.3       1 DEO1        0.0000 
     32 C27        46.5710   78.2120   28.0600 C.3       1 DEO1        0.0000 
     33 C28        44.9910   89.0870   20.6050 C.2       1 DEO1        0.0000 
     34 O5         45.2540   88.2350   19.7880 O.co2     1 DEO1        0.0000 
     35 O6         45.8370   89.4620   21.5780 O.co2     1 DEO1        0.0000 
     36 H          47.8104   89.0032   15.6201 H         1 DEO1        0.0000 
     37 H          50.2317   89.2187   15.9000 H         1 DEO1        0.0000 
     38 H          51.1279   90.6483   17.6567 H         1 DEO1        0.0000 
     39 H          49.6106   91.8767   19.1271 H         1 DEO1        0.0000 
     40 H          43.6976   92.0986   17.8361 H         1 DEO1        0.0000 
     41 H          44.2573   92.4275   19.4849 H         1 DEO1        0.0000 
     42 H          43.3170   89.6695   18.4766 H         1 DEO1        0.0000 
     43 H          42.2736   90.8662   19.2634 H         1 DEO1        0.0000 
     44 H          43.7326   90.6613   21.3469 H         1 DEO1        0.0000 
     45 H          42.6555   87.9515   20.5380 H         1 DEO1        0.0000 
     46 H          41.5630   89.3308   20.7480 H         1 DEO1        0.0000 
     47 H          42.9933   86.2404   21.3069 H         1 DEO1        0.0000 
     48 H          43.8957   84.1925   22.2453 H         1 DEO1        0.0000 
     49 H          44.1845   86.0516   26.0206 H         1 DEO1        0.0000 
     50 H          43.2829   88.1005   25.0824 H         1 DEO1        0.0000 
     51 H          44.2109   84.1149   26.8264 H         1 DEO1        0.0000 
     52 H          45.0006   82.0391   27.7984 H         1 DEO1        0.0000 
     53 H          46.0645   80.6434   23.9646 H         1 DEO1        0.0000 
     54 H          45.2737   82.7211   22.9910 H         1 DEO1        0.0000 
     55 H          44.9921   79.6374   28.2026 H         1 DEO1        0.0000 
     56 H          46.6166   80.3151   28.4068 H         1 DEO1        0.0000 
     57 H          47.5212   78.1329   27.7586 H         1 DEO1        0.0000 
     58 H          46.5488   77.9625   29.0281 H         1 DEO1        0.0000 
     59 H          46.0481   77.5172   27.5662 H         1 DEO1        0.0000 
@<TRIPOS>BOND
     1    2    1 am   
     2    9    1 am   
     3   12    1 1    
     4    3    2 1    
     5   11    2 2    
     6    4    3 ar   
     7    8    3 ar   
     8    5    4 ar   
     9    9    4 1    
    10    6    5 ar   
    11   36    5 1    
    12    7    6 ar   
    13   37    6 1    
    14    8    7 ar   
    15   38    7 1    
    16   39    8 1    
    17   10    9 2    
    18   13   12 1    
    19   40   12 1    
    20   41   12 1    
    21   14   13 1    
    22   42   13 1    
    23   43   13 1    
    24   15   14 1    
    25   33   14 1    
    26   44   14 1    
    27   16   15 1    
    28   45   15 1    
    29   46   15 1    
    30   17   16 2    
    31   18   16 1    
    32   19   18 ar   
    33   23   18 ar   
    34   20   19 ar   
    35   47   19 1    
    36   21   20 ar   
    37   48   20 1    
    38   22   21 ar   
    39   24   21 1    
    40   23   22 ar   
    41   49   22 1    
    42   50   23 1    
    43   25   24 ar   
    44   29   24 ar   
    45   26   25 ar   
    46   51   25 1    
    47   27   26 ar   
    48   52   26 1    
    49   28   27 ar   
    50   30   27 1    
    51   29   28 ar   
    52   53   28 1    
    53   54   29 1    
    54   31   30 1    
    55   32   31 1    
    56   55   31 1    
    57   56   31 1    
    58   57   32 1    
    59   58   32 1    
    60   59   32 1    
    61   34   33 ar   
    62   35   33 ar   
@<TRIPOS>SUBSTRUCTURE
     1 DEO1        1 GROUP   
@<TRIPOS>SET

