#    Name: 3m34_TPP_1_INTS_M
#    Modification time : Mon Mar 24 22:42:52 2014

@<TRIPOS>MOLECULE
3m34_TPP_1_INTS_M
   51     0     9     0     0
SMALL
NO_CHARGES


@<TRIPOS>ATOM
      1 CA          7.4480   32.3880    6.7715 C.3       3 GLC5        0.0000 
      2 CA          5.3580   31.8640    7.2550 C.3       9 GLL5        0.0000 
      3 CA          9.5380   32.9120    6.2880 C.3       6 GLP5        0.0000 
      4 N           7.9165   31.3300    7.8575 N.am      2 SEC2        0.0000 
      5 N           7.1660   31.9420    8.9910 N.am      8 SEL2        0.0000 
      6 N           8.6670   30.7180    6.7240 N.am      5 SEP2        0.0000 
      7 O           9.9555   32.0270    9.4725 O.2       1 ALC1        0.0000 
      8 O           8.9070   32.1040   10.5250 O.2       7 ALL1        0.0000 
      9 O          11.0040   31.9500    8.4200 O.2       4 ALP1        0.0000 
     10 CA          7.3960   30.1230   11.5555 C.3       3 GLC5        0.0000 
     11 CA          7.1180   31.8760   12.8210 C.3       9 GLL5        0.0000 
     12 CA          7.6740   28.3700   10.2900 C.3       6 GLP5        0.0000 
     13 CA         11.6735   28.8170   13.4765 C.3       3 GLC5        0.0000 
     14 CA          9.5350   28.8150   13.5490 C.3       9 GLL5        0.0000 
     15 CA         13.8120   28.8190   13.4040 C.3       6 GLP5        0.0000 
     16 CA          6.4840   25.3575   15.3500 C.3       3 GLC5        0.0000 
     17 CA          7.5750   27.0030   14.3080 C.3       9 GLL5        0.0000 
     18 CA          5.3930   23.7120   16.3920 C.3       6 GLP5        0.0000 
     19 CA          7.3225   27.8860   16.1950 C.3       3 GLC5        0.0000 
     20 CA          7.0700   28.7690   18.0820 C.3       6 GLP5        0.0000 
     21 CA          7.5350   25.3765   11.7485 C.3       3 GLC5        0.0000 
     22 CA          8.4040   26.1820   13.3690 C.3       9 GLL5        0.0000 
     23 CA          6.6660   24.5710   10.1280 C.3       6 GLP5        0.0000 
     24 N           8.4340   23.9325   11.3135 N.am      2 SEC2        0.0000 
     25 N           9.5450   24.4880   12.0330 N.am      8 SEL2        0.0000 
     26 N           7.3230   23.3770   10.5940 N.am      5 SEP2        0.0000 
     27 N          10.9290   25.7190   16.9880 N.am      2 SEC2        0.0000 
     28 N          10.7640   24.4410   16.5520 N.am      8 SEL2        0.0000 
     29 N          11.0940   26.9970   17.4240 N.am      5 SEP2        0.0000 
     30 N          11.9615   21.2900   16.0595 N.am      2 SEC2        0.0000 
     31 N          11.3120   22.4670   15.6320 N.am      8 SEL2        0.0000 
     32 N          12.6110   20.1130   16.4870 N.am      5 SEP2        0.0000 
     33 N          11.2270   21.5635   14.4910 N.am      2 SEC2        0.0000 
     34 N          11.1420   20.6600   13.3500 N.am      5 SEP2        0.0000 
     35 N          13.0500   25.6635   14.6930 N.am      2 SEC2        0.0000 
     36 N          12.8240   24.6210   15.7110 N.am      8 SEL2        0.0000 
     37 N          13.2760   26.7060   13.6750 N.am      5 SEP2        0.0000 
     38 N          11.9590   25.8090   16.5675 N.am      2 SEC2        0.0000 
     39 CA          6.7580   30.2377    7.8940 C.3       3 GLC5        0.0000 
     40 CA          5.8500   31.8170    8.7110 C.3       9 GLL5        0.0000 
     41 CA          7.9120   28.6350    7.8050 C.3       6 GLP5        0.0000 
     42 CA          6.9594   30.1156   10.5986 C.3       3 GLC5        0.0000 
     43 CA          7.5990   31.9730   10.2650 C.3       9 GLL5        0.0000 
     44 CA          8.5038   29.0027   11.8400 C.3       3 GLC5        0.0000 
     45 CA          9.1320   30.4560   13.2310 C.3       9 GLL5        0.0000 
     46 CA          7.1133   28.7816   11.9829 C.3       3 GLC5        0.0000 
     47 CA          7.9040   28.3960   13.8770 C.3       9 GLL5        0.0000 
     48 CA          6.7907   29.6281   15.4869 C.3       3 GLC5        0.0000 
     49 CA          7.1100   29.4850   13.5320 C.3       9 GLL5        0.0000 
     50 CA          7.0290   30.0630   17.2980 C.3       6 GLP5        0.0000 
     51 CA          7.8317   27.4813   12.0642 C.3       3 GLC5        0.0000 
@<TRIPOS>BOND
@<TRIPOS>SUBSTRUCTURE
     1 ALC1        7 GROUP        1 X    ALC  0     ROOT ALC X 1
     2 SEC2        4 GROUP        1 X    SEC  0     **** SEC X 2
     3 GLC5        1 GROUP        1 X    GLC  0     **** GLC X 6
     4 ALP1        9 GROUP        1 Y    ALP  0     ROOT ALP Y 8
     5 SEP2        6 GROUP        1 Y    SEP  0     **** SEP Y 9
     6 GLP5        3 GROUP        1 Y    GLP  0     **** GLP Y 13
     7 ALL1        8 GROUP        1 Z    ALL  0     ROOT ALL Z 15
     8 SEL2        5 GROUP        1 Z    SEL  0     **** SEL Z 16
     9 GLL5        2 GROUP        1 Z    GLL  0     **** GLL Z 20
@<TRIPOS>SET

