#    Name: 3m34_TPP_1_ligand
#    Modification time : Mon Mar 24 22:42:52 2014

@<TRIPOS>MOLECULE
3m34_TPP_1_ligand
   42    43     1     0     0
SMALL
NO_CHARGES


@<TRIPOS>ATOM
      1 N1'         4.9470   31.7790    9.7380 N.ar      1 TPP7327     0.0000 
      2 C2'         5.8500   31.8170    8.7110 C.ar      1 TPP7327     0.0000 
      3 CM2         5.3580   31.8640    7.2550 C.3       1 TPP7327     0.0000 
      4 N3'         7.1660   31.9420    8.9910 N.ar      1 TPP7327     0.0000 
      5 C4'         7.5990   31.9730   10.2650 C.ar      1 TPP7327     0.0000 
      6 N4'         8.9070   32.1040   10.5250 N.pl3     1 TPP7327     0.0000 
      7 C5'         6.6860   31.8680   11.3480 C.ar      1 TPP7327     0.0000 
      8 C6'         5.3470   31.8020   11.0080 C.ar      1 TPP7327     0.0000 
      9 C7'         7.1180   31.8760   12.8210 C.3       1 TPP7327     0.0000 
     10 N3          7.7850   30.5970   13.1840 N.pl3     1 TPP7327     0.0000 
     11 C2          9.1320   30.4560   13.2310 C.2       1 TPP7327     0.0000 
     12 S1          9.5350   28.8150   13.5490 S.3       1 TPP7327     0.0000 
     13 C5          7.9040   28.3960   13.8770 C.2       1 TPP7327     0.0000 
     14 C4          7.1100   29.4850   13.5320 C.2       1 TPP7327     0.0000 
     15 CM4         5.5980   29.4460   13.6470 C.3       1 TPP7327     0.0000 
     16 C6          7.5750   27.0030   14.3080 C.3       1 TPP7327     0.0000 
     17 C7          8.4040   26.1820   13.3690 C.3       1 TPP7327     0.0000 
     18 O7          8.6540   25.0510   13.9720 O.3       1 TPP7327     0.0000 
     19 PA          9.6470   24.1310   13.4430 P.3       1 TPP7327     0.0000 
     20 O1A         8.7340   23.0630   13.9200 O.co2     1 TPP7327     0.0000 
     21 O2A         9.5450   24.4880   12.0330 O.co2     1 TPP7327     0.0000 
     22 O3A        10.6430   24.7410   14.3200 O.3       1 TPP7327     0.0000 
     23 PB         11.5990   23.9850   15.3850 P.3       1 TPP7327     0.0000 
     24 O1B        10.7640   24.4410   16.5520 O.co2     1 TPP7327     0.0000 
     25 O2B        11.3120   22.4670   15.6320 O.co2     1 TPP7327     0.0000 
     26 O3B        12.8240   24.6210   15.7110 O.co2     1 TPP7327     0.0000 
     27 H           9.5316   31.7639    9.8219 H         1 TPP7327     0.0000 
     28 H           9.1414   32.5302   11.3987 H         1 TPP7327     0.0000 
     29 H           4.6436   31.7700   11.7890 H         1 TPP7327     0.0000 
     30 H           6.2313   32.0311   13.4404 H         1 TPP7327     0.0000 
     31 H           7.7982   32.7168   12.9771 H         1 TPP7327     0.0000 
     32 H           9.8608   31.0061   13.1373 H         1 TPP7327     0.0000 
     33 H           6.5442   26.8043   14.1554 H         1 TPP7327     0.0000 
     34 H           7.8891   26.8434   15.3086 H         1 TPP7327     0.0000 
     35 H           9.2993   26.7823   13.1268 H         1 TPP7327     0.0000 
     36 H           7.8246   26.0865   12.4332 H         1 TPP7327     0.0000 
     37 H           6.1188   31.8857    6.6064 H         1 TPP7327     0.0000 
     38 H           4.7999   31.0665    7.0256 H         1 TPP7327     0.0000 
     39 H           4.7987   32.6738    7.0779 H         1 TPP7327     0.0000 
     40 H           5.2692   28.5404   13.9150 H         1 TPP7327     0.0000 
     41 H           5.2606   30.0942   14.3296 H         1 TPP7327     0.0000 
     42 H           5.1536   29.6747   12.7808 H         1 TPP7327     0.0000 
@<TRIPOS>BOND
     1    2    1 ar   
     2    8    1 ar   
     3    3    2 1    
     4    4    2 ar   
     5   37    3 1    
     6   38    3 1    
     7   39    3 1    
     8    5    4 ar   
     9    6    5 1    
    10    7    5 ar   
    11   27    6 1    
    12   28    6 1    
    13    8    7 ar   
    14    9    7 1    
    15   29    8 1    
    16   10    9 1    
    17   30    9 1    
    18   31    9 1    
    19   11   10 2    
    20   14   10 1    
    21   12   11 1    
    22   32   11 1    
    23   13   12 1    
    24   14   13 2    
    25   16   13 1    
    26   15   14 1    
    27   40   15 1    
    28   41   15 1    
    29   42   15 1    
    30   17   16 1    
    31   33   16 1    
    32   34   16 1    
    33   18   17 1    
    34   35   17 1    
    35   36   17 1    
    36   19   18 1    
    37   20   19 ar   
    38   21   19 ar   
    39   22   19 1    
    40   23   22 1    
    41   24   23 ar   
    42   25   23 ar   
    43   26   23 ar   
@<TRIPOS>SUBSTRUCTURE
     1 TPP7327     1 GROUP   
@<TRIPOS>SET

