#    Name: 3pkp_DTP_7_INTS_M
#    Modification time : Tue Mar 25 08:08:31 2014

@<TRIPOS>MOLECULE
3pkp_DTP_7_INTS_M
   82     0    15     0     0
SMALL
NO_CHARGES


@<TRIPOS>ATOM
      1 NZ         82.2015    3.3225   43.9995 N.4       3 LYC4        0.0000 
      2 NZ         81.8000    4.6670   44.5660 N.4      13 LYL4        0.0000 
      3 NZ         82.2550    0.9300   44.1800 N.4       8 LYP4        0.0000 
      4 N          81.9565    5.4660   43.3035 N.am      2 SEC2        0.0000 
      5 N          81.8000    4.6670   44.5660 N.am     12 SEL2        0.0000 
      6 N          82.1130    6.2650   42.0410 N.am      7 SEP2        0.0000 
      7 N          82.2015    3.3225   43.9995 N.am      2 SEC2        0.0000 
      8 N          82.6030    1.9780   43.4330 N.am      7 SEP2        0.0000 
      9 NZ         82.4745    2.3795   45.7465 N.4       3 LYC4        0.0000 
     10 NZ         83.1510    3.6490   46.0790 N.4      13 LYL4        0.0000 
     11 N          82.8770    2.8135   44.7560 N.am      2 SEC2        0.0000 
     12 N          83.1510    3.6490   46.0790 N.am     12 SEL2        0.0000 
     13 N          82.4745    2.3795   45.7465 N.am      2 SEC2        0.0000 
     14 N          81.7980    1.1100   45.4140 N.am      7 SEP2        0.0000 
     15 N          79.4175    6.6770   47.2675 N.am      2 SEC2        0.0000 
     16 N          79.2630    5.6600   48.1780 N.am     12 SEL2        0.0000 
     17 N          79.5720    7.6940   46.3570 N.am      7 SEP2        0.0000 
     18 N          80.1755    6.0785   46.3920 N.am      2 SEC2        0.0000 
     19 N          80.7790    4.4630   46.4270 N.am     12 SEL2        0.0000 
     20 Zn         82.3390    1.8105   48.7225 Zn        4 ZIC7        0.0000 
     21 Zn         81.2470    1.6210   48.5020 Zn       14 ZIL7        0.0000 
     22 Zn         83.4310    2.0000   48.9430 Zn        9 ZIP7        0.0000 
     23 NZ         78.0520    1.6105   46.6905 N.4       3 LYC4        0.0000 
     24 NZ         78.9360    0.6560   47.6860 N.4      13 LYL4        0.0000 
     25 NZ         77.1680    2.5650   45.6950 N.4       8 LYP4        0.0000 
     26 Zn         79.1105   -0.3280   47.1435 Zn        4 ZIC7        0.0000 
     27 Zn         78.9360    0.6560   47.6860 Zn       14 ZIL7        0.0000 
     28 Zn         79.2850   -1.3120   46.6010 Zn        9 ZIP7        0.0000 
     29 N          78.0520    1.6105   46.6905 N.am      2 SEC2        0.0000 
     30 N          78.9360    0.6560   47.6860 N.am     12 SEL2        0.0000 
     31 N          77.1680    2.5650   45.6950 N.am      7 SEP2        0.0000 
     32 N          78.2070    2.8585   46.8155 N.am      2 SEC2        0.0000 
     33 N          79.2460    3.1520   47.9360 N.am     12 SEL2        0.0000 
     34 CA         78.7350    0.4495   52.5880 C.3       5 GLC5        0.0000 
     35 CA         78.2480    0.6290   50.4080 C.3      15 GLL5        0.0000 
     36 CA         79.2220    0.2700   54.7680 C.3      10 GLP5        0.0000 
     37 CA         77.5035   -1.1465   51.0740 C.3       5 GLC5        0.0000 
     38 CA         76.7590   -2.9220   51.7400 C.3      10 GLP5        0.0000 
     39 CA         75.6985   -0.3305   51.2865 C.3       5 GLC5        0.0000 
     40 CA         76.8950    1.2250   50.8220 C.3      15 GLL5        0.0000 
     41 CA         74.5020   -1.8860   51.7510 C.3      10 GLP5        0.0000 
     42 CA         75.2415    1.4250   48.1745 C.3       5 GLC5        0.0000 
     43 CA         76.3660    2.2190   49.7880 C.3      15 GLL5        0.0000 
     44 CA         74.1170    0.6310   46.5610 C.3      10 GLP5        0.0000 
     45 O          74.3270    3.0655   48.9935 O.2       1 ALC1        0.0000 
     46 O          74.9610    2.0050   49.6590 O.2      11 ALL1        0.0000 
     47 O          73.6930    4.1260   48.3280 O.2       6 ALP1        0.0000 
     48 CA         77.5860    5.5890   50.6855 C.3       5 GLC5        0.0000 
     49 CA         76.6280    3.5990   50.3590 C.3      15 GLL5        0.0000 
     50 CA         78.5440    7.5790   51.0120 C.3      10 GLP5        0.0000 
     51 CA         75.5335    2.5905   53.5690 C.3       5 GLC5        0.0000 
     52 CA         76.6540    3.3240   51.8690 C.3      15 GLL5        0.0000 
     53 CA         74.4130    1.8570   55.2690 C.3      10 GLP5        0.0000 
     54 CA         78.0040    7.7090   56.6865 C.3       5 GLC5        0.0000 
     55 CA         78.6770    6.3550   55.3220 C.3      15 GLL5        0.0000 
     56 CA         77.3310    9.0630   58.0510 C.3      10 GLP5        0.0000 
     57 O          79.1475    7.6390   57.0375 O.2       1 ALC1        0.0000 
     58 O          79.8050    6.9810   55.7460 O.2      11 ALL1        0.0000 
     59 O          78.4900    8.2970   58.3290 O.2       6 ALP1        0.0000 
     60 O          80.5845    7.6870   56.7495 O.2       1 ALC1        0.0000 
     61 O          81.3640    8.3930   57.7530 O.2       6 ALP1        0.0000 
     62 O          81.1600    6.9305   55.2170 O.2       1 ALC1        0.0000 
     63 O          82.5150    6.8800   54.6880 O.2       6 ALP1        0.0000 
     64 CA         75.6785    4.2790   56.5620 C.3       5 GLC5        0.0000 
     65 CA         76.3810    5.8740   55.5870 C.3      15 GLL5        0.0000 
     66 CA         74.9760    2.6840   57.5370 C.3      10 GLP5        0.0000 
     67 CA         75.7240    6.8415   54.0440 C.3       5 GLC5        0.0000 
     68 CA         75.0670    7.8090   52.5010 C.3      10 GLP5        0.0000 
     69 CA         75.2300    6.3480   57.2595 C.3       5 GLC5        0.0000 
     70 CA         74.0790    6.8220   58.9320 C.3      10 GLP5        0.0000 
     71 CA         76.8560    7.4685   56.8190 C.3       5 GLC5        0.0000 
     72 N          75.2660    5.8675   53.6215 N.am      2 SEC2        0.0000 
     73 N          76.3050    5.0810   54.5030 N.am     12 SEL2        0.0000 
     74 N          74.2270    6.6540   52.7400 N.am      7 SEP2        0.0000 
     75 CA         76.2350    6.3330   53.1155 C.3       5 GLC5        0.0000 
     76 CA         77.4030    4.8570   53.7300 C.3      15 GLL5        0.0000 
     77 CA         76.3585    3.3100   47.9982 C.3       5 GLC5        0.0000 
     78 CA         76.2200    3.7110   45.9230 C.3      10 GLP5        0.0000 
     79 CA         78.2922    6.4854   52.6170 C.3       5 GLC5        0.0000 
     80 CA         78.6790    5.4980   54.1060 C.3      15 GLL5        0.0000 
     81 CA         79.2353    3.8504   54.9820 C.3       5 GLC5        0.0000 
     82 CA         80.4300    2.3090   55.7420 C.3      10 GLP5        0.0000 
@<TRIPOS>BOND
@<TRIPOS>SUBSTRUCTURE
     1 ALC1       45 GROUP        1 X    ALC  0     ROOT ALC X 1
     2 SEC2        4 GROUP        1 X    SEC  0     **** SEC X 2
     3 LYC4        1 GROUP        1 X    LYC  0     **** LYC X 4
     4 ZIC7       20 GROUP        1 X    ZIC  0     **** ZIC X 5
     5 GLC5       34 GROUP        1 X    GLC  0     **** GLC X 6
     6 ALP1       47 GROUP        1 Y    ALP  0     ROOT ALP Y 8
     7 SEP2        6 GROUP        1 Y    SEP  0     **** SEP Y 9
     8 LYP4        3 GROUP        1 Y    LYP  0     **** LYP Y 11
     9 ZIP7       22 GROUP        1 Y    ZIP  0     **** ZIP Y 12
    10 GLP5       36 GROUP        1 Y    GLP  0     **** GLP Y 13
    11 ALL1       46 GROUP        1 Z    ALL  0     ROOT ALL Z 15
    12 SEL2        5 GROUP        1 Z    SEL  0     **** SEL Z 16
    13 LYL4        2 GROUP        1 Z    LYL  0     **** LYL Z 18
    14 ZIL7       21 GROUP        1 Z    ZIL  0     **** ZIL Z 19
    15 GLL5       35 GROUP        1 Z    GLL  0     **** GLL Z 20
@<TRIPOS>SET

