#    Name: 3pkp_DTP_7_ligand
#    Modification time : Tue Mar 25 08:08:31 2014

@<TRIPOS>MOLECULE
3pkp_DTP_7_ligand
   42    44     1     0     0
SMALL
NO_CHARGES


@<TRIPOS>ATOM
      1 PG         82.3250    4.8480   45.9790 P.3       1 DTP500      0.0000 
      2 O1G        81.8000    4.6670   44.5660 O.co2     1 DTP500      0.0000 
      3 O2G        82.3190    5.2850   47.4140 O.co2     1 DTP500      0.0000 
      4 O3G        83.1510    3.6490   46.0790 O.co2     1 DTP500      0.0000 
      5 PB         80.1510    4.4610   47.9530 P.3       1 DTP500      0.0000 
      6 O1B        79.2630    5.6600   48.1780 O.co2     1 DTP500      0.0000 
      7 O2B        81.1320    4.1340   49.0560 O.co2     1 DTP500      0.0000 
      8 O3B        80.7790    4.4630   46.4270 O.3       1 DTP500      0.0000 
      9 PA         79.7250    1.6980   48.4570 P.3       1 DTP500      0.0000 
     10 O1A        81.2470    1.6210   48.5020 O.co2     1 DTP500      0.0000 
     11 O2A        78.9360    0.6560   47.6860 O.co2     1 DTP500      0.0000 
     12 O3A        79.2460    3.1520   47.9360 O.3       1 DTP500      0.0000 
     13 O5'        79.0930    1.6950   49.9450 O.3       1 DTP500      0.0000 
     14 C5'        78.2480    0.6290   50.4080 C.3       1 DTP500      0.0000 
     15 C4'        76.8950    1.2250   50.8220 C.3       1 DTP500      0.0000 
     16 O4'        76.9690    1.9320   52.0640 O.3       1 DTP500      0.0000 
     17 C3'        76.3660    2.2190   49.7880 C.3       1 DTP500      0.0000 
     18 O3'        74.9610    2.0050   49.6590 O.3       1 DTP500      0.0000 
     19 C2'        76.6280    3.5990   50.3590 C.3       1 DTP500      0.0000 
     20 C1'        76.6540    3.3240   51.8690 C.3       1 DTP500      0.0000 
     21 N9         77.6480    4.1570   52.6090 N.pl3     1 DTP500      0.0000 
     22 C8         78.9530    4.3040   52.3000 C.2       1 DTP500      0.0000 
     23 N7         79.5890    5.1120   53.1880 N.2       1 DTP500      0.0000 
     24 C5         78.6790    5.4980   54.1060 C.ar      1 DTP500      0.0000 
     25 C6         78.6770    6.3550   55.3220 C.ar      1 DTP500      0.0000 
     26 N6         79.8050    6.9810   55.7460 N.pl3     1 DTP500      0.0000 
     27 N1         77.5100    6.4930   55.9940 N.ar      1 DTP500      0.0000 
     28 C2         76.3810    5.8740   55.5870 C.ar      1 DTP500      0.0000 
     29 N3         76.3050    5.0810   54.5030 N.ar      1 DTP500      0.0000 
     30 C4         77.4030    4.8570   53.7300 C.ar      1 DTP500      0.0000 
     31 H          78.6705    0.1256   51.2765 H         1 DTP500      0.0000 
     32 H          78.0630   -0.1087   49.6284 H         1 DTP500      0.0000 
     33 H          76.1693    0.4174   50.8912 H         1 DTP500      0.0000 
     34 H          76.8947    2.0946   48.8926 H         1 DTP500      0.0000 
     35 H          75.8275    4.2469   50.1323 H         1 DTP500      0.0000 
     36 H          77.5725    3.9504   50.0483 H         1 DTP500      0.0000 
     37 H          75.6579    3.5261   52.2576 H         1 DTP500      0.0000 
     38 H          79.3943    3.8808   51.5285 H         1 DTP500      0.0000 
     39 H          80.6251    6.8318   55.1936 H         1 DTP500      0.0000 
     40 H          79.7159    7.5359   56.5732 H         1 DTP500      0.0000 
     41 H          75.4922    6.0250   56.1643 H         1 DTP500      0.0000 
     42 H          74.6963    2.5125   48.8391 H         1 DTP500      0.0000 
@<TRIPOS>BOND
     1    2    1 ar   
     2    3    1 ar   
     3    4    1 ar   
     4    8    1 1    
     5    6    5 ar   
     6    7    5 ar   
     7    8    5 1    
     8   12    5 1    
     9   10    9 ar   
    10   11    9 ar   
    11   12    9 1    
    12   13    9 1    
    13   14   13 1    
    14   15   14 1    
    15   31   14 1    
    16   32   14 1    
    17   16   15 1    
    18   17   15 1    
    19   33   15 1    
    20   20   16 1    
    21   18   17 1    
    22   19   17 1    
    23   34   17 1    
    24   42   18 1    
    25   20   19 1    
    26   35   19 1    
    27   36   19 1    
    28   21   20 1    
    29   37   20 1    
    30   22   21 1    
    31   30   21 1    
    32   23   22 2    
    33   38   22 1    
    34   24   23 1    
    35   25   24 ar   
    36   30   24 ar   
    37   26   25 1    
    38   27   25 ar   
    39   39   26 1    
    40   40   26 1    
    41   28   27 ar   
    42   29   28 ar   
    43   41   28 1    
    44   30   29 ar   
@<TRIPOS>SUBSTRUCTURE
     1 DTP500      1 GROUP   
@<TRIPOS>SET

