#    Name: 1pso_VAL_VAL_ALA_IVA_STA_STA_1_INTS_M
#    Modification time : Mon Mar 24 22:14:53 2014

@<TRIPOS>MOLECULE
1pso_VAL_VAL_ALA_IVA_STA_STA_1_INTS_M
  100     0     9     0     0
SMALL
NO_CHARGES


@<TRIPOS>ATOM
      1 O           7.0350   21.3450    3.1250 O.2       1 ALC1        0.0000 
      2 O           6.7400   19.8900    3.2200 O.2       7 ALL1        0.0000 
      3 O           7.3300   22.8000    3.0300 O.2       4 ALP1        0.0000 
      4 CA          6.3750   17.4100    4.6600 C.3       3 GLC5        0.0000 
      5 CA          7.4900   19.2600    4.3200 C.3       9 GLL5        0.0000 
      6 CA          5.2600   15.5600    5.0000 C.3       6 GLP5        0.0000 
      7 N           6.5800   22.1600    5.7800 N.am      2 SEC2        0.0000 
      8 N           6.3300   20.6900    5.8500 N.am      8 SEL2        0.0000 
      9 N           6.8300   23.6300    5.7100 N.am      5 SEP2        0.0000 
     10 CA         10.3550   21.7300    6.7700 C.3       3 GLC5        0.0000 
     11 CA          9.4300   20.9600    4.8700 C.3       9 GLL5        0.0000 
     12 CA         11.2800   22.5000    8.6700 C.3       6 GLP5        0.0000 
     13 CA          8.4750   21.9600    6.4100 C.3       3 GLC5        0.0000 
     14 CA          7.5200   22.9600    7.9500 C.3       6 GLP5        0.0000 
     15 CA          7.8850   22.3850    4.0800 C.3       3 GLC5        0.0000 
     16 CA          6.3400   23.8100    3.2900 C.3       6 GLP5        0.0000 
     17 CA          9.8450   17.1300    3.2850 C.3       3 GLC5        0.0000 
     18 CA          9.9600   18.6700    4.0700 C.3       9 GLL5        0.0000 
     19 CA          9.7300   15.5900    2.5000 C.3       6 GLP5        0.0000 
     20 CA         11.8750   17.9900    3.3100 C.3       3 GLC5        0.0000 
     21 CA         13.7900   17.3100    2.5500 C.3       6 GLP5        0.0000 
     22 O           7.1500   17.2300    6.0200 O.2       1 ALC1        0.0000 
     23 O           6.6600   18.6000    6.5300 O.2       7 ALL1        0.0000 
     24 O           7.6400   15.8600    5.5100 O.2       4 ALP1        0.0000 
     25 CA          6.9300   20.8850    7.9550 C.3       3 GLC5        0.0000 
     26 CA          6.3400   18.8100    7.9600 C.3       9 GLL5        0.0000 
     27 N           6.7800   15.5900    8.2850 N.am      2 SEC2        0.0000 
     28 N           7.2900   16.8200    8.9200 N.am      8 SEL2        0.0000 
     29 N           6.2700   14.3600    7.6500 N.am      5 SEP2        0.0000 
     30 CA          2.6850   17.9200    9.8250 C.3       3 GLC5        0.0000 
     31 CA          4.5900   18.6000    9.7800 C.3       9 GLL5        0.0000 
     32 CA          0.7800   17.2400    9.8700 C.3       6 GLP5        0.0000 
     33 CA          4.1200   20.0700   11.0750 C.3       3 GLC5        0.0000 
     34 CA          3.6500   21.5400   12.3700 C.3       6 GLP5        0.0000 
     35 CA          4.4450   21.1100    8.0050 C.3       3 GLC5        0.0000 
     36 CA          3.8600   19.0600    7.4400 C.3       9 GLL5        0.0000 
     37 CA          5.0300   23.1600    8.5700 C.3       6 GLP5        0.0000 
     38 CA          2.3200   18.1500    8.6550 C.3       3 GLC5        0.0000 
     39 O           9.8700   17.7300   14.5900 O.2       1 ALC1        0.0000 
     40 O           9.2800   16.5900   13.9100 O.2       7 ALL1        0.0000 
     41 O          10.4600   18.8700   15.2700 O.2       4 ALP1        0.0000 
     42 N           6.8350   16.6600   17.0950 N.am      2 SEC2        0.0000 
     43 N           7.4900   16.1000   16.0800 N.am      8 SEL2        0.0000 
     44 N           6.1800   17.2200   18.1100 N.am      5 SEP2        0.0000 
     45 CA         11.8750   16.1250   14.9750 C.3       3 GLC5        0.0000 
     46 CA         10.3700   15.1000   15.5900 C.3       9 GLL5        0.0000 
     47 CA         13.3800   17.1500   14.3600 C.3       6 GLP5        0.0000 
     48 CA          5.3600   22.3850    2.2150 C.3       3 GLC5        0.0000 
     49 CA          4.3800   20.9600    1.1400 C.3       9 GLL5        0.0000 
     50 CA          1.9600   22.2900    2.2650 C.3       3 GLC5        0.0000 
     51 CA          3.0400   20.5100    1.7400 C.3       9 GLL5        0.0000 
     52 CA          0.8800   24.0700    2.7900 C.3       6 GLP5        0.0000 
     53 CA         11.0400   20.4650    8.9200 C.3       3 GLC5        0.0000 
     54 CA         10.8000   18.4300    9.1700 C.3       9 GLL5        0.0000 
     55 CA         11.2550   16.0850    9.7000 C.3       3 GLC5        0.0000 
     56 CA         11.3600   17.5000    8.0800 C.3       9 GLL5        0.0000 
     57 CA         11.1500   14.6700   11.3200 C.3       6 GLP5        0.0000 
     58 CA         13.4400   19.7600    6.9200 C.3       3 GLC5        0.0000 
     59 CA         11.9600   18.3800    6.9900 C.3       9 GLL5        0.0000 
     60 CA         14.9200   21.1400    6.8500 C.3       6 GLP5        0.0000 
     61 CA         12.8650   17.3350    5.2600 C.3       3 GLC5        0.0000 
     62 CA         13.7700   16.2900    3.5300 C.3       6 GLP5        0.0000 
     63 CA          9.8150   15.1000    8.7100 C.3       3 GLC5        0.0000 
     64 CA         10.4200   16.5200    7.4200 C.3       9 GLL5        0.0000 
     65 CA          9.2100   13.6800   10.0000 C.3       6 GLP5        0.0000 
     66 N           9.0300   21.0000   11.7500 N.am      2 SEC2        0.0000 
     67 N           9.8500   20.0300   11.3100 N.am      8 SEL2        0.0000 
     68 N           8.2100   21.9700   12.1900 N.am      5 SEP2        0.0000 
     69 O          11.1050   20.4900   11.4100 O.2       1 ALC1        0.0000 
     70 O           9.8500   20.0300   11.3100 O.2       7 ALL1        0.0000 
     71 O          12.3600   20.9500   11.5100 O.2       4 ALP1        0.0000 
     72 O          11.4100   19.4250   11.4850 O.2       1 ALC1        0.0000 
     73 O          12.9700   18.8200   11.6600 O.2       4 ALP1        0.0000 
     74 N           7.0450   15.2350   11.3600 N.am      2 SEC2        0.0000 
     75 N           7.8100   16.0400   12.3100 N.am      8 SEL2        0.0000 
     76 N           6.2800   14.4300   10.4100 N.am      5 SEP2        0.0000 
     77 CA          4.4000   13.9300   11.3600 C.3       3 GLC5        0.0000 
     78 CA          3.8000   13.2000   13.0100 C.3       9 GLL5        0.0000 
     79 CA          5.0000   14.6600    9.7100 C.3       6 GLP5        0.0000 
     80 CA          2.5750   14.5100   11.8950 C.3       3 GLC5        0.0000 
     81 CA          1.3500   15.8200   10.7800 C.3       6 GLP5        0.0000 
     82 CA          4.8200   14.9700   11.9050 C.3       3 GLC5        0.0000 
     83 CA          4.6400   15.2800   14.1000 C.3       9 GLL5        0.0000 
     84 CA          3.7200   16.8900   14.6250 C.3       3 GLC5        0.0000 
     85 CA          2.8000   18.5000   15.1500 C.3       6 GLP5        0.0000 
     86 CA         10.6250   20.3287    2.6987 C.3       3 GLC5        0.0000 
     87 CA         11.6800   21.1400    1.1300 C.3       6 GLP5        0.0000 
     88 CA          4.8725   16.5700    9.3775 C.3       3 GLC5        0.0000 
     89 CA          4.9000   18.3600    8.3100 C.3       9 GLL5        0.0000 
     90 CA          4.8200   17.1350    6.4375 C.3       3 GLC5        0.0000 
     91 CA         10.4625   14.9350   13.2175 C.3       3 GLC5        0.0000 
     92 CA          9.1800   15.3000   14.6400 C.3       9 GLL5        0.0000 
     93 CA          5.1275   22.9375   -0.0600 C.3       3 GLC5        0.0000 
     94 CA          5.9700   24.7100   -0.5300 C.3       6 GLP5        0.0000 
     95 CA         12.7400   16.1100    7.8588 C.3       3 GLC5        0.0000 
     96 CA         14.4400   14.9900    8.2400 C.3       6 GLP5        0.0000 
     97 CA         10.0100   19.8025   13.2800 C.3       3 GLC5        0.0000 
     98 CA          9.6500   18.6100   11.4100 C.3       9 GLL5        0.0000 
     99 CA         10.9500   21.1400   14.6700 C.3       6 GLP5        0.0000 
    100 CA         10.5312   16.5500   10.9062 C.3       3 GLC5        0.0000 
@<TRIPOS>BOND
@<TRIPOS>SUBSTRUCTURE
     1 ALC1        1 GROUP        1 X    ALC  0     ROOT ALC X 1
     2 SEC2        7 GROUP        1 X    SEC  0     **** SEC X 2
     3 GLC5        4 GROUP        1 X    GLC  0     **** GLC X 6
     4 ALP1        3 GROUP        1 Y    ALP  0     ROOT ALP Y 8
     5 SEP2        9 GROUP        1 Y    SEP  0     **** SEP Y 9
     6 GLP5        6 GROUP        1 Y    GLP  0     **** GLP Y 13
     7 ALL1        2 GROUP        1 Z    ALL  0     ROOT ALL Z 15
     8 SEL2        8 GROUP        1 Z    SEL  0     **** SEL Z 16
     9 GLL5        5 GROUP        1 Z    GLL  0     **** GLL Z 20
@<TRIPOS>SET

