#    Name: 1pso_VAL_VAL_ALA_IVA_STA_STA_1_ligand
#    Modification time : Mon Mar 24 22:14:53 2014

@<TRIPOS>MOLECULE
1pso_VAL_VAL_ALA_IVA_STA_STA_1_ligand
  108   107     6     0     0
SMALL
NO_CHARGES


@<TRIPOS>ATOM
      1 N           6.7400   19.8900    3.2200 N.am      1 VAL2        0.0000
      2 CA          7.4900   19.2600    4.3200 C.3       1 VAL2        0.0000
      3 C           6.8500   19.6000    5.6800 C.2       1 VAL2        0.0000
      4 O           6.3300   20.6900    5.8500 O.2       1 VAL2        0.0000
      5 CB          8.9300   19.7700    4.0600 C.3       1 VAL2        0.0000
      6 CG1         9.4300   20.9600    4.8700 C.3       1 VAL2        0.0000
      7 CG2         9.9600   18.6700    4.0700 C.3       1 VAL2        0.0000
      8 HNCA        7.0587   20.8682    2.9845 H         1 VAL2        0.0000
      9 HA          7.4872   18.1926    4.1598 H         1 VAL2        0.0000
     10 HB          8.9233   20.1388    2.9637 H         1 VAL2        0.0000
     11 H          10.3666   21.2095    4.6240 H         1 VAL2        0.0000
     12 H           8.8633   21.7713    4.7266 H         1 VAL2        0.0000
     13 H           9.4257   20.7693    5.8516 H         1 VAL2        0.0000
     14 HG21       10.8805   19.0216    3.8998 H         1 VAL2        0.0000
     15 HG22        9.9860   18.1936    4.9488 H         1 VAL2        0.0000
     16 HG23        9.7749   17.9815    3.3687 H         1 VAL2        0.0000
     17 N           6.6600   18.6000    6.5300 N.am      2 VAL3        0.0000
     18 CA          6.3400   18.8100    7.9600 C.3       2 VAL3        0.0000
     19 C           7.3900   18.0300    8.7900 C.2       2 VAL3        0.0000
     20 O           7.2900   16.8200    8.9200 O.2       2 VAL3        0.0000
     21 CB          4.9000   18.3600    8.3100 C.3       2 VAL3        0.0000
     22 CG1         4.5900   18.6000    9.7800 C.3       2 VAL3        0.0000
     23 CG2         3.8600   19.0600    7.4400 C.3       2 VAL3        0.0000
     24 HNCA        6.7251   17.5962    6.2400 H         2 VAL3        0.0000
     25 HA          6.4455   19.8573    8.2081 H         2 VAL3        0.0000
     26 HB          4.8318   17.2860    8.1211 H         2 VAL3        0.0000
     27 H           5.2149   18.0982   10.3781 H         2 VAL3        0.0000
     28 H           4.6656   19.5672   10.0224 H         2 VAL3        0.0000
     29 H           3.6624   18.3103   10.0161 H         2 VAL3        0.0000
     30 HG21        3.8901   20.0533    7.5518 H         2 VAL3        0.0000
     31 HG22        4.0001   18.8700    6.4683 H         2 VAL3        0.0000
     32 HG23        2.9304   18.7678    7.6647 H         2 VAL3        0.0000
     33 N           9.2800   16.5900   13.9100 N.am      3 ALA5        0.0000
     34 CA          9.1800   15.3000   14.6400 C.3       3 ALA5        0.0000
     35 C           7.9000   15.1500   15.4500 C.2       3 ALA5        0.0000
     36 O           7.4900   16.1000   16.0800 O.2       3 ALA5        0.0000
     37 CB         10.3700   15.1000   15.5900 C.3       3 ALA5        0.0000
     38 H          10.0101   17.2371   14.2567 H         3 ALA5        0.0000
     39 HA          9.2137   14.4684   13.9211 H         3 ALA5        0.0000
     40 HB1        11.2411   15.0985   15.0989 H         3 ALA5        0.0000
     41 HB2        10.4223   15.8244   16.2774 H         3 ALA5        0.0000
     42 HB3        10.3099   14.2320   16.0829 H         3 ALA5        0.0000
     43 CA          5.4700   19.8900    1.1900 C.3       4 IVA1        0.0000
     44 CB          4.3800   20.9600    1.1400 C.3       4 IVA1        0.0000
     45 CG1         4.1900   21.3700   -0.3200 C.3       4 IVA1        0.0000
     46 CG2         3.0400   20.5100    1.7400 C.3       4 IVA1        0.0000
     47 C           5.7600   19.3000    2.5800 C.2       4 IVA1        0.0000
     48 O           4.9500   18.5700    3.1500 O.co2     4 IVA1        0.0000
     49 H           6.4102   20.3170    0.7861 H         4 IVA1        0.0000
     50 H           5.1908   19.0618    0.5077 H         4 IVA1        0.0000
     51 H           4.7309   21.8345    1.6808 H         4 IVA1        0.0000
     52 H           5.0315   21.7388   -0.7147 H         4 IVA1        0.0000
     53 H           3.9134   20.5963   -0.8900 H         4 IVA1        0.0000
     54 H           3.4866   22.0737   -0.4196 H         4 IVA1        0.0000
     55 H           3.1301   20.2595    2.7039 H         4 IVA1        0.0000
     56 H           2.3490   21.2309    1.6879 H         4 IVA1        0.0000
     57 H           2.6687   19.7131    1.2635 H         4 IVA1        0.0000
     58 N           8.4100   18.7000    9.2900 N.4       5 STA4        0.0000
     59 CA          9.5500   18.0700    9.9800 C.3       5 STA4        0.0000
     60 CB         10.8000   18.4300    9.1700 C.3       5 STA4        0.0000
     61 CG         11.3600   17.5000    8.0800 C.3       5 STA4        0.0000
     62 CD1        11.9600   18.3800    6.9900 C.3       5 STA4        0.0000
     63 CD2        10.4200   16.5200    7.4200 C.3       5 STA4        0.0000
     64 CH          9.6500   18.6100   11.4100 C.3       5 STA4        0.0000
     65 OH          9.8500   20.0300   11.3100 O.3       5 STA4        0.0000
     66 CM          8.4900   18.3200   12.3700 C.3       5 STA4        0.0000
     67 C           8.4800   16.8700   12.8900 C.2       5 STA4        0.0000
     68 O           7.8100   16.0400   12.3100 O.co2     5 STA4        0.0000
     69 H           9.4398   17.0157    9.9972 H         5 STA4        0.0000
     70 H          11.6419   18.6450    9.9051 H         5 STA4        0.0000
     71 H          10.6267   19.4504    8.6964 H         5 STA4        0.0000
     72 H          12.2087   16.9443    8.5124 H         5 STA4        0.0000
     73 H          10.5705   18.1743   11.8561 H         5 STA4        0.0000
     74 H           7.5411   18.5178   11.8560 H         5 STA4        0.0000
     75 H           8.5543   19.0024   13.2267 H         5 STA4        0.0000
     76 H          12.6942   18.9599    7.3431 H         5 STA4        0.0000
     77 H          12.3480   17.8366    6.2456 H         5 STA4        0.0000
     78 H          11.2765   18.9869    6.5845 H         5 STA4        0.0000
     79 H          10.8849   15.9683    6.7275 H         5 STA4        0.0000
     80 H          10.0212   15.8849    8.0815 H         5 STA4        0.0000
     81 H           9.6603   16.9836    6.9640 H         5 STA4        0.0000
     82 H          10.8402   20.1566   11.3696 H         5 STA4        0.0000
     83 N           7.3800   13.9200   15.4800 N.4       6 STA6        0.0000
     84 CA          6.0800   13.5300   16.0900 C.3       6 STA6        0.0000
     85 CB          5.2300   12.9100   14.9900 C.3       6 STA6        0.0000
     86 CG          4.2000   13.8300   14.3400 C.3       6 STA6        0.0000
     87 CD1         3.8000   13.2000   13.0100 C.3       6 STA6        0.0000
     88 CD2         4.6400   15.2800   14.1000 C.3       6 STA6        0.0000
     89 CH          6.1400   12.5300   17.2700 C.3       6 STA6        0.0000
     90 OH          7.1000   11.5000   16.9900 O.3       6 STA6        0.0000
     91 CM          6.3700   13.1400   18.6700 C.3       6 STA6        0.0000
     92 C           7.8200   13.4800   19.0300 C.2       6 STA6        0.0000
     93 O           8.4200   12.6800   19.7900 O.co2     6 STA6        0.0000
     94 OXT         8.2400   14.6100   18.7200 O.co2     6 STA6        0.0000
     95 H           5.5474   14.4208   16.4271 H         6 STA6        0.0000
     96 H           4.7020   12.0223   15.4032 H         6 STA6        0.0000
     97 H           5.9032   12.5150   14.1973 H         6 STA6        0.0000
     98 H           3.3007   13.8362   14.9642 H         6 STA6        0.0000
     99 H           5.1226   12.0427   17.3065 H         6 STA6        0.0000
    100 H           5.9689   12.4351   19.4282 H         6 STA6        0.0000
    101 H           5.7549   14.0603   18.7552 H         6 STA6        0.0000
    102 H           4.5840   13.0949   12.3981 H         6 STA6        0.0000
    103 H           3.4014   12.2913   13.1344 H         6 STA6        0.0000
    104 H           3.1224   13.7535   12.5258 H         6 STA6        0.0000
    105 H           4.8882   15.7388   14.9531 H         6 STA6        0.0000
    106 H           5.4361   15.3316   13.4971 H         6 STA6        0.0000
    107 H           3.9152   15.8226   13.6755 H         6 STA6        0.0000
    108 H           7.7581   11.5486   17.7414 H         6 STA6        0.0000
@<TRIPOS>BOND
     1    2    1 1
     2    8    1 1
     3    3    2 1
     4    5    2 1
     5    9    2 1
     6    4    3 2
     7    6    5 1
     8    7    5 1
     9   10    5 1
    10   11    6 1
    11   12    6 1
    12   13    6 1
    13   14    7 1
    14   15    7 1
    15   16    7 1
    16   18   17 1
    17   24   17 1
    18   19   18 1
    19   21   18 1
    20   25   18 1
    21   20   19 2
    22   22   21 1
    23   23   21 1
    24   26   21 1
    25   27   22 1
    26   28   22 1
    27   29   22 1
    28   30   23 1
    29   31   23 1
    30   32   23 1
    31   34   33 1
    32   38   33 1
    33   35   34 1
    34   37   34 1
    35   39   34 1
    36   36   35 2
    37   40   37 1
    38   41   37 1
    39   42   37 1
    40   44   43 1
    41   47   43 1
    42   49   43 1
    43   50   43 1
    44   45   44 1
    45   46   44 1
    46   51   44 1
    47   52   45 1
    48   53   45 1
    49   54   45 1
    50   55   46 1
    51   56   46 1
    52   57   46 1
    53   48   47 ar
    54   59   58 1
    55   60   59 1
    56   64   59 1
    57   69   59 1
    58   61   60 1
    59   70   60 1
    60   71   60 1
    61   62   61 1
    62   63   61 1
    63   72   61 1
    64   76   62 1
    65   77   62 1
    66   78   62 1
    67   79   63 1
    68   80   63 1
    69   81   63 1
    70   65   64 1
    71   66   64 1
    72   73   64 1
    73   82   65 1
    74   67   66 1
    75   74   66 1
    76   75   66 1
    77   68   67 ar
    78   84   83 1
    79   85   84 1
    80   89   84 1
    81   95   84 1
    82   86   85 1
    83   96   85 1
    84   97   85 1
    85   87   86 1
    86   88   86 1
    87   98   86 1
    88  102   87 1
    89  103   87 1
    90  104   87 1
    91  105   88 1
    92  106   88 1
    93  107   88 1
    94   90   89 1
    95   91   89 1
    96   99   89 1
    97  108   90 1
    98   92   91 1
    99  100   91 1
   100  101   91 1
   101   93   92 ar
   102   94   92 ar
   103   47    1 1 
   104   17    3 am
   105   58   19 1 
   106   67   33 1 
   107   83   35 1 
@<TRIPOS>SUBSTRUCTURE
     1 VAL2        1 RESIDUE
     2 VAL3       17 RESIDUE
     3 ALA5       33 RESIDUE
     4 IVA1       43 GROUP
     5 STA4       58 GROUP
     6 STA6       83 GROUP
@<TRIPOS>SET

