#    Name: 3l17_JZY_1_INTS_M
#    Modification time : Mon Mar 24 20:47:18 2014

@<TRIPOS>MOLECULE
3l17_JZY_1_INTS_M
   77     0     9     0     0
SMALL
NO_CHARGES


@<TRIPOS>ATOM
      1 CA         21.9825   61.8355   20.3580 C.3       3 GLC5        0.0000 
      2 CA         23.5580   62.9360   21.3490 C.3       9 GLL5        0.0000 
      3 CA         20.4070   60.7350   19.3670 C.3       6 GLP5        0.0000 
      4 CA         23.7515   64.0780   22.8840 C.3       3 GLC5        0.0000 
      5 CA         23.9450   65.2200   24.4190 C.3       6 GLP5        0.0000 
      6 CA         17.7805   62.6195   21.3120 C.3       3 GLC5        0.0000 
      7 CA         19.0120   62.0150   22.8970 C.3       9 GLL5        0.0000 
      8 CA         16.5490   63.2240   19.7270 C.3       6 GLP5        0.0000 
      9 CA         19.7095   61.3750   21.1320 C.3       3 GLC5        0.0000 
     10 CA         17.2435   60.7430   22.5145 C.3       3 GLC5        0.0000 
     11 CA         15.4750   59.4710   22.1320 C.3       6 GLP5        0.0000 
     12 CA         17.9020   59.7660   23.5835 C.3       3 GLC5        0.0000 
     13 CA         18.6060   61.6780   24.3180 C.3       9 GLL5        0.0000 
     14 CA         17.1980   57.8540   22.8490 C.3       6 GLP5        0.0000 
     15 CA         17.8455   60.3990   25.9470 C.3       3 GLC5        0.0000 
     16 CA         17.0850   59.1200   27.5760 C.3       6 GLP5        0.0000 
     17 CA         19.1100   61.8580   26.4515 C.3       3 GLC5        0.0000 
     18 CA         19.6140   62.0380   28.5850 C.3       6 GLP5        0.0000 
     19 N          17.9375   59.3855   24.8835 N.am      2 SEC2        0.0000 
     20 N          18.9250   60.3220   24.5730 N.am      8 SEL2        0.0000 
     21 N          16.9500   58.4490   25.1940 N.am      5 SEP2        0.0000 
     22 CA         21.4715   58.6170   25.6010 C.3       3 GLC5        0.0000 
     23 CA         20.3310   60.1420   24.6430 C.3       9 GLL5        0.0000 
     24 CA         22.6120   57.0920   26.5590 C.3       6 GLP5        0.0000 
     25 CA         18.7645   58.9980   23.7460 C.3       3 GLC5        0.0000 
     26 CA         19.2465   59.1580   26.3300 C.3       3 GLC5        0.0000 
     27 CA         18.1620   58.1740   28.0170 C.3       6 GLP5        0.0000 
     28 CA         20.6330   60.9025   26.5605 C.3       3 GLC5        0.0000 
     29 CA         20.9350   61.6630   28.4780 C.3       6 GLP5        0.0000 
     30 CA         21.9125   61.4790   25.4835 C.3       3 GLC5        0.0000 
     31 CA         23.4940   62.8160   26.3240 C.3       6 GLP5        0.0000 
     32 CA         20.6900   60.5970   21.3375 C.3       3 GLC5        0.0000 
     33 CA         20.9730   60.4590   23.3080 C.3       9 GLL5        0.0000 
     34 CA         21.9235   58.9365   22.5110 C.3       3 GLC5        0.0000 
     35 CA         22.8740   57.4140   21.7140 C.3       6 GLP5        0.0000 
     36 CA         26.4960   63.1835   22.1310 C.3       3 GLC5        0.0000 
     37 CA         24.8720   62.2870   21.0840 C.3       9 GLL5        0.0000 
     38 CA         28.1200   64.0800   23.1780 C.3       6 GLP5        0.0000 
     39 CA         25.1495   62.3455   23.8685 C.3       3 GLC5        0.0000 
     40 CA         25.4720   61.4980   22.0570 C.3       9 GLL5        0.0000 
     41 CA         24.8270   63.1930   25.6800 C.3       6 GLP5        0.0000 
     42 CA         26.9660   62.0880   22.8875 C.3       3 GLC5        0.0000 
     43 CA         28.4600   62.6780   23.7180 C.3       6 GLP5        0.0000 
     44 CA         27.3105   61.2410   18.5475 C.3       3 GLC5        0.0000 
     45 CA         27.2830   61.1010   20.6160 C.3       9 GLL5        0.0000 
     46 CA         27.3380   61.3810   16.4790 C.3       6 GLP5        0.0000 
     47 CA         26.2160   59.7085   20.2735 C.3       3 GLC5        0.0000 
     48 CA         25.1490   58.3160   19.9310 C.3       6 GLP5        0.0000 
     49 CA         27.8715   61.8895   22.1670 C.3       3 GLC5        0.0000 
     50 O          29.4205   61.3775   19.4875 O.2       1 ALC1        0.0000 
     51 O          28.4700   60.5000   20.4300 O.2       7 ALL1        0.0000 
     52 O          30.3710   62.2550   18.5450 O.2       4 ALP1        0.0000 
     53 CA         19.1925   66.6770   23.3105 C.3       3 GLC5        0.0000 
     54 CA         19.5980   67.6370   21.3320 C.3       9 GLL5        0.0000 
     55 CA         18.7870   65.7170   25.2890 C.3       6 GLP5        0.0000 
     56 CA         17.0435   65.2830   19.8075 C.3       3 GLC5        0.0000 
     57 CA         17.5380   67.3420   19.8880 C.3       9 GLL5        0.0000 
     58 N          15.2400   66.4345   16.3370 N.am      2 SEC2        0.0000 
     59 N          16.3590   67.1420   16.4280 N.am      8 SEL2        0.0000 
     60 N          14.1210   65.7270   16.2460 N.am      5 SEP2        0.0000 
     61 N          19.2845   68.2705   14.5525 N.am      2 SEC2        0.0000 
     62 N          18.3910   67.9480   15.6770 N.am      8 SEL2        0.0000 
     63 N          20.1780   68.5930   13.4280 N.am      5 SEP2        0.0000 
     64 CA         20.8242   62.0385   20.7090 C.3       3 GLC5        0.0000 
     65 CA         21.1230   64.0510   21.8760 C.3       9 GLL5        0.0000 
     66 CA         20.7182   64.0700   23.9420 C.3       3 GLC5        0.0000 
     67 CA         21.3600   62.6330   22.2260 C.3       9 GLL5        0.0000 
     68 CA         20.1950   64.7980   25.8330 C.3       6 GLP5        0.0000 
     69 CA         22.5932   64.2810   23.2350 C.3       3 GLC5        0.0000 
     70 CA         22.9802   65.3665   22.7718 C.3       3 GLC5        0.0000 
     71 CA         22.1940   64.8350   21.2690 C.3       9 GLL5        0.0000 
     72 CA         19.4660   65.7207   23.4970 C.3       3 GLC5        0.0000 
     73 CA         20.5130   66.4350   21.3680 C.3       9 GLL5        0.0000 
     74 CA         19.5020   63.3222   24.7203 C.3       3 GLC5        0.0000 
     75 CA         26.3130   62.1215   17.8490 C.3       3 GLC5        0.0000 
     76 CA         25.5740   62.4490   19.7770 C.3       9 GLL5        0.0000 
     77 CA         25.2610   60.2434   20.3024 C.3       3 GLC5        0.0000 
@<TRIPOS>BOND
@<TRIPOS>SUBSTRUCTURE
     1 ALC1       50 GROUP        1 X    ALC  0     ROOT ALC X 1
     2 SEC2       19 GROUP        1 X    SEC  0     **** SEC X 2
     3 GLC5        1 GROUP        1 X    GLC  0     **** GLC X 6
     4 ALP1       52 GROUP        1 Y    ALP  0     ROOT ALP Y 8
     5 SEP2       21 GROUP        1 Y    SEP  0     **** SEP Y 9
     6 GLP5        3 GROUP        1 Y    GLP  0     **** GLP Y 13
     7 ALL1       51 GROUP        1 Z    ALL  0     ROOT ALL Z 15
     8 SEL2       20 GROUP        1 Z    SEL  0     **** SEL Z 16
     9 GLL5        2 GROUP        1 Z    GLL  0     **** GLL Z 20
@<TRIPOS>SET

