#    Name: 3l17_JZY_1_ligand
#    Modification time : Mon Mar 24 20:47:19 2014

@<TRIPOS>MOLECULE
3l17_JZY_1_ligand
   63    67     1     0     0
SMALL
NO_CHARGES


@<TRIPOS>ATOM
      1 C1         21.3600   62.6330   22.2260 C.ar      1 JZY1        0.0000 
      2 N2         22.5940   62.1710   21.9250 N.ar      1 JZY1        0.0000 
      3 C3         23.5580   62.9360   21.3490 C.ar      1 JZY1        0.0000 
      4 N4         23.3780   64.2520   21.0310 N.ar      1 JZY1        0.0000 
      5 C5         22.1940   64.8350   21.2690 C.ar      1 JZY1        0.0000 
      6 C6         21.1230   64.0510   21.8760 C.ar      1 JZY1        0.0000 
      7 S7         19.7770   65.0140   22.0420 S.3       1 JZY1        0.0000 
      8 C8         20.5130   66.4350   21.3680 C.2       1 JZY1        0.0000 
      9 C9         21.8370   66.1910   20.9800 C.2       1 JZY1        0.0000 
     10 N10        20.4430   61.7420   22.8160 N.3       1 JZY1        0.0000 
     11 C11        19.0120   62.0150   22.8970 C.3       1 JZY1        0.0000 
     12 C12        18.6060   61.6780   24.3180 C.3       1 JZY1        0.0000 
     13 O13        18.9250   60.3220   24.5730 O.3       1 JZY1        0.0000 
     14 C14        20.3310   60.1420   24.6430 C.3       1 JZY1        0.0000 
     15 C15        20.9730   60.4590   23.3080 C.3       1 JZY1        0.0000 
     16 C16        24.8720   62.2870   21.0840 C.ar      1 JZY1        0.0000 
     17 C17        25.4720   61.4980   22.0570 C.ar      1 JZY1        0.0000 
     18 N18        26.6560   60.9300   21.8030 N.ar      1 JZY1        0.0000 
     19 C19        27.2830   61.1010   20.6160 C.ar      1 JZY1        0.0000 
     20 N20        26.7600   61.8390   19.6120 N.ar      1 JZY1        0.0000 
     21 C21        25.5740   62.4490   19.7770 C.ar      1 JZY1        0.0000 
     22 C22        25.0020   63.2750   18.6610 C.3       1 JZY1        0.0000 
     23 N23        28.4700   60.5000   20.4300 N.pl3     1 JZY1        0.0000 
     24 C24        19.5980   67.6370   21.3320 C.3       1 JZY1        0.0000 
     25 N25        18.9510   67.7000   20.0280 N.4       1 JZY1        0.0000 
     26 C26        17.5380   67.3420   19.8880 C.3       1 JZY1        0.0000 
     27 C27        16.8560   68.4380   19.0590 C.3       1 JZY1        0.0000 
     28 N28        17.7010   68.6440   17.8850 N.pl3     1 JZY1        0.0000 
     29 C29        19.0200   69.2020   18.1400 C.3       1 JZY1        0.0000 
     30 C30        19.7560   68.0880   18.8690 C.3       1 JZY1        0.0000 
     31 S31        17.2390   68.2910   16.4650 S.o2      1 JZY1        0.0000 
     32 O32        16.3590   67.1420   16.4280 O.2       1 JZY1        0.0000 
     33 O33        18.3910   67.9480   15.6770 O.2       1 JZY1        0.0000 
     34 C34        16.4730   69.6510   15.8760 C.3       1 JZY1        0.0000 
     35 H          22.4263   66.8227   20.5814 H         1 JZY1        0.0000 
     36 H          18.4565   61.3895   22.2176 H         1 JZY1        0.0000 
     37 H          18.8023   63.0557   22.7115 H         1 JZY1        0.0000 
     38 H          17.5333   61.8725   24.4176 H         1 JZY1        0.0000 
     39 H          19.1381   62.3579   24.9912 H         1 JZY1        0.0000 
     40 H          20.5963   59.1061   24.9077 H         1 JZY1        0.0000 
     41 H          20.7882   60.7971   25.4015 H         1 JZY1        0.0000 
     42 H          22.0518   60.5164   23.4408 H         1 JZY1        0.0000 
     43 H          20.7447   59.6572   22.6082 H         1 JZY1        0.0000 
     44 H          24.9893   61.3654   22.9610 H         1 JZY1        0.0000 
     45 H          28.6104   59.6412   20.9226 H         1 JZY1        0.0000 
     46 H          29.1072   60.9652   19.8155 H         1 JZY1        0.0000 
     47 H          20.1910   68.5339   21.5159 H         1 JZY1        0.0000 
     48 H          18.8592   67.5385   22.1286 H         1 JZY1        0.0000 
     49 H          18.6001   69.0735   20.2587 H         1 JZY1        0.0000 
     50 H          17.0496   67.2905   20.8533 H         1 JZY1        0.0000 
     51 H          17.4226   66.3991   19.3679 H         1 JZY1        0.0000 
     52 H          16.7925   69.3296   19.6593 H         1 JZY1        0.0000 
     53 H          15.8741   68.0942   18.7815 H         1 JZY1        0.0000 
     54 H          18.9679   70.0583   18.7803 H         1 JZY1        0.0000 
     55 H          19.5380   69.4197   17.2288 H         1 JZY1        0.0000 
     56 H          19.8848   67.2534   18.1880 H         1 JZY1        0.0000 
     57 H          20.7282   68.4578   19.1770 H         1 JZY1        0.0000 
     58 H          24.8691   64.2277   18.9345 H         1 JZY1        0.0000 
     59 H          25.5997   63.2809   17.8593 H         1 JZY1        0.0000 
     60 H          24.1128   62.9294   18.3612 H         1 JZY1        0.0000 
     61 H          17.0852   70.4413   15.8528 H         1 JZY1        0.0000 
     62 H          16.1363   69.5135   14.9445 H         1 JZY1        0.0000 
     63 H          15.6859   69.9064   16.4374 H         1 JZY1        0.0000 
@<TRIPOS>BOND
     1    2    1 ar   
     2    6    1 ar   
     3   10    1 1    
     4    3    2 ar   
     5    4    3 ar   
     6   16    3 1    
     7    5    4 ar   
     8    6    5 ar   
     9    9    5 1    
    10    7    6 1    
    11    8    7 1    
    12    9    8 2    
    13   24    8 1    
    14   35    9 1    
    15   11   10 1    
    16   15   10 1    
    17   12   11 1    
    18   36   11 1    
    19   37   11 1    
    20   13   12 1    
    21   38   12 1    
    22   39   12 1    
    23   14   13 1    
    24   15   14 1    
    25   40   14 1    
    26   41   14 1    
    27   42   15 1    
    28   43   15 1    
    29   17   16 ar   
    30   21   16 ar   
    31   18   17 ar   
    32   44   17 1    
    33   19   18 ar   
    34   20   19 ar   
    35   23   19 1    
    36   21   20 ar   
    37   22   21 1    
    38   58   22 1    
    39   59   22 1    
    40   60   22 1    
    41   45   23 1    
    42   46   23 1    
    43   25   24 1    
    44   47   24 1    
    45   48   24 1    
    46   26   25 1    
    47   30   25 1    
    48   49   25 1    
    49   27   26 1    
    50   50   26 1    
    51   51   26 1    
    52   28   27 1    
    53   52   27 1    
    54   53   27 1    
    55   29   28 1    
    56   31   28 1    
    57   30   29 1    
    58   54   29 1    
    59   55   29 1    
    60   56   30 1    
    61   57   30 1    
    62   32   31 2    
    63   33   31 2    
    64   34   31 1    
    65   61   34 1    
    66   62   34 1    
    67   63   34 1    
@<TRIPOS>SUBSTRUCTURE
     1 JZY1        1 GROUP   
@<TRIPOS>SET

