#    Name: 2E92_1_CAVITY_N1_6.mol2
#    Modification time : Tue Mar 11 10:16:49 2014

@<TRIPOS>MOLECULE
2E92_1_CAVITY_N1_6.mol2
   90     0     7     0     0
SMALL
NO_CHARGES


@<TRIPOS>ATOM
      1 CA         30.2193   46.3830   12.0269 C.3       6 GLY6        0.0000 
      2 CA         29.8333   47.7574   11.5664 C.3       6 GLY6        0.0000 
      3 N          29.4472   49.1317   11.1059 N.2       2 ALA2        0.0000 
      4 CA         28.8225   46.1575   12.5250 C.3       6 GLY6        0.0000 
      5 CA         28.4365   47.5319   12.0646 C.3       6 GLY6        0.0000 
      6 CA         33.0141   48.7653   11.9079 C.3       6 GLY6        0.0000 
      7 CA         32.6280   50.1396   11.4475 C.3       6 GLY6        0.0000 
      8 CA         32.2420   51.5140   10.9870 C.3       6 GLY6        0.0000 
      9 CA         32.0033   47.1654   12.8666 C.3       6 GLY6        0.0000 
     10 CA         31.6173   48.5398   12.4061 C.3       6 GLY6        0.0000 
     11 CA         31.2312   49.9142   11.9456 C.3       6 GLY6        0.0000 
     12 N          30.8452   51.2886   11.4851 N.2       2 ALA2        0.0000 
     13 OG         30.6066   46.9400   13.3647 O.2       1 SER1        0.0000 
     14 CA         30.2205   48.3144   12.9042 C.3       6 GLY6        0.0000 
     15 N          29.8345   49.6888   12.4438 N.2       2 ALA2        0.0000 
     16 O          32.0875   45.6487    3.3828 O.2       2 ALA2        0.0000 
     17 NZ         31.7015   47.0230    2.9223 N.2       4 LYS4        0.0000 
     18 O          35.2683   46.6565    3.7243 O.2       2 ALA2        0.0000 
     19 OG         33.8715   46.4311    4.2225 O.2       1 SER1        0.0000 
     20 O          32.4747   46.2057    4.7206 O.2       2 ALA2        0.0000 
     21 OG         32.0887   47.5800    4.2601 O.2       1 SER1        0.0000 
     22 O          31.0780   45.9802    5.2188 O.2       2 ALA2        0.0000 
     23 NZ         30.6919   47.3546    4.7583 N.2       4 LYS4        0.0000 
     24 CA         30.4556   46.8688    8.3926 C.3       6 GLY6        0.0000 
     25 DU         30.0696   48.2432    7.9321 H         7 CUB7        0.0000 
     26 N          29.6835   49.6176    7.4716 N.2       2 ALA2        0.0000 
     27 NZ         29.4449   45.2690    9.3512 N.2       4 LYS4        0.0000 
     28 DU         29.0588   46.6434    8.8907 H         7 CUB7        0.0000 
     29 N          28.6728   48.0177    8.4303 N.2       2 ALA2        0.0000 
     30 OG         28.2867   49.3921    7.9698 O.2       1 SER1        0.0000 
     31 NZ         28.0481   45.0435    9.8494 N.2       4 LYS4        0.0000 
     32 N          27.6620   46.4179    9.3889 N.2       2 ALA2        0.0000 
     33 CA         27.2760   47.7923    8.9284 C.3       6 GLY6        0.0000 
     34 N          33.2504   49.2511    8.2736 N.2       2 ALA2        0.0000 
     35 CZ         32.8643   50.6254    7.8132 C.ar      5 PHE5        0.0000 
     36 N          32.2396   47.6512    9.2323 N.2       2 ALA2        0.0000 
     37 DU         31.8536   49.0256    8.7718 H         7 CUB7        0.0000 
     38 CA         31.4675   50.4000    8.3113 C.3       6 GLY6        0.0000 
     39 CA         31.2289   46.0514   10.1909 C.3       6 GLY6        0.0000 
     40 CA         30.8428   47.4258    9.7304 C.3       6 GLY6        0.0000 
     41 DU         30.4568   48.8002    9.2699 H         7 CUB7        0.0000 
     42 CA         30.0707   50.1746    8.8095 C.3       6 GLY6        0.0000 
     43 N          30.2182   44.4516   11.1495 N.2       2 ALA2        0.0000 
     44 CA         29.8321   45.8260   10.6891 C.3       6 GLY6        0.0000 
     45 DU         29.4461   47.2004   10.2286 H         7 CUB7        0.0000 
     46 OG         29.0600   48.5747    9.7681 O.2       1 SER1        0.0000 
     47 N          28.8214   44.2262   11.6477 N.2       2 ALA2        0.0000 
     48 N          28.4353   45.6005   11.1872 N.2       2 ALA2        0.0000 
     49 N          28.0493   46.9749   10.7267 N.2       2 ALA2        0.0000 
     50 CA         27.6632   48.3493   10.2662 C.3       6 GLY6        0.0000 
     51 N          33.6376   49.8081    9.6115 N.2       2 ALA2        0.0000 
     52 CZ         33.2515   51.1824    9.1510 C.ar      5 PHE5        0.0000 
     53 CA         33.0129   46.8339   11.0306 C.3       6 GLY6        0.0000 
     54 CA         32.6269   48.2082   10.5701 C.3       6 GLY6        0.0000 
     55 CA         32.2408   49.5826   10.1096 C.3       6 GLY6        0.0000 
     56 CA         31.8548   50.9570    9.6491 C.3       6 GLY6        0.0000 
     57 CA         31.6161   46.6084   11.5287 C.3       6 GLY6        0.0000 
     58 DU         31.2301   47.9828   11.0683 H         7 CUB7        0.0000 
     59 DU         30.8440   49.3572   10.6078 H         7 CUB7        0.0000 
     60 CA         30.4580   50.7316   10.1473 C.3       6 GLY6        0.0000 
     61 O          30.0672   44.3804    6.1774 O.2       2 ALA2        0.0000 
     62 NZ         29.6812   45.7548    5.7169 N.2       4 LYS4        0.0000 
     63 NZ         29.2951   47.1292    5.2564 N.2       4 LYS4        0.0000 
     64 NZ         28.2844   45.5293    6.2151 N.2       4 LYS4        0.0000 
     65 NZ         27.8983   46.9037    5.7546 N.2       4 LYS4        0.0000 
     66 O          34.6448   45.6137    6.0208 O.2       2 ALA2        0.0000 
     67 OG         34.2588   46.9881    5.5603 O.2       1 SER1        0.0000 
     68 O          33.2480   45.3883    6.5189 O.2       2 ALA2        0.0000 
     69 OG         32.8620   46.7627    6.0584 O.2       1 SER1        0.0000 
     70 CA         31.8512   45.1629    7.0171 C.3       6 GLY6        0.0000 
     71 CA         31.4652   46.5372    6.5566 C.3       6 GLY6        0.0000 
     72 OG         31.0791   47.9116    6.0961 O.2       1 SER1        0.0000 
     73 CA         30.4544   44.9374    7.5152 C.3       6 GLY6        0.0000 
     74 DU         30.0684   46.3118    7.0547 H         7 CUB7        0.0000 
     75 N          29.6823   47.6862    6.5943 N.2       2 ALA2        0.0000 
     76 N          29.2963   49.0606    6.1338 N.2       2 ALA2        0.0000 
     77 NZ         29.0577   44.7120    8.0134 N.2       4 LYS4        0.0000 
     78 NZ         28.6716   46.0863    7.5529 N.2       4 LYS4        0.0000 
     79 N          28.2855   47.4607    7.0924 N.2       2 ALA2        0.0000 
     80 OD1        27.2748   45.8609    8.0511 O.3       3 ASP3        0.0000 
     81 OD1        26.8888   47.2353    7.5906 O.3       3 ASP3        0.0000 
     82 N          36.0428   47.7706    6.4000 N.2       2 ALA2        0.0000 
     83 OG         35.6567   49.1449    5.9395 O.2       1 SER1        0.0000 
     84 N          35.0320   46.1707    7.3586 N.2       2 ALA2        0.0000 
     85 N          34.6460   47.5451    6.8981 N.2       2 ALA2        0.0000 
     86 N          33.2492   47.3197    7.3963 N.2       2 ALA2        0.0000 
     87 OG         32.8631   48.6941    6.9358 O.2       1 SER1        0.0000 
     88 CA         31.8524   47.0942    7.8944 C.3       6 GLY6        0.0000 
     89 CZ         31.4664   48.4686    7.4339 C.ar      5 PHE5        0.0000 
     90 CZ         31.0803   49.8430    6.9735 C.ar      5 PHE5        0.0000 
@<TRIPOS>BOND
@<TRIPOS>SUBSTRUCTURE
     1 SER1       13 GROUP   
     2 ALA2        3 GROUP   
     3 ASP3       80 GROUP   
     4 LYS4       17 GROUP   
     5 PHE5       35 GROUP   
     6 GLY6        1 GROUP   
     7 CUB7       25 GROUP   
@<TRIPOS>SET

