#    Name: 2e92_M0N_1_INTS_M
#    Modification time : Tue Mar 25 10:42:07 2014

@<TRIPOS>MOLECULE
2e92_M0N_1_INTS_M
   58     0    15     0     0
SMALL
NO_CHARGES


@<TRIPOS>ATOM
      1 O          28.9720   47.7505    4.1245 O.2       1 ALC1        0.0000 
      2 O          29.1470   47.3490    5.5090 O.2      11 ALL1        0.0000 
      3 O          28.7970   48.1520    2.7400 O.2       6 ALP1        0.0000 
      4 CA         31.1870   44.9235    8.1685 C.3       5 GLC5        0.0000 
      5 CA         29.4250   45.6760    7.2530 C.3      15 GLL5        0.0000 
      6 CA         32.9490   44.1710    9.0840 C.3      10 GLP5        0.0000 
      7 CA         26.3415   48.6360    8.1395 C.3       5 GLC5        0.0000 
      8 CA         28.4220   47.8990    8.1110 C.3      15 GLL5        0.0000 
      9 CA         24.2610   49.3730    8.1680 C.3      10 GLP5        0.0000 
     10 O          27.7220   50.0760    8.8555 O.2       1 ALC1        0.0000 
     11 O          28.1220   48.4370    9.2960 O.2      11 ALL1        0.0000 
     12 O          27.3220   51.7150    8.4150 O.2       6 ALP1        0.0000 
     13 CA         31.1995   44.7765    9.7700 C.3       5 GLC5        0.0000 
     14 CA         29.4500   45.3820   10.4560 C.3      15 GLL5        0.0000 
     15 N          29.1025   46.6720    2.9950 N.am      2 SEC2        0.0000 
     16 N          29.4080   45.1920    3.2500 N.am     12 SEL2        0.0000 
     17 N          28.7970   48.1520    2.7400 N.am      7 SEP2        0.0000 
     18 NZ         32.1795   44.1575    5.0985 N.4       3 LYC4        0.0000 
     19 NZ         31.3750   45.1480    4.9070 N.4      13 LYL4        0.0000 
     20 NZ         32.7200   42.0230    5.9030 N.4       8 LYP4        0.0000 
     21 N          32.1795   44.1575    5.0985 N.am      2 SEC2        0.0000 
     22 N          31.3750   45.1480    4.9070 N.am     12 SEL2        0.0000 
     23 N          32.9840   43.1670    5.2900 N.am      7 SEP2        0.0000 
     24 NZ         31.2435   43.2890    5.2195 N.4       3 LYC4        0.0000 
     25 NZ         29.5030   43.4110    5.1490 N.4      13 LYL4        0.0000 
     26 Zn         28.5960   42.7255    5.3445 Zn        4 ZIC7        0.0000 
     27 Zn         29.5030   43.4110    5.1490 Zn       14 ZIL7        0.0000 
     28 Zn         27.6890   42.0400    5.5400 Zn        9 ZIP7        0.0000 
     29 N          31.2435   43.2890    5.2195 N.am      2 SEC2        0.0000 
     30 N          29.5030   43.4110    5.1490 N.am     12 SEL2        0.0000 
     31 N          30.5180   42.6275    5.8220 N.am      2 SEC2        0.0000 
     32 N          31.5330   41.8440    6.4950 N.am      7 SEP2        0.0000 
     33 Zn         26.1645   43.7775    6.8795 Zn        4 ZIC7        0.0000 
     34 Zn         26.9010   44.0580    6.1380 Zn       14 ZIL7        0.0000 
     35 Zn         25.4280   43.4970    7.6210 Zn        9 ZIP7        0.0000 
     36 Zn         27.2950   43.0490    5.8390 Zn        4 ZIC7        0.0000 
     37 NZ         25.4210   45.7900    3.9780 N.4       3 LYC4        0.0000 
     38 NZ         26.7440   45.6520    4.1380 N.4      13 LYL4        0.0000 
     39 NZ         24.0980   45.9280    3.8180 N.4       8 LYP4        0.0000 
     40 NZ         25.0025   47.5195    6.7555 N.4       3 LYC4        0.0000 
     41 NZ         26.2220   46.5380    6.4800 N.4      13 LYL4        0.0000 
     42 NZ         23.7830   48.5010    7.0310 N.4       8 LYP4        0.0000 
     43 NZ         25.1600   46.2330    5.1490 N.4       3 LYC4        0.0000 
     44 N          25.0025   47.5195    6.7555 N.am      2 SEC2        0.0000 
     45 N          26.2220   46.5380    6.4800 N.am     12 SEL2        0.0000 
     46 N          23.7830   48.5010    7.0310 N.am      7 SEP2        0.0000 
     47 CA         27.9423   48.0288   12.7630 C.3       5 GLC5        0.0000 
     48 CA         28.4510   47.5920   10.2700 C.3      15 GLL5        0.0000 
     49 CA         27.4730   48.4270   14.5640 C.3      10 GLP5        0.0000 
     50 CA         26.6602   48.4447   10.7885 C.3       5 GLC5        0.0000 
     51 CA         28.3720   47.6690   11.6540 C.3      15 GLL5        0.0000 
     52 CA         24.9090   49.2590   10.6150 C.3      10 GLP5        0.0000 
     53 CA         28.2843   47.2352   13.3502 C.3       5 GLC5        0.0000 
     54 CA         29.3630   45.4740   11.8370 C.3      15 GLL5        0.0000 
     55 CA         29.1378   43.5785   10.4748 C.3       5 GLC5        0.0000 
     56 CA         28.8690   41.7290    9.8030 C.3      10 GLP5        0.0000 
     57 CA         30.5409   45.2079   12.5676 C.3       5 GLC5        0.0000 
     58 CA         31.8090   44.7030   13.8390 C.3      10 GLP5        0.0000 
@<TRIPOS>BOND
@<TRIPOS>SUBSTRUCTURE
     1 ALC1        1 GROUP        1 X    ALC  0     ROOT ALC X 1
     2 SEC2       15 GROUP        1 X    SEC  0     **** SEC X 2
     3 LYC4       18 GROUP        1 X    LYC  0     **** LYC X 4
     4 ZIC7       26 GROUP        1 X    ZIC  0     **** ZIC X 5
     5 GLC5        4 GROUP        1 X    GLC  0     **** GLC X 6
     6 ALP1        3 GROUP        1 Y    ALP  0     ROOT ALP Y 8
     7 SEP2       17 GROUP        1 Y    SEP  0     **** SEP Y 9
     8 LYP4       20 GROUP        1 Y    LYP  0     **** LYP Y 11
     9 ZIP7       28 GROUP        1 Y    ZIP  0     **** ZIP Y 12
    10 GLP5        6 GROUP        1 Y    GLP  0     **** GLP Y 13
    11 ALL1        2 GROUP        1 Z    ALL  0     ROOT ALL Z 15
    12 SEL2       16 GROUP        1 Z    SEL  0     **** SEL Z 16
    13 LYL4       19 GROUP        1 Z    LYL  0     **** LYL Z 18
    14 ZIL7       27 GROUP        1 Z    ZIL  0     **** ZIL Z 19
    15 GLL5        5 GROUP        1 Z    GLL  0     **** GLL Z 20
@<TRIPOS>SET

