#    Name: 2e92_M0N_1_ligand
#    Modification time : Tue Mar 25 10:42:07 2014

@<TRIPOS>MOLECULE
2e92_M0N_1_ligand
   29    30     1     0     0
SMALL
NO_CHARGES


@<TRIPOS>ATOM
      1 O          29.1470   47.3490    5.5090 O.3       1 M0N901      0.0000 
      2 C9         28.8910   45.9840    5.8550 C.3       1 M0N901      0.0000 
      3 C8         29.4250   45.6760    7.2530 C.3       1 M0N901      0.0000 
      4 C2         28.9430   46.6950    8.2960 C.2       1 M0N901      0.0000 
      5 C1         28.4220   47.8990    8.1110 C.2       1 M0N901      0.0000 
      6 N1         28.1220   48.4370    9.2960 N.pl3     1 M0N901      0.0000 
      7 C7         28.4510   47.5920   10.2700 C.2       1 M0N901      0.0000 
      8 C6         28.3720   47.6690   11.6540 C.2       1 M0N901      0.0000 
      9 C5         28.8280   46.6130   12.4360 C.2       1 M0N901      0.0000 
     10 C4         29.3630   45.4740   11.8370 C.2       1 M0N901      0.0000 
     11 C3         29.4500   45.3820   10.4560 C.2       1 M0N901      0.0000 
     12 N2         28.9910   46.4490    9.6680 N.pl3     1 M0N901      0.0000 
     13 P1         29.8040   44.9070    4.6450 P.3       1 M0N901      0.0000 
     14 O2         29.4080   45.1920    3.2500 O.co2     1 M0N901      0.0000 
     15 O3         31.3750   45.1480    4.9070 O.co2     1 M0N901      0.0000 
     16 O1         29.5030   43.4110    5.1490 O.co2     1 M0N901      0.0000 
     17 P2         27.0700   45.6020    5.7100 P.3       1 M0N901      0.0000 
     18 O5         26.9010   44.0580    6.1380 O.co2     1 M0N901      0.0000 
     19 O6         26.7440   45.6520    4.1380 O.co2     1 M0N901      0.0000 
     20 O4         26.2220   46.5380    6.4800 O.co2     1 M0N901      0.0000 
     21 H          30.5186   45.6815    7.2305 H         1 M0N901      0.0000 
     22 H          29.0945   44.6775    7.5533 H         1 M0N901      0.0000 
     23 H          28.2772   48.3315    7.2450 H         1 M0N901      0.0000 
     24 H          27.7199   49.3218    9.4259 H         1 M0N901      0.0000 
     25 H          27.9766   48.5061   12.1019 H         1 M0N901      0.0000 
     26 H          28.7706   46.6718   13.4626 H         1 M0N901      0.0000 
     27 H          29.6955   44.6963   12.4271 H         1 M0N901      0.0000 
     28 H          29.8421   44.5510   10.0103 H         1 M0N901      0.0000 
     29 H          28.9504   47.4090    4.5304 H         1 M0N901      0.0000 
@<TRIPOS>BOND
     1    2    1 1    
     2   29    1 1    
     3    3    2 1    
     4   13    2 1    
     5   17    2 1    
     6    4    3 1    
     7   21    3 1    
     8   22    3 1    
     9    5    4 2    
    10   12    4 1    
    11    6    5 1    
    12   23    5 1    
    13    7    6 2    
    14   24    6 1    
    15    8    7 1    
    16   12    7 1    
    17    9    8 2    
    18   25    8 1    
    19   10    9 1    
    20   26    9 1    
    21   11   10 2    
    22   27   10 1    
    23   12   11 1    
    24   28   11 1    
    25   14   13 ar   
    26   15   13 ar   
    27   16   13 ar   
    28   18   17 ar   
    29   19   17 ar   
    30   20   17 ar   
@<TRIPOS>SUBSTRUCTURE
     1 M0N901      1 GROUP   
@<TRIPOS>SET

