#    Name: 1rti_HEF_1_INTS_M
#    Modification time : Tue Mar 25 01:14:35 2014

@<TRIPOS>MOLECULE
1rti_HEF_1_INTS_M
   45     0     6     0     0
SMALL
NO_CHARGES


@<TRIPOS>ATOM
      1 O          -1.6920  -35.7760   20.5730 O.2       1 ALC1        0.0000 
      2 O          -1.7770  -35.8800   22.1120 O.2       5 ALL1        0.0000 
      3 O          -1.6070  -35.6720   19.0340 O.2       3 ALP1        0.0000 
      4 CA         -1.2280  -33.5945   24.0500 C.3       2 GLC5        0.0000 
      5 CA         -2.1080  -35.3500   24.7600 C.3       6 GLL5        0.0000 
      6 CA         -0.3480  -31.8390   23.3400 C.3       4 GLP5        0.0000 
      7 CA         -2.3965  -37.5350   26.0345 C.3       2 GLC5        0.0000 
      8 CA         -0.4640  -37.0920   25.4750 C.3       6 GLL5        0.0000 
      9 CA         -4.3290  -37.9780   26.5940 C.3       4 GLP5        0.0000 
     10 CA          1.6595  -37.4110   25.1425 C.3       2 GLC5        0.0000 
     11 CA          3.7830  -37.7300   24.8100 C.3       4 GLP5        0.0000 
     12 CA         -0.3330  -37.3380   27.1915 C.3       2 GLC5        0.0000 
     13 CA         -0.2020  -37.5840   28.9080 C.3       4 GLP5        0.0000 
     14 CA         -2.0825  -32.7400   23.7940 C.3       2 GLC5        0.0000 
     15 CA         -3.8170  -33.6410   24.2480 C.3       6 GLL5        0.0000 
     16 CA         -4.4195  -35.6730   24.2295 C.3       2 GLC5        0.0000 
     17 CA         -5.0220  -37.7050   24.2110 C.3       4 GLP5        0.0000 
     18 CA         -4.4315  -31.9360   25.1810 C.3       2 GLC5        0.0000 
     19 CA         -5.0460  -30.2310   26.1140 C.3       4 GLP5        0.0000 
     20 CA         -4.1435  -32.0790   22.8015 C.3       2 GLC5        0.0000 
     21 CA         -4.4700  -30.5170   21.3550 C.3       4 GLP5        0.0000 
     22 CA         -5.5160  -35.7160   24.6715 C.3       2 GLC5        0.0000 
     23 CA         -6.0100  -33.7270   25.1320 C.3       6 GLL5        0.0000 
     24 CA         -5.5280  -31.9790   25.6230 C.3       2 GLC5        0.0000 
     25 CA         -8.8115  -34.1515   26.0355 C.3       2 GLC5        0.0000 
     26 CA         -7.4820  -33.9480   24.7960 C.3       6 GLL5        0.0000 
     27 CA        -10.1410  -34.3550   27.2750 C.3       4 GLP5        0.0000 
     28 CA         -8.3115  -32.0995   24.3060 C.3       2 GLC5        0.0000 
     29 CA         -9.1410  -30.2510   23.8160 C.3       4 GLP5        0.0000 
     30 CA         -8.4400  -33.6205   23.1355 C.3       2 GLC5        0.0000 
     31 CA         -9.3980  -33.2930   21.4750 C.3       4 GLP5        0.0000 
     32 CA         -3.3415  -36.4565   26.5555 C.3       2 GLC5        0.0000 
     33 CA         -2.3540  -34.9350   26.5170 C.3       6 GLL5        0.0000 
     34 CA         -2.1150  -35.5115   28.2975 C.3       2 GLC5        0.0000 
     35 CA         -1.8760  -36.0880   30.0780 C.3       4 GLP5        0.0000 
     36 CA         -4.0720  -34.5320   27.5655 C.3       2 GLC5        0.0000 
     37 CA         -5.7900  -34.1290   28.6140 C.3       4 GLP5        0.0000 
     38 CA          1.5170  -33.0215   24.7755 C.3       2 GLC5        0.0000 
     39 CA          1.2360  -32.9650   26.4880 C.3       6 GLL5        0.0000 
     40 CA          1.7980  -33.0780   23.0630 C.3       4 GLP5        0.0000 
     41 CA         -3.3438  -36.7675   24.3957 C.3       2 GLC5        0.0000 
     42 CA         -6.2680  -33.9832   26.7890 C.3       2 GLC5        0.0000 
     43 CA         -0.3728  -32.8277   24.9462 C.3       2 GLC5        0.0000 
     44 CA         -0.8930  -33.9680   27.0150 C.3       6 GLL5        0.0000 
     45 CA         -0.5112  -35.6760   28.2923 C.3       2 GLC5        0.0000 
@<TRIPOS>BOND
@<TRIPOS>SUBSTRUCTURE
     1 ALC1        1 GROUP        1 X    ALC  0     ROOT ALC X 1
     2 GLC5        4 GROUP        1 X    GLC  0     **** GLC X 6
     3 ALP1        3 GROUP        1 Y    ALP  0     ROOT ALP Y 8
     4 GLP5        6 GROUP        1 Y    GLP  0     **** GLP Y 13
     5 ALL1        2 GROUP        1 Z    ALL  0     ROOT ALL Z 15
     6 GLL5        5 GROUP        1 Z    GLL  0     **** GLL Z 20
@<TRIPOS>SET

