#    Name: 1rti_HEF_1_ligand
#    Modification time : Tue Mar 25 01:14:36 2014

@<TRIPOS>MOLECULE
1rti_HEF_1_ligand
   37    38     1     0     0
SMALL
NO_CHARGES


@<TRIPOS>ATOM
      1 N1         -2.8330  -34.6540   23.8230 N.am      1 HEF999      0.0000 
      2 C2         -2.6900  -34.8940   22.4570 C.2       1 HEF999      0.0000 
      3 O2         -3.3270  -34.2730   21.6050 O.2       1 HEF999      0.0000 
      4 N3         -1.7770  -35.8800   22.1120 N.am      1 HEF999      0.0000 
      5 C4         -1.0110  -36.6310   22.9960 C.2       1 HEF999      0.0000 
      6 O4         -0.2350  -37.4840   22.5690 O.2       1 HEF999      0.0000 
      7 C5         -1.2230  -36.3100   24.4010 C.2       1 HEF999      0.0000 
      8 C6         -2.1080  -35.3500   24.7600 C.2       1 HEF999      0.0000 
      9 CM5        -0.4640  -37.0920   25.4750 C.3       1 HEF999      0.0000 
     10 CM         -3.8170  -33.6410   24.2480 C.3       1 HEF999      0.0000 
     11 OM         -5.1570  -34.0970   24.0420 O.3       1 HEF999      0.0000 
     12 CE1        -6.0100  -33.7270   25.1320 C.3       1 HEF999      0.0000 
     13 CE2        -7.4820  -33.9480   24.7960 C.3       1 HEF999      0.0000 
     14 OE         -7.6900  -35.1870   24.1380 O.3       1 HEF999      0.0000 
     15 S'         -2.3540  -34.9350   26.5170 S.3       1 HEF999      0.0000 
     16 C1'        -0.8930  -33.9680   27.0150 C.ar      1 HEF999      0.0000 
     17 C2'        -0.7480  -33.5680   28.3380 C.ar      1 HEF999      0.0000 
     18 C3'         0.3860  -32.8690   28.7370 C.ar      1 HEF999      0.0000 
     19 C4'         1.3790  -32.5660   27.8110 C.ar      1 HEF999      0.0000 
     20 C5'         1.2360  -32.9650   26.4880 C.ar      1 HEF999      0.0000 
     21 C6'         0.0980  -33.6650   26.0900 C.ar      1 HEF999      0.0000 
     22 H          -1.6497  -36.0822   21.0671 H         1 HEF999      0.0000 
     23 H          -3.6322  -32.7038   23.6866 H         1 HEF999      0.0000 
     24 H          -3.6456  -33.4004   25.3159 H         1 HEF999      0.0000 
     25 H          -5.8834  -32.6636   25.3996 H         1 HEF999      0.0000 
     26 H          -5.7817  -34.3131   26.0391 H         1 HEF999      0.0000 
     27 H          -7.8119  -33.0942   24.1754 H         1 HEF999      0.0000 
     28 H          -8.0507  -33.8863   25.7424 H         1 HEF999      0.0000 
     29 H          -1.4822  -33.7897   29.0252 H         1 HEF999      0.0000 
     30 H           0.4909  -32.5758   29.7171 H         1 HEF999      0.0000 
     31 H           2.2160  -32.0482   28.1058 H         1 HEF999      0.0000 
     32 H           1.9682  -32.7451   25.8008 H         1 HEF999      0.0000 
     33 H          -0.0059  -33.9567   25.1089 H         1 HEF999      0.0000 
     34 H           0.5263  -36.9963   25.3739 H         1 HEF999      0.0000 
     35 H          -0.6962  -36.7791   26.3960 H         1 HEF999      0.0000 
     36 H          -0.6694  -38.0700   25.4372 H         1 HEF999      0.0000 
     37 H          -6.8072  -35.4124   23.7257 H         1 HEF999      0.0000 
@<TRIPOS>BOND
     1    2    1 1    
     2    8    1 1    
     3   10    1 1    
     4    3    2 2    
     5    4    2 1    
     6    5    4 1    
     7   22    4 1    
     8    6    5 2    
     9    7    5 1    
    10    8    7 2    
    11    9    7 1    
    12   15    8 1    
    13   34    9 1    
    14   35    9 1    
    15   36    9 1    
    16   11   10 1    
    17   23   10 1    
    18   24   10 1    
    19   12   11 1    
    20   13   12 1    
    21   25   12 1    
    22   26   12 1    
    23   14   13 1    
    24   27   13 1    
    25   28   13 1    
    26   37   14 1    
    27   16   15 1    
    28   17   16 ar   
    29   21   16 ar   
    30   18   17 ar   
    31   29   17 1    
    32   19   18 ar   
    33   30   18 1    
    34   20   19 ar   
    35   31   19 1    
    36   21   20 ar   
    37   32   20 1    
    38   33   21 1    
@<TRIPOS>SUBSTRUCTURE
     1 HEF999      1 GROUP   
@<TRIPOS>SET

