#    Name: 4k39_SAM_1_INTS_M
#    Modification time : Tue Mar 25 06:50:39 2014

@<TRIPOS>MOLECULE
4k39_SAM_1_INTS_M
   71     0    12     0     0
SMALL
NO_CHARGES


@<TRIPOS>ATOM
      1 OD1        19.3885   30.3735   45.3115 O.co2     3 ASC3        0.0000 
      2 OD1        20.6450   29.4120   44.8400 O.co2    11 ASL3        0.0000 
      3 OD1        18.1320   31.3350   45.7830 O.co2     7 ASP3        0.0000 
      4 O          19.3885   30.3735   45.3115 O.2       1 ALC1        0.0000 
      5 O          20.6450   29.4120   44.8400 O.2       9 ALL1        0.0000 
      6 O          18.1320   31.3350   45.7830 O.2       5 ALP1        0.0000 
      7 CA         17.6055   28.8770   44.4170 C.3       4 GLC5        0.0000 
      8 CA         19.6380   28.6410   44.1760 C.3      12 GLL5        0.0000 
      9 CA         15.5730   29.1130   44.6580 C.3       8 GLP5        0.0000 
     10 N          19.1920   25.7800   45.8970 N.am      2 SEC2        0.0000 
     11 N          20.0980   27.0910   45.9500 N.am     10 SEL2        0.0000 
     12 N          18.2860   24.4690   45.8440 N.am      6 SEP2        0.0000 
     13 N          20.3070   26.6110   47.3470 N.am      2 SEC2        0.0000 
     14 N          20.5160   26.1310   48.7440 N.am      6 SEP2        0.0000 
     15 N          17.7160   25.6975   44.0150 N.am      2 SEC2        0.0000 
     16 N          18.5920   26.5950   44.4950 N.am     10 SEL2        0.0000 
     17 N          16.8400   24.8000   43.5350 N.am      6 SEP2        0.0000 
     18 N          18.4390   25.5320   45.1695 N.am      2 SEC2        0.0000 
     19 CA         21.7800   29.9050   41.0660 C.3       4 GLC5        0.0000 
     20 CA         21.3820   28.1600   42.3640 C.3      12 GLL5        0.0000 
     21 CA         22.1780   31.6500   39.7680 C.3       8 GLP5        0.0000 
     22 CA         25.3800   27.1740   44.2295 C.3       4 GLC5        0.0000 
     23 CA         23.5370   26.7020   43.3580 C.3      12 GLL5        0.0000 
     24 CA         27.2230   27.6460   45.1010 C.3       8 GLP5        0.0000 
     25 CA         25.1995   26.4660   42.5055 C.3       4 GLC5        0.0000 
     26 CA         26.8620   26.2300   41.6530 C.3       8 GLP5        0.0000 
     27 CA         20.8975   21.9690   42.3270 C.3       4 GLC5        0.0000 
     28 CA         21.3500   24.1420   42.4820 C.3      12 GLL5        0.0000 
     29 CA         20.4450   19.7960   42.1720 C.3       8 GLP5        0.0000 
     30 CA         19.5455   24.1895   45.6040 C.3       4 GLC5        0.0000 
     31 CA         21.0360   24.0910   43.9650 C.3      12 GLL5        0.0000 
     32 CA         18.0550   24.2880   47.2430 C.3       8 GLP5        0.0000 
     33 O          19.2680   23.7285   45.1000 O.2       1 ALC1        0.0000 
     34 O          20.2500   22.9880   44.3560 O.2       9 ALL1        0.0000 
     35 O          18.2860   24.4690   45.8440 O.2       5 ALP1        0.0000 
     36 N          22.0475   23.7735   47.2115 N.am      2 SEC2        0.0000 
     37 N          22.1670   23.2470   45.7920 N.am     10 SEL2        0.0000 
     38 N          21.9280   24.3000   48.6310 N.am      6 SEP2        0.0000 
     39 CA         21.7430   21.3920   42.8510 C.3       4 GLC5        0.0000 
     40 CA         23.0410   22.9880   43.5300 C.3      12 GLL5        0.0000 
     41 CA         27.7590   19.0980   44.2390 C.3       4 GLC5        0.0000 
     42 CA         27.7040   21.0800   43.6230 C.3      12 GLL5        0.0000 
     43 CA         27.8140   17.1160   44.8550 C.3       8 GLP5        0.0000 
     44 CA         29.1650   19.5360   43.0540 C.3       4 GLC5        0.0000 
     45 CA         30.6260   17.9920   42.4850 C.3       8 GLP5        0.0000 
     46 O          29.5450   22.3680   45.1315 O.2       1 ALC1        0.0000 
     47 O          28.9570   21.2980   44.0130 O.2       9 ALL1        0.0000 
     48 O          30.1330   23.4380   46.2500 O.2       5 ALP1        0.0000 
     49 O          30.1895   20.5765   43.8375 O.2       1 ALC1        0.0000 
     50 O          31.4220   19.8550   43.6620 O.2       5 ALP1        0.0000 
     51 N          28.3860   18.9740   43.1275 N.am      2 SEC2        0.0000 
     52 N          27.3720   19.9410   43.0110 N.am     10 SEL2        0.0000 
     53 N          29.4000   18.0070   43.2440 N.am      6 SEP2        0.0000 
     54 CA         24.6645   19.0650   42.0610 C.3       4 GLC5        0.0000 
     55 CA         26.1120   19.7160   42.6330 C.3      12 GLL5        0.0000 
     56 CA         23.2170   18.4140   41.4890 C.3       8 GLP5        0.0000 
     57 CA         26.9630   18.4160   43.7440 C.3       4 GLC5        0.0000 
     58 CA         24.1730   21.0510   44.8860 C.3       4 GLC5        0.0000 
     59 CA         25.2730   21.7790   43.3990 C.3      12 GLL5        0.0000 
     60 CA         23.0730   20.3230   46.3730 C.3       8 GLP5        0.0000 
     61 CA         24.2450   20.0965   42.4440 C.3       4 GLC5        0.0000 
     62 CA         18.9453   30.3510   42.7265 C.3       4 GLC5        0.0000 
     63 CA         19.9090   28.4170   42.6840 C.3      12 GLL5        0.0000 
     64 CA         18.1170   32.1730   42.0230 C.3       8 GLP5        0.0000 
     65 CA         18.6167   27.3100   42.5005 C.3       4 GLC5        0.0000 
     66 CA         17.4600   26.0910   41.5710 C.3       8 GLP5        0.0000 
     67 CA         19.4228   25.4768   41.8888 C.3       4 GLC5        0.0000 
     68 CA         21.4210   25.5830   41.9310 C.3      12 GLL5        0.0000 
     69 CA         19.7230   22.9228   42.6208 C.3       4 GLC5        0.0000 
     70 CA         18.2530   21.7290   42.0180 C.3       8 GLP5        0.0000 
     71 CA         22.8930   21.8795   45.2135 C.3       4 GLC5        0.0000 
@<TRIPOS>BOND
@<TRIPOS>SUBSTRUCTURE
     1 ALC1        4 GROUP        1 X    ALC  0     ROOT ALC X 1
     2 SEC2       10 GROUP        1 X    SEC  0     **** SEC X 2
     3 ASC3        1 GROUP        1 X    ASC  0     **** ASC X 3
     4 GLC5        7 GROUP        1 X    GLC  0     **** GLC X 6
     5 ALP1        6 GROUP        1 Y    ALP  0     ROOT ALP Y 8
     6 SEP2       12 GROUP        1 Y    SEP  0     **** SEP Y 9
     7 ASP3        3 GROUP        1 Y    ASP  0     **** ASP Y 10
     8 GLP5        9 GROUP        1 Y    GLP  0     **** GLP Y 13
     9 ALL1        5 GROUP        1 Z    ALL  0     ROOT ALL Z 15
    10 SEL2       11 GROUP        1 Z    SEL  0     **** SEL Z 16
    11 ASL3        2 GROUP        1 Z    ASL  0     **** ASL Z 17
    12 GLL5        8 GROUP        1 Z    GLL  0     **** GLL Z 20
@<TRIPOS>SET

