#    Name: 4k39_SAM_1_ligand
#    Modification time : Tue Mar 25 06:50:39 2014

@<TRIPOS>MOLECULE
4k39_SAM_1_ligand
   50    52     1     0     0
SMALL
NO_CHARGES


@<TRIPOS>ATOM
      1 N          20.6450   29.4120   44.8400 N.4       1 SAM504      0.0000 
      2 CA         19.6380   28.6410   44.1760 C.3       1 SAM504      0.0000 
      3 C          19.4480   27.3480   44.9360 C.2       1 SAM504      0.0000 
      4 O          20.0980   27.0910   45.9500 O.co2     1 SAM504      0.0000 
      5 OXT        18.5920   26.5950   44.4950 O.co2     1 SAM504      0.0000 
      6 CB         19.9090   28.4170   42.6840 C.3       1 SAM504      0.0000 
      7 CG         21.3820   28.1600   42.3640 C.3       1 SAM504      0.0000 
      8 SD         21.9360   26.7270   43.0440 S.3       1 SAM504      0.0000 
      9 CE         23.5370   26.7020   43.3580 C.3       1 SAM504      0.0000 
     10 C5'        21.4210   25.5830   41.9310 C.3       1 SAM504      0.0000 
     11 C4'        21.3500   24.1420   42.4820 C.3       1 SAM504      0.0000 
     12 O4'        22.6580   23.5790   42.3250 O.3       1 SAM504      0.0000 
     13 C3'        21.0360   24.0910   43.9650 C.3       1 SAM504      0.0000 
     14 O3'        20.2500   22.9880   44.3560 O.3       1 SAM504      0.0000 
     15 C2'        22.3850   23.8840   44.5780 C.3       1 SAM504      0.0000 
     16 O2'        22.1670   23.2470   45.7920 O.3       1 SAM504      0.0000 
     17 C1'        23.0410   22.9880   43.5300 C.3       1 SAM504      0.0000 
     18 N9         24.5020   22.8340   43.7280 N.pl3     1 SAM504      0.0000 
     19 C8         25.2890   23.7070   44.3290 C.2       1 SAM504      0.0000 
     20 N7         26.5770   23.2940   44.4080 N.2       1 SAM504      0.0000 
     21 C5         26.6390   22.0860   43.8510 C.ar      1 SAM504      0.0000 
     22 C6         27.7040   21.0800   43.6230 C.ar      1 SAM504      0.0000 
     23 N6         28.9570   21.2980   44.0130 N.pl3     1 SAM504      0.0000 
     24 N1         27.3720   19.9410   43.0110 N.ar      1 SAM504      0.0000 
     25 C2         26.1120   19.7160   42.6330 C.ar      1 SAM504      0.0000 
     26 N3         25.0930   20.5710   42.8070 N.ar      1 SAM504      0.0000 
     27 C4         25.2730   21.7790   43.3990 C.ar      1 SAM504      0.0000 
     28 H          18.6656   29.1863   44.2484 H         1 SAM504      0.0000 
     29 H          19.5694   29.3004   42.1242 H         1 SAM504      0.0000 
     30 H          19.3124   27.5603   42.3387 H         1 SAM504      0.0000 
     31 H          22.0157   28.9354   42.7671 H         1 SAM504      0.0000 
     32 H          21.5442   28.0577   41.3017 H         1 SAM504      0.0000 
     33 H          22.1204   25.6460   41.0997 H         1 SAM504      0.0000 
     34 H          20.4414   25.9186   41.5963 H         1 SAM504      0.0000 
     35 H          20.6291   23.5932   41.9363 H         1 SAM504      0.0000 
     36 H          20.6699   25.0248   44.2817 H         1 SAM504      0.0000 
     37 H          22.8793   24.7969   44.6154 H         1 SAM504      0.0000 
     38 H          22.5468   22.0085   43.6361 H         1 SAM504      0.0000 
     39 H          24.9841   24.5867   44.6944 H         1 SAM504      0.0000 
     40 H          29.1432   22.1948   44.4144 H         1 SAM504      0.0000 
     41 H          29.5997   20.5454   43.8696 H         1 SAM504      0.0000 
     42 H          25.8933   18.7754   42.1503 H         1 SAM504      0.0000 
     43 H          20.2936   30.2967   45.1464 H         1 SAM504      0.0000 
     44 H          21.0002   28.9418   45.6480 H         1 SAM504      0.0000 
     45 H          21.4250   29.5976   44.2423 H         1 SAM504      0.0000 
     46 H          24.0802   26.8324   42.5286 H         1 SAM504      0.0000 
     47 H          23.8013   27.4235   43.9980 H         1 SAM504      0.0000 
     48 H          23.8227   25.8329   43.7619 H         1 SAM504      0.0000 
     49 H          19.4989   23.3807   44.8867 H         1 SAM504      0.0000 
     50 H          21.2027   22.9826   45.7759 H         1 SAM504      0.0000 
@<TRIPOS>BOND
     1    2    1 1    
     2   43    1 1    
     3   44    1 1    
     4   45    1 1    
     5    3    2 1    
     6    6    2 1    
     7   28    2 1    
     8    4    3 ar   
     9    5    3 ar   
    10    7    6 1    
    11   29    6 1    
    12   30    6 1    
    13    8    7 1    
    14   31    7 1    
    15   32    7 1    
    16    9    8 1    
    17   10    8 1    
    18   46    9 1    
    19   47    9 1    
    20   48    9 1    
    21   11   10 1    
    22   33   10 1    
    23   34   10 1    
    24   12   11 1    
    25   13   11 1    
    26   35   11 1    
    27   17   12 1    
    28   14   13 1    
    29   15   13 1    
    30   36   13 1    
    31   49   14 1    
    32   16   15 1    
    33   17   15 1    
    34   37   15 1    
    35   50   16 1    
    36   18   17 1    
    37   38   17 1    
    38   19   18 1    
    39   27   18 1    
    40   20   19 2    
    41   39   19 1    
    42   21   20 1    
    43   22   21 ar   
    44   27   21 ar   
    45   23   22 1    
    46   24   22 ar   
    47   40   23 1    
    48   41   23 1    
    49   25   24 ar   
    50   26   25 ar   
    51   42   25 1    
    52   27   26 ar   
@<TRIPOS>SUBSTRUCTURE
     1 SAM504      1 GROUP   
@<TRIPOS>SET

