#    Name: 2ywv_ADP_1_INTS_M
#    Modification time : Tue Mar 25 09:47:24 2014

@<TRIPOS>MOLECULE
2ywv_ADP_1_INTS_M
   76     0    15     0     0
SMALL
NO_CHARGES


@<TRIPOS>ATOM
      1 NZ          5.1460   -0.1395   10.4630 N.4       3 LYC4        0.0000 
      2 NZ          6.5210   -0.7480    9.7100 N.4      13 LYL4        0.0000 
      3 NZ          3.7710    0.4690   11.2160 N.4       8 LYP4        0.0000 
      4 N           6.6265   -1.9865   10.1695 N.am      2 SEC2        0.0000 
      5 N           6.5210   -0.7480    9.7100 N.am     12 SEL2        0.0000 
      6 N           6.7320   -3.2250   10.6290 N.am      7 SEP2        0.0000 
      7 N           5.1460   -0.1395   10.4630 N.am      2 SEC2        0.0000 
      8 N           3.7710    0.4690   11.2160 N.am      7 SEP2        0.0000 
      9 NZ          4.7520    0.7745    9.5520 N.4       3 LYC4        0.0000 
     10 NZ          5.7330    1.0800    7.8880 N.4      13 LYL4        0.0000 
     11 NZ          5.4085    2.5110    7.9695 N.4       3 LYC4        0.0000 
     12 NZ          5.0840    3.9420    8.0510 N.4       8 LYP4        0.0000 
     13 Zn          4.9525    0.7395    7.1745 Zn        4 ZIC7        0.0000 
     14 Zn          5.7330    1.0800    7.8880 Zn       14 ZIL7        0.0000 
     15 Zn          4.1720    0.3990    6.4610 Zn        9 ZIP7        0.0000 
     16 N           5.4085    2.5110    7.9695 N.am      2 SEC2        0.0000 
     17 N           5.7330    1.0800    7.8880 N.am     12 SEL2        0.0000 
     18 N           5.0840    3.9420    8.0510 N.am      7 SEP2        0.0000 
     19 NZ          6.4700    2.7205    8.7560 N.4       3 LYC4        0.0000 
     20 NZ          7.8560    1.4990    9.4610 N.4      13 LYL4        0.0000 
     21 NZ          5.9690   -1.2465    4.5315 N.4       3 LYC4        0.0000 
     22 NZ          6.1940   -0.8050    5.8310 N.4      13 LYL4        0.0000 
     23 NZ          5.7440   -1.6880    3.2320 N.4       8 LYP4        0.0000 
     24 Zn          5.1830   -0.2030    6.1460 Zn        4 ZIC7        0.0000 
     25 Zn          6.1940   -0.8050    5.8310 Zn       14 ZIL7        0.0000 
     26 N           5.9690   -1.2465    4.5315 N.am      2 SEC2        0.0000 
     27 N           6.1940   -0.8050    5.8310 N.am     12 SEL2        0.0000 
     28 N           5.7440   -1.6880    3.2320 N.am      7 SEP2        0.0000 
     29 N           6.4240   -3.8155    8.0025 N.am      2 SEC2        0.0000 
     30 N           7.1600   -2.7830    7.3510 N.am     12 SEL2        0.0000 
     31 N           5.6880   -4.8480    8.6540 N.am      7 SEP2        0.0000 
     32 N           7.3935   -4.0480    6.9740 N.am      2 SEC2        0.0000 
     33 N           7.6270   -5.3130    6.5970 N.am      7 SEP2        0.0000 
     34 CA          7.7250   -1.3270    4.0075 C.3       5 GLC5        0.0000 
     35 CA          8.4640   -0.2790    5.2360 C.3      15 GLL5        0.0000 
     36 CA          6.9860   -2.3750    2.7790 C.3      10 GLP5        0.0000 
     37 CA         10.3025   -0.9885    4.3245 C.3       5 GLC5        0.0000 
     38 CA         12.1410   -1.6980    3.4130 C.3      10 GLP5        0.0000 
     39 CA         11.0895   -0.2400    5.2630 C.3       5 GLC5        0.0000 
     40 CA          9.3590    0.8440    5.7950 C.3      15 GLL5        0.0000 
     41 CA         12.8200   -1.3240    4.7310 C.3      10 GLP5        0.0000 
     42 O           7.1590    4.5245    4.6505 O.2       1 ALC1        0.0000 
     43 O           8.3550    4.3290    5.2220 O.2      11 ALL1        0.0000 
     44 O           5.9630    4.7200    4.0790 O.2       6 ALP1        0.0000 
     45 CA         13.9090    2.7730    0.4930 C.3       5 GLC5        0.0000 
     46 CA         12.1260    3.6510    0.1300 C.3      15 GLL5        0.0000 
     47 CA         15.6920    1.8950    0.8560 C.3      10 GLP5        0.0000 
     48 O          12.9435    3.7625   -2.2735 O.2       1 ALC1        0.0000 
     49 O          12.0060    3.5170   -1.2360 O.2      11 ALL1        0.0000 
     50 O          13.8810    4.0080   -3.3110 O.2       6 ALP1        0.0000 
     51 N          14.0755    5.3105   -0.1470 N.am      2 SEC2        0.0000 
     52 N          13.2530    4.1690    0.6740 N.am     12 SEL2        0.0000 
     53 N          14.8980    6.4520   -0.9680 N.am      7 SEP2        0.0000 
     54 CA         14.5555    3.0760    1.4285 C.3       5 GLC5        0.0000 
     55 CA         13.4190    4.2570    2.0010 C.3      15 GLL5        0.0000 
     56 CA         12.7110    5.7385    0.5905 C.3       5 GLC5        0.0000 
     57 CA         12.0030    7.2200   -0.8200 C.3      10 GLP5        0.0000 
     58 CA         11.7810    5.4205    2.6695 C.3       5 GLC5        0.0000 
     59 CA         10.1430    6.5840    3.3380 C.3      10 GLP5        0.0000 
     60 CA         10.7195    4.9775    2.8650 C.3       5 GLC5        0.0000 
     61 CA         11.2960    3.3710    2.3920 C.3      15 GLL5        0.0000 
     62 CA          9.9413    0.9740    7.6197 C.3       5 GLC5        0.0000 
     63 CA          8.5300    2.0880    6.1700 C.3      15 GLL5        0.0000 
     64 CA         10.9380    0.4820    9.2570 C.3      10 GLP5        0.0000 
     65 CA          7.3810    3.7313    6.7388 C.3       5 GLC5        0.0000 
     66 CA          6.1880    4.9430    7.9320 C.3      10 GLP5        0.0000 
     67 CA          9.7385    4.6978    4.0107 C.3       5 GLC5        0.0000 
     68 CA          8.6180    2.9510    4.9210 C.3      15 GLL5        0.0000 
     69 CA         10.8297    2.8770   -1.2263 C.3       5 GLC5        0.0000 
     70 CA         11.0770    3.2410    0.9950 C.3      15 GLL5        0.0000 
     71 CA         10.0580    2.3080   -3.0150 C.3      10 GLP5        0.0000 
     72 CA         11.8022    5.3330   -0.1287 C.3       5 GLC5        0.0000 
     73 CA         10.4652    4.9495    1.3082 C.3       5 GLC5        0.0000 
     74 CA          9.3290    6.4530    2.0540 C.3      10 GLP5        0.0000 
     75 CA          9.9322    4.4235   -0.3478 C.3       5 GLC5        0.0000 
     76 CA          8.2630    5.4010   -1.2580 C.3      10 GLP5        0.0000 
@<TRIPOS>BOND
@<TRIPOS>SUBSTRUCTURE
     1 ALC1       42 GROUP        1 X    ALC  0     ROOT ALC X 1
     2 SEC2        4 GROUP        1 X    SEC  0     **** SEC X 2
     3 LYC4        1 GROUP        1 X    LYC  0     **** LYC X 4
     4 ZIC7       13 GROUP        1 X    ZIC  0     **** ZIC X 5
     5 GLC5       34 GROUP        1 X    GLC  0     **** GLC X 6
     6 ALP1       44 GROUP        1 Y    ALP  0     ROOT ALP Y 8
     7 SEP2        6 GROUP        1 Y    SEP  0     **** SEP Y 9
     8 LYP4        3 GROUP        1 Y    LYP  0     **** LYP Y 11
     9 ZIP7       15 GROUP        1 Y    ZIP  0     **** ZIP Y 12
    10 GLP5       36 GROUP        1 Y    GLP  0     **** GLP Y 13
    11 ALL1       43 GROUP        1 Z    ALL  0     ROOT ALL Z 15
    12 SEL2        5 GROUP        1 Z    SEL  0     **** SEL Z 16
    13 LYL4        2 GROUP        1 Z    LYL  0     **** LYL Z 18
    14 ZIL7       14 GROUP        1 Z    ZIL  0     **** ZIL Z 19
    15 GLL5       35 GROUP        1 Z    GLL  0     **** GLL Z 20
@<TRIPOS>SET

