#    Name: 2ywv_ADP_1_ligand
#    Modification time : Tue Mar 25 09:47:24 2014

@<TRIPOS>MOLECULE
2ywv_ADP_1_ligand
   39    41     1     0     0
SMALL
NO_CHARGES


@<TRIPOS>ATOM
      1 PB          6.5770    0.5960    9.1220 P.3       1 ADP600      0.0000 
      2 O1B         6.5210   -0.7480    9.7100 O.co2     1 ADP600      0.0000 
      3 O2B         5.7330    1.0800    7.8880 O.co2     1 ADP600      0.0000 
      4 O3B         7.8560    1.4990    9.4610 O.co2     1 ADP600      0.0000 
      5 PA          6.8330   -1.2500    7.0720 P.3       1 ADP600      0.0000 
      6 O1A         6.1940   -0.8050    5.8310 O.co2     1 ADP600      0.0000 
      7 O2A         7.1600   -2.7830    7.3510 O.co2     1 ADP600      0.0000 
      8 O3A         7.5860   -0.1210    8.0130 O.3       1 ADP600      0.0000 
      9 O5'         8.2630   -1.3380    6.2320 O.3       1 ADP600      0.0000 
     10 C5'         8.4640   -0.2790    5.2360 C.3       1 ADP600      0.0000 
     11 C4'         9.3590    0.8440    5.7950 C.3       1 ADP600      0.0000 
     12 O4'        10.3340    1.2790    4.7990 O.3       1 ADP600      0.0000 
     13 C3'         8.5300    2.0880    6.1700 C.3       1 ADP600      0.0000 
     14 O3'         9.0720    2.7290    7.3360 O.3       1 ADP600      0.0000 
     15 C2'         8.6180    2.9510    4.9210 C.3       1 ADP600      0.0000 
     16 O2'         8.3550    4.3290    5.2220 O.3       1 ADP600      0.0000 
     17 C1'        10.0500    2.6720    4.4460 C.3       1 ADP600      0.0000 
     18 N9         10.2030    2.8330    2.9960 N.pl3     1 ADP600      0.0000 
     19 C8          9.3260    2.4580    2.0070 C.2       1 ADP600      0.0000 
     20 N7          9.8360    2.7190    0.8320 N.2       1 ADP600      0.0000 
     21 C5         11.0770    3.2410    0.9950 C.ar      1 ADP600      0.0000 
     22 C6         12.1260    3.6510    0.1300 C.ar      1 ADP600      0.0000 
     23 N6         12.0060    3.5170   -1.2360 N.pl3     1 ADP600      0.0000 
     24 N1         13.2530    4.1690    0.6740 N.ar      1 ADP600      0.0000 
     25 C2         13.4190    4.2570    2.0010 C.ar      1 ADP600      0.0000 
     26 N3         12.4400    3.9290    2.8430 N.ar      1 ADP600      0.0000 
     27 C4         11.2960    3.3710    2.3920 C.ar      1 ADP600      0.0000 
     28 H           7.5078    0.1665    4.9413 H         1 ADP600      0.0000 
     29 H           8.9438   -0.6762    4.3350 H         1 ADP600      0.0000 
     30 H           9.8540    0.4955    6.6785 H         1 ADP600      0.0000 
     31 H           7.5198    1.7697    6.2892 H         1 ADP600      0.0000 
     32 H           7.9498    2.5326    4.1981 H         1 ADP600      0.0000 
     33 H          10.7137    3.3188    4.9805 H         1 ADP600      0.0000 
     34 H           8.4520    2.0555    2.1944 H         1 ADP600      0.0000 
     35 H          11.0748    3.5365   -1.5999 H         1 ADP600      0.0000 
     36 H          12.8605    3.4119   -1.7446 H         1 ADP600      0.0000 
     37 H          14.3433    4.5926    2.3824 H         1 ADP600      0.0000 
     38 H           8.6049    2.2987    8.1084 H         1 ADP600      0.0000 
     39 H           7.4799    4.5277    4.7807 H         1 ADP600      0.0000 
@<TRIPOS>BOND
     1    2    1 ar   
     2    3    1 ar   
     3    4    1 ar   
     4    8    1 1    
     5    6    5 ar   
     6    7    5 ar   
     7    8    5 1    
     8    9    5 1    
     9   10    9 1    
    10   11   10 1    
    11   28   10 1    
    12   29   10 1    
    13   12   11 1    
    14   13   11 1    
    15   30   11 1    
    16   17   12 1    
    17   14   13 1    
    18   15   13 1    
    19   31   13 1    
    20   38   14 1    
    21   16   15 1    
    22   17   15 1    
    23   32   15 1    
    24   39   16 1    
    25   18   17 1    
    26   33   17 1    
    27   19   18 1    
    28   27   18 1    
    29   20   19 2    
    30   34   19 1    
    31   21   20 1    
    32   22   21 ar   
    33   27   21 ar   
    34   23   22 1    
    35   24   22 ar   
    36   35   23 1    
    37   36   23 1    
    38   25   24 ar   
    39   26   25 ar   
    40   37   25 1    
    41   27   26 ar   
@<TRIPOS>SUBSTRUCTURE
     1 ADP600      1 GROUP   
@<TRIPOS>SET

