#    Name: 2bfr_ADP_1_INTS_M
#    Modification time : Mon Mar 24 20:54:57 2014

@<TRIPOS>MOLECULE
2bfr_ADP_1_INTS_M
   52     0     9     0     0
SMALL
NO_CHARGES


@<TRIPOS>ATOM
      1 N          13.2105   75.4635   -7.0935 N.am      2 SEC2        0.0000 
      2 N          14.5970   75.6860   -7.2680 N.am      8 SEL2        0.0000 
      3 N          11.8240   75.2410   -6.9190 N.am      5 SEP2        0.0000 
      4 N          13.0240   78.9940   -7.5910 N.am      2 SEC2        0.0000 
      5 N          14.0590   78.0470   -8.0200 N.am      8 SEL2        0.0000 
      6 N          11.9890   79.9410   -7.1620 N.am      5 SEP2        0.0000 
      7 N          14.0250   78.5345   -9.5555 N.am      2 SEC2        0.0000 
      8 N          13.9910   79.0220  -11.0910 N.am      5 SEP2        0.0000 
      9 N          17.9570   79.0010   -3.6565 N.am      2 SEC2        0.0000 
     10 N          17.0470   78.8450   -4.5930 N.am      8 SEL2        0.0000 
     11 N          18.8670   79.1570   -2.7200 N.am      5 SEP2        0.0000 
     12 N          15.6770   80.4075   -7.9810 N.am      2 SEC2        0.0000 
     13 N          16.7290   79.8770   -6.9030 N.am      8 SEL2        0.0000 
     14 N          14.6250   80.9380   -9.0590 N.am      5 SEP2        0.0000 
     15 CA         15.7110   77.5245   -3.2195 C.3       3 GLC5        0.0000 
     16 CA         14.0540   78.4510   -4.3280 C.3       9 GLL5        0.0000 
     17 CA         17.3680   76.5980   -2.1110 C.3       6 GLP5        0.0000 
     18 CA         13.4855   79.7440   -5.8460 C.3       3 GLC5        0.0000 
     19 CA         12.9170   81.0370   -7.3640 C.3       6 GLP5        0.0000 
     20 CA         11.4130   78.5015   -2.7210 C.3       3 GLC5        0.0000 
     21 CA         13.2980   79.2290   -3.2410 C.3       9 GLL5        0.0000 
     22 CA          9.5280   77.7740   -2.2010 C.3       6 GLP5        0.0000 
     23 CA         12.9545   80.8810   -5.4540 C.3       3 GLC5        0.0000 
     24 CA         12.9920   80.7250   -3.5440 C.3       9 GLL5        0.0000 
     25 CA         13.8760   81.8665    0.2070 C.3       3 GLC5        0.0000 
     26 CA         14.0800   80.5270   -1.4200 C.3       9 GLL5        0.0000 
     27 CA         13.6720   83.2060    1.8340 C.3       6 GLP5        0.0000 
     28 CA         16.9040   80.5490    4.5315 C.3       3 GLC5        0.0000 
     29 CA         17.3250   80.3260    2.3570 C.3       9 GLL5        0.0000 
     30 CA         16.4830   80.7720    6.7060 C.3       6 GLP5        0.0000 
     31 CA         17.2785   78.2805    3.2045 C.3       3 GLC5        0.0000 
     32 CA         17.2320   76.2350    4.0520 C.3       6 GLP5        0.0000 
     33 CA         19.4600   80.1615    1.9300 C.3       3 GLC5        0.0000 
     34 CA         21.5950   79.9970    1.5030 C.3       6 GLP5        0.0000 
     35 O          18.6725   80.3110    4.2290 O.2       1 ALC1        0.0000 
     36 O          18.4810   80.6110    2.8500 O.2       7 ALL1        0.0000 
     37 O          18.8640   80.0110    5.6080 O.2       4 ALP1        0.0000 
     38 N          16.3340   79.0310    4.5570 N.am      2 SEC2        0.0000 
     39 N          16.4030   79.6180    3.1220 N.am      8 SEL2        0.0000 
     40 N          16.2650   78.4440    5.9920 N.am      5 SEP2        0.0000 
     41 CA         15.5515   77.7510    3.7805 C.3       3 GLC5        0.0000 
     42 CA         15.1320   79.2690    2.6670 C.3       9 GLL5        0.0000 
     43 CA         15.9710   76.2330    4.8940 C.3       6 GLP5        0.0000 
     44 CA         16.4030   78.2470    1.4870 C.3       3 GLC5        0.0000 
     45 CA         17.6740   77.2250    0.3070 C.3       6 GLP5        0.0000 
     46 CA         13.8250   78.7675    4.4175 C.3       3 GLC5        0.0000 
     47 CA         12.5180   78.2660    6.1680 C.3       6 GLP5        0.0000 
     48 CA         14.4020   81.2375    2.2505 C.3       3 GLC5        0.0000 
     49 CA         14.9348   81.8410    1.3395 C.3       3 GLC5        0.0000 
     50 CA         16.8450   80.6760    1.0220 C.3       9 GLL5        0.0000 
     51 CA         16.9958   78.8067    0.7429 C.3       3 GLC5        0.0000 
     52 CA         15.5500   80.2760    0.6680 C.3       9 GLL5        0.0000 
@<TRIPOS>BOND
@<TRIPOS>SUBSTRUCTURE
     1 ALC1       35 GROUP        1 X    ALC  0     ROOT ALC X 1
     2 SEC2        1 GROUP        1 X    SEC  0     **** SEC X 2
     3 GLC5       15 GROUP        1 X    GLC  0     **** GLC X 6
     4 ALP1       37 GROUP        1 Y    ALP  0     ROOT ALP Y 8
     5 SEP2        3 GROUP        1 Y    SEP  0     **** SEP Y 9
     6 GLP5       17 GROUP        1 Y    GLP  0     **** GLP Y 13
     7 ALL1       36 GROUP        1 Z    ALL  0     ROOT ALL Z 15
     8 SEL2        2 GROUP        1 Z    SEL  0     **** SEL Z 16
     9 GLL5       16 GROUP        1 Z    GLL  0     **** GLL Z 20
@<TRIPOS>SET

