#    Name: 2bfr_ADP_1_ligand
#    Modification time : Mon Mar 24 20:54:57 2014

@<TRIPOS>MOLECULE
2bfr_ADP_1_ligand
   38    40     1     0     0
SMALL
NO_CHARGES


@<TRIPOS>ATOM
      1 PB         15.1820   76.9810   -7.6950 P.3       1 ADP1193     0.0000 
      2 O1B        14.5970   75.6860   -7.2680 O.co2     1 ADP1193     0.0000 
      3 O2B        16.1960   76.8530   -8.8000 O.co2     1 ADP1193     0.0000 
      4 O3B        14.0590   78.0470   -8.0200 O.co2     1 ADP1193     0.0000 
      5 PA         16.2010   78.9400   -5.8420 P.3       1 ADP1193     0.0000 
      6 O1A        17.0470   78.8450   -4.5930 O.co2     1 ADP1193     0.0000 
      7 O2A        16.7290   79.8770   -6.9030 O.co2     1 ADP1193     0.0000 
      8 O3A        16.0070   77.4940   -6.4250 O.3       1 ADP1193     0.0000 
      9 O5'        14.7550   79.3080   -5.2870 O.3       1 ADP1193     0.0000 
     10 C5'        14.0540   78.4510   -4.3280 C.3       1 ADP1193     0.0000 
     11 C4'        13.2980   79.2290   -3.2410 C.3       1 ADP1193     0.0000 
     12 O4'        14.1050   79.2530   -2.0290 O.3       1 ADP1193     0.0000 
     13 C3'        12.9920   80.7250   -3.5440 C.3       1 ADP1193     0.0000 
     14 O3'        11.5850   80.9580   -3.3020 O.3       1 ADP1193     0.0000 
     15 C2'        13.9690   81.4680   -2.6160 C.3       1 ADP1193     0.0000 
     16 O2'        13.4970   82.7600   -2.2000 O.3       1 ADP1193     0.0000 
     17 C1'        14.0800   80.5270   -1.4200 C.3       1 ADP1193     0.0000 
     18 N9         15.3480   80.7210   -0.6060 N.pl3     1 ADP1193     0.0000 
     19 C8         16.5010   81.3570   -0.9680 C.2       1 ADP1193     0.0000 
     20 N7         17.4390   81.3520    0.0010 N.2       1 ADP1193     0.0000 
     21 C5         16.8450   80.6760    1.0220 C.ar      1 ADP1193     0.0000 
     22 C6         17.3250   80.3260    2.3570 C.ar      1 ADP1193     0.0000 
     23 N6         18.4810   80.6110    2.8500 N.pl3     1 ADP1193     0.0000 
     24 N1         16.4030   79.6180    3.1220 N.ar      1 ADP1193     0.0000 
     25 C2         15.1320   79.2690    2.6670 C.ar      1 ADP1193     0.0000 
     26 N3         14.6760   79.5830    1.4460 N.ar      1 ADP1193     0.0000 
     27 C4         15.5500   80.2760    0.6680 C.ar      1 ADP1193     0.0000 
     28 H          14.7665   77.7702   -3.8219 H         1 ADP1193     0.0000 
     29 H          13.3227   77.8021   -4.8488 H         1 ADP1193     0.0000 
     30 H          12.3611   78.7365   -3.0267 H         1 ADP1193     0.0000 
     31 H          13.2851   80.8905   -4.5540 H         1 ADP1193     0.0000 
     32 H          14.9210   81.4933   -3.0945 H         1 ADP1193     0.0000 
     33 H          13.2198   80.6456   -0.8116 H         1 ADP1193     0.0000 
     34 H          16.6276   81.7789   -1.8593 H         1 ADP1193     0.0000 
     35 H          14.5131   78.7294    3.3357 H         1 ADP1193     0.0000 
     36 H          11.1762   81.0396   -4.2110 H         1 ADP1193     0.0000 
     37 H          12.5329   82.7807   -2.4647 H         1 ADP1193     0.0000 
     38 H          18.4436   80.2934    3.7975 H         1 ADP1193     0.0000 
@<TRIPOS>BOND
     1    2    1 ar   
     2    3    1 ar   
     3    4    1 ar   
     4    8    1 1    
     5    6    5 ar   
     6    7    5 ar   
     7    8    5 1    
     8    9    5 1    
     9   10    9 1    
    10   11   10 1    
    11   28   10 1    
    12   29   10 1    
    13   12   11 1    
    14   13   11 1    
    15   30   11 1    
    16   17   12 1    
    17   14   13 1    
    18   15   13 1    
    19   31   13 1    
    20   36   14 1    
    21   16   15 1    
    22   17   15 1    
    23   32   15 1    
    24   37   16 1    
    25   18   17 1    
    26   33   17 1    
    27   19   18 1    
    28   27   18 1    
    29   20   19 2    
    30   34   19 1    
    31   21   20 1    
    32   22   21 ar   
    33   27   21 ar   
    34   23   22 1    
    35   24   22 ar   
    36   38   23 1    
    37   25   24 ar   
    38   26   25 ar   
    39   35   25 1    
    40   27   26 ar   
@<TRIPOS>SUBSTRUCTURE
     1 ADP1193     1 GROUP   
@<TRIPOS>SET

