#    Name: 3acy_702_1_INTS_M
#    Modification time : Tue Mar 25 11:43:12 2014

@<TRIPOS>MOLECULE
3acy_702_1_INTS_M
   80     0     9     0     0
SMALL
NO_CHARGES


@<TRIPOS>ATOM
      1 NZ         54.3210    6.9560   54.9795 N.4       2 LYC4        0.0000 
      2 NZ         55.2230    7.1910   53.6830 N.4       8 LYL4        0.0000 
      3 NZ         52.2730    6.0730   56.0970 N.4       5 LYP4        0.0000 
      4 N          54.3210    6.9560   54.9795 N.am      1 SEC2        0.0000 
      5 N          55.2230    7.1910   53.6830 N.am      7 SEL2        0.0000 
      6 N          53.4190    6.7210   56.2760 N.am      4 SEP2        0.0000 
      7 N          57.6060    6.3065   51.5940 N.am      1 SEC2        0.0000 
      8 N          56.1440    5.8310   52.1080 N.am      7 SEL2        0.0000 
      9 N          59.0680    6.7820   51.0800 N.am      4 SEP2        0.0000 
     10 NZ         53.0945    5.2855   54.1100 N.4       2 LYC4        0.0000 
     11 NZ         54.1830    5.0470   53.2970 N.4       8 LYL4        0.0000 
     12 N          53.0945    5.2855   54.1100 N.am      1 SEC2        0.0000 
     13 N          54.1830    5.0470   53.2970 N.am      7 SEL2        0.0000 
     14 N          52.0060    5.5240   54.9230 N.am      4 SEP2        0.0000 
     15 CA         53.3070   14.8865   59.1400 C.3       3 GLC5        0.0000 
     16 CA         54.1410   16.1270   58.1480 C.3       9 GLL5        0.0000 
     17 CA         52.4730   13.6460   60.1320 C.3       6 GLP5        0.0000 
     18 CA         52.3870   14.6770   58.2010 C.3       3 GLC5        0.0000 
     19 CA         53.6030   15.4680   57.0460 C.3       9 GLL5        0.0000 
     20 CA         51.1710   13.8860   59.3560 C.3       6 GLP5        0.0000 
     21 CA         58.5720   19.4195   52.5370 C.3       3 GLC5        0.0000 
     22 CA         57.1680   18.2490   53.0320 C.3       9 GLL5        0.0000 
     23 CA         59.9760   20.5900   52.0420 C.3       6 GLP5        0.0000 
     24 CA         58.2495   18.9085   51.3395 C.3       3 GLC5        0.0000 
     25 CA         56.3520   18.0460   51.9250 C.3       9 GLL5        0.0000 
     26 CA         60.1470   19.7710   50.7540 C.3       6 GLP5        0.0000 
     27 CA         57.8295   14.8365   57.9090 C.3       3 GLC5        0.0000 
     28 CA         56.3500   16.0640   57.1940 C.3       9 GLL5        0.0000 
     29 CA         59.3090   13.6090   58.6240 C.3       6 GLP5        0.0000 
     30 CA         53.7085   16.4430   51.9970 C.3       3 GLC5        0.0000 
     31 CA         55.6540   16.8480   51.7850 C.3       9 GLL5        0.0000 
     32 CA         51.7630   16.0380   52.2090 C.3       6 GLP5        0.0000 
     33 CA         52.7595   13.6645   51.8155 C.3       3 GLC5        0.0000 
     34 CA         54.5430   12.5660   51.7280 C.3       9 GLL5        0.0000 
     35 CA         50.9760   14.7630   51.9030 C.3       6 GLP5        0.0000 
     36 CA         53.2590   10.3465   48.7010 C.3       3 GLC5        0.0000 
     37 CA         53.8890   10.3080   50.8000 C.3       9 GLL5        0.0000 
     38 CA         52.6290   10.3850   46.6020 C.3       6 GLP5        0.0000 
     39 CA         51.1465    7.4280   52.6510 C.3       3 GLC5        0.0000 
     40 CA         53.0870    8.0960   51.8780 C.3       9 GLL5        0.0000 
     41 CA         49.2060    6.7600   53.4240 C.3       6 GLP5        0.0000 
     42 CA         57.7905   13.7550   55.6830 C.3       3 GLC5        0.0000 
     43 CA         56.7200   15.0190   54.9410 C.3       9 GLL5        0.0000 
     44 CA         58.8610   12.4910   56.4250 C.3       6 GLP5        0.0000 
     45 CA         54.8495   17.3302   59.5842 C.3       3 GLC5        0.0000 
     46 CA         55.4970   16.4200   58.2330 C.3       9 GLL5        0.0000 
     47 CA         54.8800   18.3870   60.9780 C.3       6 GLP5        0.0000 
     48 CA         54.0775   17.4637   56.6045 C.3       3 GLC5        0.0000 
     49 CA         54.2830   19.1300   55.6120 C.3       6 GLP5        0.0000 
     50 CA         55.1033   17.6860   56.6628 C.3       3 GLC5        0.0000 
     51 CA         55.5215   18.6388   54.0453 C.3       3 GLC5        0.0000 
     52 CA         58.3535   17.0962   52.1587 C.3       3 GLC5        0.0000 
     53 CA         59.9470   16.0450   51.8390 C.3       6 GLP5        0.0000 
     54 CA         54.7340   18.7710   51.4475 C.3       3 GLC5        0.0000 
     55 CA         53.4650   20.0950   51.0400 C.3       6 GLP5        0.0000 
     56 CA         55.7090   12.6750   49.5983 C.3       3 GLC5        0.0000 
     57 CA         57.2170   12.1530   51.0470 C.3       9 GLL5        0.0000 
     58 CA         54.6820   13.6830   48.2830 C.3       6 GLP5        0.0000 
     59 CA         58.6073   13.4733   50.7413 C.3       3 GLC5        0.0000 
     60 CA         60.1880   14.2010   50.1250 C.3       6 GLP5        0.0000 
     61 CA         57.5705   11.4610   49.0613 C.3       3 GLC5        0.0000 
     62 CA         58.4050   11.2550   47.2090 C.3       6 GLP5        0.0000 
     63 CA         54.7115   17.1890   55.8335 C.3       3 GLC5        0.0000 
     64 CA         55.8180   15.4050   56.0890 C.3       9 GLL5        0.0000 
     65 CA         56.0943   15.4354   59.3431 C.3       3 GLC5        0.0000 
     66 CA         56.6040   14.7020   60.9940 C.3       6 GLP5        0.0000 
     67 CA         55.4252   13.5590   50.0615 C.3       3 GLC5        0.0000 
     68 CA         55.5010   13.5320   52.0120 C.3       9 GLL5        0.0000 
     69 CA         55.6035   17.8987   54.7743 C.3       3 GLC5        0.0000 
     70 CA         56.5820   16.0650   53.8640 C.3       9 GLL5        0.0000 
     71 CA         58.4355   16.3562   52.8877 C.3       3 GLC5        0.0000 
     72 CA         57.2660   17.2700   54.0090 C.3       9 GLL5        0.0000 
     73 CA         57.8323   16.1958   52.0538 C.3       3 GLC5        0.0000 
     74 CA         55.7810   15.8450   52.7520 C.3       9 GLL5        0.0000 
     75 CA         54.4955   12.4118   49.6958 C.3       3 GLC5        0.0000 
     76 CA         53.5096   15.7286   55.0036 C.3       3 GLC5        0.0000 
     77 CA         52.0940   16.1150   53.6960 C.3       6 GLP5        0.0000 
     78 CA         54.1377   16.0350   53.5020 C.3       3 GLC5        0.0000 
     79 CA         56.4400   16.8895   50.4728 C.3       3 GLC5        0.0000 
     80 CA         56.9880   17.1330   48.6420 C.3       6 GLP5        0.0000 
@<TRIPOS>BOND
@<TRIPOS>SUBSTRUCTURE
     1 SEC2        4 GROUP        1 X    SEC  0     ROOT SEC X 2
     2 LYC4        1 GROUP        1 X    LYC  0     **** LYC X 4
     3 GLC5       15 GROUP        1 X    GLC  0     **** GLC X 6
     4 SEP2        6 GROUP        1 Y    SEP  0     ROOT SEP Y 9
     5 LYP4        3 GROUP        1 Y    LYP  0     **** LYP Y 11
     6 GLP5       17 GROUP        1 Y    GLP  0     **** GLP Y 13
     7 SEL2        5 GROUP        1 Z    SEL  0     ROOT SEL Z 16
     8 LYL4        2 GROUP        1 Z    LYL  0     **** LYL Z 18
     9 GLL5       16 GROUP        1 Z    GLL  0     **** GLL Z 20
@<TRIPOS>SET

