#    Name: 3acy_702_1_ligand
#    Modification time : Tue Mar 25 11:43:12 2014

@<TRIPOS>MOLECULE
3acy_702_1_ligand
   54    56     1     0     0
SMALL
NO_CHARGES


@<TRIPOS>ATOM
      1 OAA        55.2230    7.1910   53.6830 O.co2     1 7021001     0.0000 
      2 OAB        56.1440    5.8310   52.1080 O.co2     1 7021001     0.0000 
      3 OAC        54.1830    5.0470   53.2970 O.co2     1 7021001     0.0000 
      4 OAD        51.6250    5.2660   51.5180 O.co2     1 7021001     0.0000 
      5 OAE        51.9790    6.7390   49.5300 O.co2     1 7021001     0.0000 
      6 OAF        53.4760    4.7790   49.8300 O.co2     1 7021001     0.0000 
      7 CAG        54.1410   16.1270   58.1480 C.ar      1 7021001     0.0000 
      8 CAH        53.6030   15.4680   57.0460 C.ar      1 7021001     0.0000 
      9 CAI        55.4970   16.4200   58.2330 C.ar      1 7021001     0.0000 
     10 CAJ        57.1680   18.2490   53.0320 C.ar      1 7021001     0.0000 
     11 CAK        56.3520   18.0460   51.9250 C.ar      1 7021001     0.0000 
     12 CAL        57.2170   12.1530   51.0470 C.ar      1 7021001     0.0000 
     13 CAM        54.4620   15.0910   56.0210 C.ar      1 7021001     0.0000 
     14 CAN        56.3500   16.0640   57.1940 C.ar      1 7021001     0.0000 
     15 CAO        56.2550   11.1810   50.7800 C.ar      1 7021001     0.0000 
     16 CAP        56.8360   13.3380   51.6680 C.ar      1 7021001     0.0000 
     17 CAQ        57.2660   17.2700   54.0090 C.ar      1 7021001     0.0000 
     18 CAR        55.6540   16.8480   51.7850 C.ar      1 7021001     0.0000 
     19 CAS        54.5430   12.5660   51.7280 C.ar      1 7021001     0.0000 
     20 CAT        53.9720    9.3340   51.9760 C.3       1 7021001     0.0000 
     21 CAU        53.8890   10.3080   50.8000 C.3       1 7021001     0.0000 
     22 CAV        53.0870    8.0960   51.8780 C.3       1 7021001     0.0000 
     23 CAW        56.7200   15.0190   54.9410 C.3       1 7021001     0.0000 
     24 OAX        55.0720   14.6770   52.6260 O.3       1 7021001     0.0000 
     25 CAY        54.9150   11.3800   51.1060 C.ar      1 7021001     0.0000 
     26 CAZ        55.8180   15.4050   56.0890 C.ar      1 7021001     0.0000 
     27 CBA        55.5010   13.5320   52.0120 C.ar      1 7021001     0.0000 
     28 CBB        56.5820   16.0650   53.8640 C.ar      1 7021001     0.0000 
     29 CBC        55.7810   15.8450   52.7520 C.ar      1 7021001     0.0000 
     30 CBD        53.8600    6.8570   51.4220 C.3       1 7021001     0.0000 
     31 PBE        52.6370    5.8190   50.5370 P.3       1 7021001     0.0000 
     32 SBF        54.8230    6.2150   52.6470 S.o2      1 7021001     0.0000 
     33 H          53.5114   16.4068   58.9270 H         1 7021001     0.0000 
     34 H          52.6081   15.2685   56.9938 H         1 7021001     0.0000 
     35 H          55.8692   16.8992   59.0626 H         1 7021001     0.0000 
     36 H          57.6983   19.1257   53.1248 H         1 7021001     0.0000 
     37 H          56.2625   18.7781   51.2094 H         1 7021001     0.0000 
     38 H          58.1946   11.9956   50.7882 H         1 7021001     0.0000 
     39 H          54.0967   14.5771   55.2065 H         1 7021001     0.0000 
     40 H          57.3443   16.2807   57.2398 H         1 7021001     0.0000 
     41 H          56.5418   10.2924   50.3300 H         1 7021001     0.0000 
     42 H          57.5313   14.0620   51.8707 H         1 7021001     0.0000 
     43 H          57.8451   17.4312   54.8451 H         1 7021001     0.0000 
     44 H          55.0449   16.6988   50.9717 H         1 7021001     0.0000 
     45 H          53.5587   12.7287   51.9781 H         1 7021001     0.0000 
     46 H          53.7182    9.8819   52.9086 H         1 7021001     0.0000 
     47 H          55.0282    9.0100   52.0940 H         1 7021001     0.0000 
     48 H          52.9132   10.7358   50.7602 H         1 7021001     0.0000 
     49 H          54.1473    9.8006   49.8986 H         1 7021001     0.0000 
     50 H          52.2737    8.2898   51.1691 H         1 7021001     0.0000 
     51 H          52.6381    7.8957   52.8578 H         1 7021001     0.0000 
     52 H          56.4219   14.0542   54.5532 H         1 7021001     0.0000 
     53 H          57.7457   14.9795   55.2822 H         1 7021001     0.0000 
     54 H          54.5280    7.1748   50.5959 H         1 7021001     0.0000 
@<TRIPOS>BOND
     1   32    1 ar   
     2   32    2 ar   
     3   32    3 ar   
     4   31    4 ar   
     5   31    5 ar   
     6   31    6 ar   
     7    8    7 ar   
     8    9    7 ar   
     9   33    7 1    
    10   13    8 ar   
    11   34    8 1    
    12   14    9 ar   
    13   35    9 1    
    14   11   10 ar   
    15   17   10 ar   
    16   36   10 1    
    17   18   11 ar   
    18   37   11 1    
    19   15   12 ar   
    20   16   12 ar   
    21   38   12 1    
    22   26   13 ar   
    23   39   13 1    
    24   26   14 ar   
    25   40   14 1    
    26   25   15 ar   
    27   41   15 1    
    28   27   16 ar   
    29   42   16 1    
    30   28   17 ar   
    31   43   17 1    
    32   29   18 ar   
    33   44   18 1    
    34   25   19 ar   
    35   27   19 ar   
    36   45   19 1    
    37   21   20 1    
    38   22   20 1    
    39   46   20 1    
    40   47   20 1    
    41   25   21 1    
    42   48   21 1    
    43   49   21 1    
    44   30   22 1    
    45   50   22 1    
    46   51   22 1    
    47   26   23 1    
    48   28   23 1    
    49   52   23 1    
    50   53   23 1    
    51   27   24 1    
    52   29   24 1    
    53   29   28 ar   
    54   31   30 1    
    55   32   30 1    
    56   54   30 1    
@<TRIPOS>SUBSTRUCTURE
     1 7021001     1 GROUP   
@<TRIPOS>SET

