#    Name: 1udy_FAD_1_INTS_M
#    Modification time : Tue Mar 25 06:30:37 2014

@<TRIPOS>MOLECULE
1udy_FAD_1_INTS_M
  139     0    12     0     0
SMALL
NO_CHARGES


@<TRIPOS>ATOM
      1 N           4.3695   21.6175   63.9350 N.am      2 SEC2        0.0000 
      2 N           5.4800   22.1340   64.8010 N.am     10 SEL2        0.0000 
      3 N           3.2590   21.1010   63.0690 N.am      6 SEP2        0.0000 
      4 NZ          8.6590   23.6595   62.8475 N.4       3 LYC4        0.0000 
      5 NZ          7.4600   23.2970   64.0380 N.4      11 LYL4        0.0000 
      6 NZ         10.3930   24.9260   62.4690 N.4       7 LYP4        0.0000 
      7 N           8.8160   24.0680   63.9100 N.am      2 SEC2        0.0000 
      8 N           7.4600   23.2970   64.0380 N.am     10 SEL2        0.0000 
      9 N          10.1720   24.8390   63.7820 N.am      6 SEP2        0.0000 
     10 N           8.6590   23.6595   62.8475 N.am      2 SEC2        0.0000 
     11 N           9.8580   24.0220   61.6570 N.am      6 SEP2        0.0000 
     12 CA          8.1270   19.0720   65.7985 C.3       4 GLC5        0.0000 
     13 CA          7.1850   20.3790   66.3200 C.3      12 GLL5        0.0000 
     14 CA          9.0690   17.7650   65.2770 C.3       8 GLP5        0.0000 
     15 CA          7.4005   22.2095   68.3415 C.3       4 GLC5        0.0000 
     16 CA          6.3260   20.5460   67.5890 C.3      12 GLL5        0.0000 
     17 CA          8.4750   23.8730   69.0940 C.3       8 GLP5        0.0000 
     18 CA          4.4715   18.2580   65.9770 C.3       4 GLC5        0.0000 
     19 CA          5.2900   19.4250   67.6800 C.3      12 GLL5        0.0000 
     20 CA          3.6530   17.0910   64.2740 C.3       8 GLP5        0.0000 
     21 O           6.3505   17.8960   68.7610 O.2       1 ALC1        0.0000 
     22 O           5.3370   18.6450   68.8270 O.2       9 ALL1        0.0000 
     23 O           7.3640   17.1470   68.6950 O.2       5 ALP1        0.0000 
     24 CA          3.2185   18.5150   66.2260 C.3       4 GLC5        0.0000 
     25 CA          4.0080   20.1450   67.3350 C.3      12 GLL5        0.0000 
     26 CA          2.4290   16.8850   65.1170 C.3       8 GLP5        0.0000 
     27 CA          2.0830   19.6400   68.1810 C.3       4 GLC5        0.0000 
     28 CA          0.1580   19.1350   69.0270 C.3       8 GLP5        0.0000 
     29 N           2.3240   18.8095   66.5315 N.am      2 SEC2        0.0000 
     30 N           2.8580   19.4730   67.7310 N.am     10 SEL2        0.0000 
     31 N           1.7900   18.1460   65.3320 N.am      6 SEP2        0.0000 
     32 O           2.6630   18.3895   68.4410 O.2       1 ALC1        0.0000 
     33 O           2.8580   19.4730   67.7310 O.2       9 ALL1        0.0000 
     34 O           2.4680   17.3060   69.1510 O.2       5 ALP1        0.0000 
     35 CA          4.0390   21.3625   70.0830 C.3       4 GLC5        0.0000 
     36 CA          4.2040   21.4280   68.0720 C.3      12 GLL5        0.0000 
     37 CA          3.8740   21.2970   72.0940 C.3       8 GLP5        0.0000 
     38 N           3.2700   25.4790   66.4310 N.am      2 SEC2        0.0000 
     39 N           2.4990   24.2780   66.5030 N.am     10 SEL2        0.0000 
     40 N           4.0410   26.6800   66.3590 N.am      6 SEP2        0.0000 
     41 CA          0.6180   22.9375   66.1315 C.3       4 GLC5        0.0000 
     42 CA          1.7020   24.0500   67.5810 C.3      12 GLL5        0.0000 
     43 CA         -0.4660   21.8250   64.6820 C.3       8 GLP5        0.0000 
     44 CA         -1.3280   23.9870   67.5705 C.3       4 GLC5        0.0000 
     45 CA          0.4830   24.7200   68.0400 C.3      12 GLL5        0.0000 
     46 CA         -3.1390   23.2540   67.1010 C.3       8 GLP5        0.0000 
     47 N          -1.3905   24.3600   69.9040 N.am      2 SEC2        0.0000 
     48 N          -0.0620   24.2020   69.1990 N.am     10 SEL2        0.0000 
     49 N          -2.7190   24.5180   70.6090 N.am      6 SEP2        0.0000 
     50 CA          0.3260   21.1385   69.4495 C.3       4 GLC5        0.0000 
     51 CA          0.4940   23.1420   69.8720 C.3      12 GLL5        0.0000 
     52 CA          0.9400   24.7955   70.8480 C.3       4 GLC5        0.0000 
     53 CA          1.3860   26.4490   71.8240 C.3       8 GLP5        0.0000 
     54 CA          2.1175   22.9615   71.1160 C.3       4 GLC5        0.0000 
     55 CA          3.7410   22.7810   72.3600 C.3       8 GLP5        0.0000 
     56 CA          1.1705   21.0480   68.6935 C.3       4 GLC5        0.0000 
     57 CA          2.1830   22.9610   68.3600 C.3      12 GLL5        0.0000 
     58 CA          2.9620   22.8710   70.3600 C.3       4 GLC5        0.0000 
     59 N           6.1970   18.2795   55.0000 N.am      2 SEC2        0.0000 
     60 N           6.4370   16.8020   54.4020 N.am     10 SEL2        0.0000 
     61 N           5.9570   19.7570   55.5980 N.am      6 SEP2        0.0000 
     62 N           5.4665   19.2130   51.6530 N.am      2 SEC2        0.0000 
     63 N           5.3910   17.9660   52.8570 N.am     10 SEL2        0.0000 
     64 N           5.5420   20.4600   50.4490 N.am      6 SEP2        0.0000 
     65 N           5.7895   19.5840   53.0080 N.am      2 SEC2        0.0000 
     66 N           6.1880   21.2020   53.1590 N.am      6 SEP2        0.0000 
     67 N           5.6740   18.8615   54.2275 N.am      2 SEC2        0.0000 
     68 O           6.0265   16.3560   50.8485 O.2       1 ALC1        0.0000 
     69 O           5.9970   15.9050   52.2000 O.2       9 ALL1        0.0000 
     70 O           6.0560   16.8070   49.4970 O.2       5 ALP1        0.0000 
     71 N           8.0665   13.5110   51.3650 N.am      2 SEC2        0.0000 
     72 N           6.6360   13.8420   51.5950 N.am     10 SEL2        0.0000 
     73 N           9.4970   13.1800   51.1350 N.am      6 SEP2        0.0000 
     74 N           7.3320   12.5920   52.1425 N.am      2 SEC2        0.0000 
     75 N           8.0280   11.3420   52.6900 N.am      6 SEP2        0.0000 
     76 N           8.6620   13.2635   52.6485 N.am      2 SEC2        0.0000 
     77 N           7.8270   13.3470   54.1620 N.am     10 SEL2        0.0000 
     78 N           7.9275   12.3445   53.4260 N.am      2 SEC2        0.0000 
     79 CA         10.9995   11.8120   54.8690 C.3       4 GLC5        0.0000 
     80 CA          9.0890   12.0620   55.8320 C.3      12 GLL5        0.0000 
     81 CA         12.9100   11.5620   53.9060 C.3       8 GLP5        0.0000 
     82 CA         12.0615   10.6120   56.0870 C.3       4 GLC5        0.0000 
     83 CA         10.4320   10.6720   57.4590 C.3      12 GLL5        0.0000 
     84 CA         13.6910   10.5520   54.7150 C.3       8 GLP5        0.0000 
     85 CA          9.0475   10.2300   59.0370 C.3       4 GLC5        0.0000 
     86 CA          7.6630    9.7880   60.6150 C.3       8 GLP5        0.0000 
     87 CA          8.2145   10.6030   57.6995 C.3       4 GLC5        0.0000 
     88 CA          5.9970   10.5340   57.9400 C.3       8 GLP5        0.0000 
     89 CA         11.0030    9.7270   59.2805 C.3       4 GLC5        0.0000 
     90 CA         11.5740    8.7820   61.1020 C.3       8 GLP5        0.0000 
     91 CA          9.0805   12.0875   60.2565 C.3       4 GLC5        0.0000 
     92 CA         10.2280   12.9840   59.4350 C.3      12 GLL5        0.0000 
     93 CA          7.9330   11.1910   61.0780 C.3       8 GLP5        0.0000 
     94 CA         10.4260   14.6790   60.7750 C.3       4 GLC5        0.0000 
     95 CA         10.6240   16.3740   62.1150 C.3       8 GLP5        0.0000 
     96 CA         11.0435   11.5230   60.4830 C.3       4 GLC5        0.0000 
     97 CA         11.8590   10.0620   61.5310 C.3       8 GLP5        0.0000 
     98 CA          7.3705   18.4445   56.0725 C.3       4 GLC5        0.0000 
     99 CA          7.5160   16.5840   56.9400 C.3      12 GLL5        0.0000 
    100 CA          7.2250   20.3050   55.2050 C.3       8 GLP5        0.0000 
    101 CA          9.2620   16.6035   56.4565 C.3       4 GLC5        0.0000 
    102 CA         11.0080   16.6230   55.9730 C.3       8 GLP5        0.0000 
    103 CA          5.7475   14.6330   58.3580 C.3       4 GLC5        0.0000 
    104 CA          6.4110   16.4980   58.0630 C.3      12 GLL5        0.0000 
    105 CA          5.0840   12.7680   58.6530 C.3       8 GLP5        0.0000 
    106 CA          4.7255   16.9095   56.6935 C.3       4 GLC5        0.0000 
    107 CA          3.0400   17.3210   55.3240 C.3       8 GLP5        0.0000 
    108 O           4.6010   15.7440   56.7375 O.2       1 ALC1        0.0000 
    109 O           5.1240   16.6100   57.4690 O.2       9 ALL1        0.0000 
    110 O           4.0780   14.8780   56.0060 O.2       5 ALP1        0.0000 
    111 CA          7.4045   19.1850   57.6155 C.3       4 GLC5        0.0000 
    112 CA          6.7670   17.6850   58.7900 C.3      12 GLL5        0.0000 
    113 CA          8.0420   20.6850   56.4410 C.3       8 GLP5        0.0000 
    114 CA          6.4495   16.4740   61.4940 C.3       4 GLC5        0.0000 
    115 CA          5.9710   18.0640   59.9910 C.3      12 GLL5        0.0000 
    116 CA          6.9280   14.8840   62.9970 C.3       8 GLP5        0.0000 
    117 CA          7.4035   19.9775   58.3490 C.3       4 GLC5        0.0000 
    118 CA          6.7650   19.2700   60.2570 C.3      12 GLL5        0.0000 
    119 CA          6.2635   20.8705   59.4935 C.3       4 GLC5        0.0000 
    120 CA          5.7620   22.4710   58.7300 C.3       8 GLP5        0.0000 
    121 N           9.2545   18.3420   62.6180 N.am      2 SEC2        0.0000 
    122 N           8.6150   19.4810   62.1730 N.am     10 SEL2        0.0000 
    123 N           9.8940   17.2030   63.0630 N.am      6 SEP2        0.0000 
    124 N           8.9185   22.9235   61.6135 N.am      2 SEC2        0.0000 
    125 N           7.9790   21.8250   61.5700 N.am     10 SEL2        0.0000 
    126 CA          7.1270   19.3547   69.1273 C.3       4 GLC5        0.0000 
    127 CA          8.4460   18.7240   70.6200 C.3       8 GLP5        0.0000 
    128 CA          1.3573   25.8060   69.1882 C.3       4 GLC5        0.0000 
    129 CA          1.6220   27.2270   70.5660 C.3       8 GLP5        0.0000 
    130 CA          9.6745   15.2065   55.9505 C.3       4 GLC5        0.0000 
    131 CA          8.2960   14.3180   56.4070 C.3      12 GLL5        0.0000 
    132 CA          8.7877   11.8383   59.3253 C.3       4 GLC5        0.0000 
    133 CA          9.6900   11.9350   57.0900 C.3      12 GLL5        0.0000 
    134 CA         10.1280   15.1203   56.9222 C.3       4 GLC5        0.0000 
    135 CA          9.5950   13.0360   58.0550 C.3      12 GLL5        0.0000 
    136 CA          6.8412   13.5132   57.8503 C.3       4 GLC5        0.0000 
    137 CA          8.9010   14.1990   57.6880 C.3      12 GLL5        0.0000 
    138 CA          6.6609   12.7985   55.6309 C.3       4 GLC5        0.0000 
    139 CA          4.8050   12.1070   55.2380 C.3       8 GLP5        0.0000 
@<TRIPOS>BOND
@<TRIPOS>SUBSTRUCTURE
     1 ALC1       21 GROUP        1 X    ALC  0     ROOT ALC X 1
     2 SEC2        1 GROUP        1 X    SEC  0     **** SEC X 2
     3 LYC4        4 GROUP        1 X    LYC  0     **** LYC X 4
     4 GLC5       12 GROUP        1 X    GLC  0     **** GLC X 6
     5 ALP1       23 GROUP        1 Y    ALP  0     ROOT ALP Y 8
     6 SEP2        3 GROUP        1 Y    SEP  0     **** SEP Y 9
     7 LYP4        6 GROUP        1 Y    LYP  0     **** LYP Y 11
     8 GLP5       14 GROUP        1 Y    GLP  0     **** GLP Y 13
     9 ALL1       22 GROUP        1 Z    ALL  0     ROOT ALL Z 15
    10 SEL2        2 GROUP        1 Z    SEL  0     **** SEL Z 16
    11 LYL4        5 GROUP        1 Z    LYL  0     **** LYL Z 18
    12 GLL5       13 GROUP        1 Z    GLL  0     **** GLL Z 20
@<TRIPOS>SET

