#    Name: 1udy_FAD_1_ligand
#    Modification time : Tue Mar 25 06:30:37 2014

@<TRIPOS>MOLECULE
1udy_FAD_1_ligand
   84    89     1     0     0
SMALL
NO_CHARGES


@<TRIPOS>ATOM
      1 PA          6.8940   22.1190   64.3930 P.3       1 FAD399      0.0000 
      2 O1A         5.4800   22.1340   64.8010 O.co2     1 FAD399      0.0000 
      3 O2A         7.4600   23.2970   64.0380 O.co2     1 FAD399      0.0000 
      4 O5B         7.5070   21.6550   65.7000 O.3       1 FAD399      0.0000 
      5 C5B         7.1850   20.3790   66.3200 C.3       1 FAD399      0.0000 
      6 C4B         6.3260   20.5460   67.5890 C.3       1 FAD399      0.0000 
      7 O4B         5.5570   21.8140   67.5850 O.3       1 FAD399      0.0000 
      8 C3B         5.2900   19.4250   67.6800 C.3       1 FAD399      0.0000 
      9 O3B         5.3370   18.6450   68.8270 O.3       1 FAD399      0.0000 
     10 C2B         4.0080   20.1450   67.3350 C.3       1 FAD399      0.0000 
     11 O2B         2.8580   19.4730   67.7310 O.3       1 FAD399      0.0000 
     12 C1B         4.2040   21.4280   68.0720 C.3       1 FAD399      0.0000 
     13 N9A         3.3260   22.5390   67.6810 N.pl3     1 FAD399      0.0000 
     14 C8A         3.4560   23.3650   66.5870 C.2       1 FAD399      0.0000 
     15 N7A         2.4990   24.2780   66.5030 N.2       1 FAD399      0.0000 
     16 C5A         1.7020   24.0500   67.5810 C.ar      1 FAD399      0.0000 
     17 C6A         0.4830   24.7200   68.0400 C.ar      1 FAD399      0.0000 
     18 N6A        -0.0680   25.7320   67.4210 N.pl3     1 FAD399      0.0000 
     19 N1A        -0.0620   24.2020   69.1990 N.ar      1 FAD399      0.0000 
     20 C2A         0.4940   23.1420   69.8720 C.ar      1 FAD399      0.0000 
     21 N3A         1.6110   22.4710   69.5150 N.ar      1 FAD399      0.0000 
     22 C4A         2.1830   22.9610   68.3600 C.ar      1 FAD399      0.0000 
     23 N1          6.4370   16.8020   54.4020 N.2       1 FAD399      0.0000 
     24 C2          5.9310   16.9520   53.1840 C.2       1 FAD399      0.0000 
     25 O2          5.3910   17.9660   52.8570 O.2       1 FAD399      0.0000 
     26 N3          5.9970   15.9050   52.2000 N.am      1 FAD399      0.0000 
     27 C4          6.6060   14.6900   52.4630 C.2       1 FAD399      0.0000 
     28 O4          6.6360   13.8420   51.5950 O.2       1 FAD399      0.0000 
     29 C4X         7.1810   14.5120   53.8080 C.2       1 FAD399      0.0000 
     30 N5          7.8270   13.3470   54.1620 N.2       1 FAD399      0.0000 
     31 C5X         8.3860   13.2620   55.4490 C.ar      1 FAD399      0.0000 
     32 C6          9.0890   12.0620   55.8320 C.ar      1 FAD399      0.0000 
     33 C7          9.6900   11.9350   57.0900 C.ar      1 FAD399      0.0000 
     34 C7M        10.4320   10.6720   57.4590 C.3       1 FAD399      0.0000 
     35 C8          9.5950   13.0360   58.0550 C.ar      1 FAD399      0.0000 
     36 C8M        10.2280   12.9840   59.4350 C.3       1 FAD399      0.0000 
     37 C9          8.9010   14.1990   57.6880 C.ar      1 FAD399      0.0000 
     38 C9A         8.2960   14.3180   56.4070 C.ar      1 FAD399      0.0000 
     39 N10         7.5950   15.5080   55.9830 N.pl3     1 FAD399      0.0000 
     40 C10         7.0650   15.6380   54.7520 C.2       1 FAD399      0.0000 
     41 C1'         7.5160   16.5840   56.9400 C.3       1 FAD399      0.0000 
     42 C2'         6.4110   16.4980   58.0630 C.3       1 FAD399      0.0000 
     43 O2'         5.1240   16.6100   57.4690 O.3       1 FAD399      0.0000 
     44 C3'         6.7670   17.6850   58.7900 C.3       1 FAD399      0.0000 
     45 O3'         8.0870   17.4360   59.3350 O.3       1 FAD399      0.0000 
     46 C4'         5.9710   18.0640   59.9910 C.3       1 FAD399      0.0000 
     47 O4'         4.5730   18.3210   59.6550 O.3       1 FAD399      0.0000 
     48 C5'         6.7650   19.2700   60.2570 C.3       1 FAD399      0.0000 
     49 O5'         6.3880   20.0250   61.4830 O.3       1 FAD399      0.0000 
     50 P           7.5590   20.6410   62.1480 P.3       1 FAD399      0.0000 
     51 O1P         8.6150   19.4810   62.1730 O.co2     1 FAD399      0.0000 
     52 O2P         7.9790   21.8250   61.5700 O.co2     1 FAD399      0.0000 
     53 O3P         7.0260   20.9510   63.4230 O.3       1 FAD399      0.0000 
     54 H           8.1002   19.8357   66.6062 H         1 FAD399      0.0000 
     55 H           6.6290   19.7298   65.6242 H         1 FAD399      0.0000 
     56 H           6.9512   20.4949   68.4543 H         1 FAD399      0.0000 
     57 H           5.5120   18.8019   66.7491 H         1 FAD399      0.0000 
     58 H           4.0500   20.3742   66.2816 H         1 FAD399      0.0000 
     59 H           4.2528   21.2734   69.0994 H         1 FAD399      0.0000 
     60 H           4.2058   23.2642   65.9378 H         1 FAD399      0.0000 
     61 H           0.3803   26.0292   66.5780 H         1 FAD399      0.0000 
     62 H          -0.8870   26.1157   67.8476 H         1 FAD399      0.0000 
     63 H          -0.0152   22.8214   70.7688 H         1 FAD399      0.0000 
     64 H           5.5697   16.0878   51.2746 H         1 FAD399      0.0000 
     65 H           9.1398   11.2913   55.1515 H         1 FAD399      0.0000 
     66 H           8.8243   14.9820   58.3503 H         1 FAD399      0.0000 
     67 H           7.3558   17.5729   56.4258 H         1 FAD399      0.0000 
     68 H           8.4945   16.7182   57.4808 H         1 FAD399      0.0000 
     69 H           6.5963   15.6390   58.6025 H         1 FAD399      0.0000 
     70 H           6.8510   18.5447   58.1353 H         1 FAD399      0.0000 
     71 H           6.1353   17.3587   60.7341 H         1 FAD399      0.0000 
     72 H           6.7014   19.9599   59.3776 H         1 FAD399      0.0000 
     73 H           7.8484   18.9960   60.3239 H         1 FAD399      0.0000 
     74 H          11.1946   10.4941   56.8371 H         1 FAD399      0.0000 
     75 H          10.8123   10.7211   58.3826 H         1 FAD399      0.0000 
     76 H           9.8364    9.8693   57.4296 H         1 FAD399      0.0000 
     77 H          11.2196   12.8647   59.3845 H         1 FAD399      0.0000 
     78 H          10.0597   13.8229   59.9527 H         1 FAD399      0.0000 
     79 H           9.8690   12.2263   59.9800 H         1 FAD399      0.0000 
     80 H           6.3101   18.4803   68.9881 H         1 FAD399      0.0000 
     81 H           3.1859   18.6738   68.2347 H         1 FAD399      0.0000 
     82 H           4.9881   15.7475   56.9816 H         1 FAD399      0.0000 
     83 H           7.9905   17.5755   60.3205 H         1 FAD399      0.0000 
     84 H           4.4191   17.8318   58.7965 H         1 FAD399      0.0000 
@<TRIPOS>BOND
     1    2    1 ar   
     2    3    1 ar   
     3    4    1 1    
     4   53    1 1    
     5    5    4 1    
     6    6    5 1    
     7   54    5 1    
     8   55    5 1    
     9    7    6 1    
    10    8    6 1    
    11   56    6 1    
    12   12    7 1    
    13    9    8 1    
    14   10    8 1    
    15   57    8 1    
    16   80    9 1    
    17   11   10 1    
    18   12   10 1    
    19   58   10 1    
    20   81   11 1    
    21   13   12 1    
    22   59   12 1    
    23   14   13 1    
    24   22   13 1    
    25   15   14 2    
    26   60   14 1    
    27   16   15 1    
    28   17   16 ar   
    29   22   16 ar   
    30   18   17 1    
    31   19   17 ar   
    32   61   18 1    
    33   62   18 1    
    34   20   19 ar   
    35   21   20 ar   
    36   63   20 1    
    37   22   21 ar   
    38   24   23 1    
    39   40   23 2    
    40   25   24 2    
    41   26   24 am   
    42   27   26 am   
    43   64   26 1    
    44   28   27 2    
    45   29   27 1    
    46   30   29 2    
    47   40   29 1    
    48   31   30 1    
    49   32   31 ar   
    50   38   31 ar   
    51   33   32 ar   
    52   65   32 1    
    53   34   33 1    
    54   35   33 ar   
    55   74   34 1    
    56   75   34 1    
    57   76   34 1    
    58   36   35 1    
    59   37   35 ar   
    60   77   36 1    
    61   78   36 1    
    62   79   36 1    
    63   38   37 ar   
    64   66   37 1    
    65   39   38 1    
    66   40   39 1    
    67   41   39 1    
    68   42   41 1    
    69   67   41 1    
    70   68   41 1    
    71   43   42 1    
    72   44   42 1    
    73   69   42 1    
    74   82   43 1    
    75   45   44 1    
    76   46   44 1    
    77   70   44 1    
    78   83   45 1    
    79   47   46 1    
    80   48   46 1    
    81   71   46 1    
    82   84   47 1    
    83   49   48 1    
    84   72   48 1    
    85   73   48 1    
    86   50   49 1    
    87   51   50 ar   
    88   52   50 ar   
    89   53   50 1    
@<TRIPOS>SUBSTRUCTURE
     1 FAD399      1 GROUP   
@<TRIPOS>SET

