#    Name: 2OPM_1_CAVITY_N1_6.mol2
#    Modification time : Tue Mar 11 03:36:50 2014

@<TRIPOS>MOLECULE
2OPM_1_CAVITY_N1_6.mol2
   70     0     7     0     0
SMALL
NO_CHARGES


@<TRIPOS>ATOM
      1 CA         20.2820   86.2074   24.3298 C.3       6 GLY6        0.0000 
      2 CA         20.8382   86.6098   22.9961 C.3       6 GLY6        0.0000 
      3 OD1        16.4849   78.4089   25.4546 O.3       3 ASP3        0.0000 
      4 OD1        16.0592   77.0906   24.8793 O.3       3 ASP3        0.0000 
      5 OD1        15.6335   75.7724   24.3040 O.3       3 ASP3        0.0000 
      6 CA         18.9556   86.7992   23.9552 C.3       6 GLY6        0.0000 
      7 CA         19.5118   87.2016   22.6215 C.3       6 GLY6        0.0000 
      8 CA         18.5299   85.4810   23.3799 C.3       6 GLY6        0.0000 
      9 CA         19.0861   85.8833   22.0462 C.3       6 GLY6        0.0000 
     10 CA         19.6423   86.2857   20.7125 C.3       6 GLY6        0.0000 
     11 N          18.6604   84.5651   21.4710 N.2       2 ALA2        0.0000 
     12 CA         19.2165   84.9674   20.1373 C.3       6 GLY6        0.0000 
     13 CA         16.0099   81.6373   26.2305 C.3       6 GLY6        0.0000 
     14 NZ         16.5661   82.0396   24.8968 N.2       4 LYS4        0.0000 
     15 NZ         17.1223   82.4420   23.5631 N.2       4 LYS4        0.0000 
     16 OD1        15.0280   79.9166   26.9889 O.3       3 ASP3        0.0000 
     17 NZ         15.5842   80.3190   25.6552 N.2       4 LYS4        0.0000 
     18 OD1        14.6023   78.5983   26.4136 O.3       3 ASP3        0.0000 
     19 NZ         15.1584   79.0007   25.0799 N.2       4 LYS4        0.0000 
     20 NZ         15.7146   79.4031   23.7463 N.2       4 LYS4        0.0000 
     21 OD1        14.1765   77.2801   25.8384 O.3       3 ASP3        0.0000 
     22 OD1        14.7327   77.6825   24.5047 O.3       3 ASP3        0.0000 
     23 NZ         15.2889   78.0848   23.1710 N.2       4 LYS4        0.0000 
     24 OD1        14.3070   76.3642   23.9294 O.3       3 ASP3        0.0000 
     25 CA         17.6292   87.3910   23.5806 C.3       6 GLY6        0.0000 
     26 CA         18.1853   87.7934   22.2469 C.3       6 GLY6        0.0000 
     27 CZ         17.2034   86.0728   23.0053 C.ar      5 PHE5        0.0000 
     28 CZ         17.7596   86.4752   21.6716 C.ar      5 PHE5        0.0000 
     29 CZ         18.3158   86.8775   20.3379 C.ar      5 PHE5        0.0000 
     30 CA         15.6653   83.9497   25.0974 C.3       6 GLY6        0.0000 
     31 CA         16.2215   84.3521   23.7637 C.3       6 GLY6        0.0000 
     32 CZ         16.7777   84.7545   22.4300 C.ar      5 PHE5        0.0000 
     33 CZ         17.3339   85.1569   21.0964 C.ar      5 PHE5        0.0000 
     34 N          14.6834   82.2291   25.8559 N.2       2 ALA2        0.0000 
     35 N          15.2396   82.6315   24.5222 N.2       2 ALA2        0.0000 
     36 CA         15.7958   83.0338   23.1885 C.3       6 GLY6        0.0000 
     37 OG         13.7015   80.5084   26.6143 O.2       1 SER1        0.0000 
     38 CA         14.2577   80.9108   25.2806 C.3       6 GLY6        0.0000 
     39 NZ         14.8139   81.3132   23.9469 N.2       4 LYS4        0.0000 
     40 NZ         15.3701   81.7156   22.6132 N.2       4 LYS4        0.0000 
     41 N          13.2758   79.1902   26.0390 N.2       2 ALA2        0.0000 
     42 DU         13.8320   79.5925   24.7053 H         7 CUB7        0.0000 
     43 DU         14.3882   79.9949   23.3716 H         7 CUB7        0.0000 
     44 CA         14.9444   80.3973   22.0379 C.3       6 GLY6        0.0000 
     45 N          12.8501   77.8719   25.4638 N.2       2 ALA2        0.0000 
     46 DU         13.4063   78.2743   24.1301 H         7 CUB7        0.0000 
     47 CA         13.9625   78.6767   22.7964 C.3       6 GLY6        0.0000 
     48 NZ         12.9806   76.9560   23.5548 N.2       4 LYS4        0.0000 
     49 O          13.5368   77.3584   22.2211 O.2       2 ALA2        0.0000 
     50 N          13.9132   83.2233   24.1476 N.2       2 ALA2        0.0000 
     51 CA         14.4694   83.6257   22.8139 C.3       6 GLY6        0.0000 
     52 OG         12.9313   81.5026   24.9060 O.2       1 SER1        0.0000 
     53 OG         13.4875   81.9050   23.5723 O.2       1 SER1        0.0000 
     54 OG         14.0437   82.3074   22.2386 O.2       1 SER1        0.0000 
     55 OG         11.9494   79.7820   25.6644 O.2       1 SER1        0.0000 
     56 OG         12.5056   80.1844   24.3307 O.2       1 SER1        0.0000 
     57 OG         13.0618   80.5867   22.9970 O.2       1 SER1        0.0000 
     58 CA         13.6180   80.9891   21.6633 C.3       6 GLY6        0.0000 
     59 N          11.5237   78.4637   25.0891 N.2       2 ALA2        0.0000 
     60 OG         12.0799   78.8661   23.7555 O.2       1 SER1        0.0000 
     61 CA         12.6361   79.2685   22.4218 C.3       6 GLY6        0.0000 
     62 NZ         11.0980   77.1454   24.5139 N.2       4 LYS4        0.0000 
     63 NZ         11.6542   77.5478   23.1802 N.2       4 LYS4        0.0000 
     64 CA         12.2104   77.9502   21.8465 C.3       6 GLY6        0.0000 
     65 OD1        11.2284   76.2295   22.6049 O.3       3 ASP3        0.0000 
     66 O          10.1972   79.0555   24.7145 O.2       2 ALA2        0.0000 
     67 O          10.7534   79.4579   23.3808 O.2       2 ALA2        0.0000 
     68 OG         11.3096   79.8603   22.0472 O.2       1 SER1        0.0000 
     69 CZ          9.7715   77.7373   24.1393 C.ar      5 PHE5        0.0000 
     70 O          10.3277   78.1396   22.8056 O.2       2 ALA2        0.0000 
@<TRIPOS>BOND
@<TRIPOS>SUBSTRUCTURE
     1 SER1       37 GROUP   
     2 ALA2       11 GROUP   
     3 ASP3        3 GROUP   
     4 LYS4       14 GROUP   
     5 PHE5       27 GROUP   
     6 GLY6        1 GROUP   
     7 CUB7       42 GROUP   
@<TRIPOS>SET

