#    Name: 2opm_NI9_1_INTS_M
#    Modification time : Mon Mar 24 17:46:28 2014

@<TRIPOS>MOLECULE
2opm_NI9_1_INTS_M
   61     0    15     0     0
SMALL
NO_CHARGES


@<TRIPOS>ATOM
      1 NZ         15.4425   76.7205   21.5270 N.4       3 LYC4        0.0000 
      2 NZ         14.4490   76.8490   22.8620 N.4      13 LYL4        0.0000 
      3 NZ         15.4460   76.0240   19.5220 N.4       8 LYP4        0.0000 
      4 NZ         13.5800   75.1160   22.8700 N.4       3 LYC4        0.0000 
      5 NZ         12.7110   73.3830   22.8780 N.4       8 LYP4        0.0000 
      6 N          14.3985   76.2320   21.5060 N.am      2 SEC2        0.0000 
      7 N          14.4490   76.8490   22.8620 N.am     12 SEL2        0.0000 
      8 N          14.3480   75.6150   20.1500 N.am      7 SEP2        0.0000 
      9 N          15.4425   76.7205   21.5270 N.am      2 SEC2        0.0000 
     10 N          16.4360   76.5920   20.1920 N.am      7 SEP2        0.0000 
     11 N          13.3335   77.1835   27.7440 N.am      2 SEC2        0.0000 
     12 N          13.6830   77.3370   26.2010 N.am     12 SEL2        0.0000 
     13 N          12.9840   77.0300   29.2870 N.am      7 SEP2        0.0000 
     14 O          13.3195   76.0910   26.6635 O.2       1 ALC1        0.0000 
     15 O          13.6830   77.3370   26.2010 O.2      11 ALL1        0.0000 
     16 O          12.9560   74.8450   27.1260 O.2       6 ALP1        0.0000 
     17 Zn         17.5220   76.2980   23.7895 Zn        4 ZIC7        0.0000 
     18 Zn         16.5210   75.9290   23.9460 Zn       14 ZIL7        0.0000 
     19 Zn         18.5230   76.6670   23.6330 Zn        9 ZIP7        0.0000 
     20 CA         16.9455   80.7720   22.6900 C.3       5 GLC5        0.0000 
     21 CA         15.2860   80.9740   24.0530 C.3      15 GLL5        0.0000 
     22 CA         18.6050   80.5700   21.3270 C.3      10 GLP5        0.0000 
     23 NZ         15.7775   79.4700   28.2355 N.4       3 LYC4        0.0000 
     24 NZ         15.9590   79.4690   27.0020 N.4      13 LYL4        0.0000 
     25 NZ         15.5960   79.4710   29.4690 N.4       8 LYP4        0.0000 
     26 N          15.7775   79.4700   28.2355 N.am      2 SEC2        0.0000 
     27 N          15.9590   79.4690   27.0020 N.am     12 SEL2        0.0000 
     28 N          15.5960   79.4710   29.4690 N.am      7 SEP2        0.0000 
     29 NZ         13.5055   74.1640   23.7205 N.4       3 LYC4        0.0000 
     30 NZ         14.3000   74.9450   24.5630 N.4      13 LYL4        0.0000 
     31 Zn         14.7305   74.9130   25.5940 Zn        4 ZIC7        0.0000 
     32 Zn         14.3000   74.9450   24.5630 Zn       14 ZIL7        0.0000 
     33 Zn         15.1610   74.8810   26.6250 Zn        9 ZIP7        0.0000 
     34 N          13.5055   74.1640   23.7205 N.am      2 SEC2        0.0000 
     35 N          14.3000   74.9450   24.5630 N.am     12 SEL2        0.0000 
     36 N          12.7110   73.3830   22.8780 N.am      7 SEP2        0.0000 
     37 NZ         16.0460   78.2270   28.3515 N.4       3 LYC4        0.0000 
     38 NZ         16.4960   76.9830   27.2340 N.4      13 LYL4        0.0000 
     39 Zn         15.8285   75.9320   26.9295 Zn        4 ZIC7        0.0000 
     40 Zn         16.4960   76.9830   27.2340 Zn       14 ZIL7        0.0000 
     41 Zn         18.0325   77.5105   24.4830 Zn        4 ZIC7        0.0000 
     42 Zn         17.5420   78.3540   25.3330 Zn       14 ZIL7        0.0000 
     43 Zn         18.3405   78.9175   25.7290 Zn        4 ZIC7        0.0000 
     44 Zn         19.1390   79.4810   26.1250 Zn        9 ZIP7        0.0000 
     45 CA         15.4665   83.8250   22.0065 C.3       5 GLC5        0.0000 
     46 CA         16.2270   83.1750   23.8900 C.3      15 GLL5        0.0000 
     47 CA         14.7060   84.4750   20.1230 C.3      10 GLP5        0.0000 
     48 CA         17.4160   81.8725   22.6085 C.3       5 GLC5        0.0000 
     49 CA         15.2030   84.8840   24.4770 C.3       5 GLC5        0.0000 
     50 CA         14.1790   86.5930   25.0640 C.3      10 GLP5        0.0000 
     51 CA         14.4030   84.6270   25.2965 C.3       5 GLC5        0.0000 
     52 CA         14.6270   82.6610   25.5290 C.3      15 GLL5        0.0000 
     53 CA         12.1880   82.6510   27.1380 C.3       5 GLC5        0.0000 
     54 CA         13.7580   81.7760   26.1550 C.3      15 GLL5        0.0000 
     55 CA         10.6180   83.5260   28.1210 C.3      10 GLP5        0.0000 
     56 CA         15.5410   82.0865   26.6410 C.3       5 GLC5        0.0000 
     57 CA         15.3910   82.2890   24.4580 C.3      15 GLL5        0.0000 
     58 CA         15.6910   81.8840   28.8240 C.3      10 GLP5        0.0000 
     59 CA         17.3915   83.5895   25.0010 C.3       5 GLC5        0.0000 
     60 CA         18.9740   84.4470   25.8280 C.3      10 GLP5        0.0000 
     61 CA         14.8134   81.6141   27.3040 C.3       5 GLC5        0.0000 
@<TRIPOS>BOND
@<TRIPOS>SUBSTRUCTURE
     1 ALC1       14 GROUP        1 X    ALC  0     ROOT ALC X 1
     2 SEC2        6 GROUP        1 X    SEC  0     **** SEC X 2
     3 LYC4        1 GROUP        1 X    LYC  0     **** LYC X 4
     4 ZIC7       17 GROUP        1 X    ZIC  0     **** ZIC X 5
     5 GLC5       20 GROUP        1 X    GLC  0     **** GLC X 6
     6 ALP1       16 GROUP        1 Y    ALP  0     ROOT ALP Y 8
     7 SEP2        8 GROUP        1 Y    SEP  0     **** SEP Y 9
     8 LYP4        3 GROUP        1 Y    LYP  0     **** LYP Y 11
     9 ZIP7       19 GROUP        1 Y    ZIP  0     **** ZIP Y 12
    10 GLP5       22 GROUP        1 Y    GLP  0     **** GLP Y 13
    11 ALL1       15 GROUP        1 Z    ALL  0     ROOT ALL Z 15
    12 SEL2        7 GROUP        1 Z    SEL  0     **** SEL Z 16
    13 LYL4        2 GROUP        1 Z    LYL  0     **** LYL Z 18
    14 ZIL7       18 GROUP        1 Z    ZIL  0     **** ZIL Z 19
    15 GLL5       21 GROUP        1 Z    GLL  0     **** GLL Z 20
@<TRIPOS>SET

