#    Name: 2opm_NI9_1_ligand
#    Modification time : Mon Mar 24 17:46:28 2014

@<TRIPOS>MOLECULE
2opm_NI9_1_ligand
   25    25     1     0     0
SMALL
NO_CHARGES


@<TRIPOS>ATOM
      1 C1         14.7890   77.6270   25.2620 C.3       1 NI9901      0.0000 
      2 O1         14.4490   76.8490   22.8620 O.co2     1 NI9901      0.0000 
      3 O2         13.6830   77.3370   26.2010 O.3       1 NI9901      0.0000 
      4 C2         14.3610   78.6990   24.1930 C.3       1 NI9901      0.0000 
      5 O3         16.5210   75.9290   23.9460 O.co2     1 NI9901      0.0000 
      6 C3         15.2860   80.9740   24.0530 C.ar      1 NI9901      0.0000 
      7 P1         16.3090   78.1660   26.2620 P.3       1 NI9901      0.0000 
      8 P2         15.0250   76.2000   24.1000 P.3       1 NI9901      0.0000 
      9 O4         15.9590   79.4690   27.0020 O.co2     1 NI9901      0.0000 
     10 O5         14.3000   74.9450   24.5630 O.co2     1 NI9901      0.0000 
     11 O6         16.4960   76.9830   27.2340 O.co2     1 NI9901      0.0000 
     12 O7         17.5420   78.3540   25.3330 O.co2     1 NI9901      0.0000 
     13 N          14.4500   80.1100   24.6700 N.pl3     1 NI9901      0.0000 
     14 F          16.2270   83.1750   23.8900 F         1 NI9901      0.0000 
     15 C4         14.6270   82.6610   25.5290 C.ar      1 NI9901      0.0000 
     16 C5         13.6790   80.4700   25.7260 C.ar      1 NI9901      0.0000 
     17 C6         13.7580   81.7760   26.1550 C.ar      1 NI9901      0.0000 
     18 C7         15.3910   82.2890   24.4580 C.ar      1 NI9901      0.0000 
     19 H          13.3287   78.4606   23.8858 H         1 NI9901      0.0000 
     20 H          15.0010   78.5508   23.3068 H         1 NI9901      0.0000 
     21 H          15.8725   80.6505   23.2483 H         1 NI9901      0.0000 
     22 H          14.6918   83.6388   25.8950 H         1 NI9901      0.0000 
     23 H          13.0611   79.8062   26.1913 H         1 NI9901      0.0000 
     24 H          13.1750   82.1023   26.9397 H         1 NI9901      0.0000 
     25 H          13.6861   76.3424   26.3051 H         1 NI9901      0.0000 
@<TRIPOS>BOND
     1    3    1 1    
     2    4    1 1    
     3    7    1 1    
     4    8    1 1    
     5    8    2 ar   
     6   25    3 1    
     7   13    4 1    
     8   19    4 1    
     9   20    4 1    
    10    8    5 ar   
    11   13    6 ar   
    12   18    6 ar   
    13   21    6 1    
    14    9    7 ar   
    15   11    7 ar   
    16   12    7 ar   
    17   10    8 ar   
    18   16   13 ar   
    19   18   14 1    
    20   17   15 ar   
    21   18   15 ar   
    22   22   15 1    
    23   17   16 ar   
    24   23   16 1    
    25   24   17 1    
@<TRIPOS>SUBSTRUCTURE
     1 NI9901      1 GROUP   
@<TRIPOS>SET

