#    Name: 2oym_MNI_1_INTS_M
#    Modification time : Mon Mar 24 18:01:49 2014

@<TRIPOS>MOLECULE
2oym_MNI_1_INTS_M
   55     0    12     0     0
SMALL
NO_CHARGES


@<TRIPOS>ATOM
      1 CA         22.0455   54.3665  -32.4260 C.3       4 GLC5        0.0000 
      2 CA         24.1070   55.1120  -32.8110 C.3      12 GLL5        0.0000 
      3 CA         19.9840   53.6210  -32.0410 C.3       8 GLP5        0.0000 
      4 CA         26.8955   52.3075  -35.0175 C.3       4 GLC5        0.0000 
      5 CA         26.1610   52.8410  -36.6020 C.3      12 GLL5        0.0000 
      6 CA         27.6300   51.7740  -33.4330 C.3       8 GLP5        0.0000 
      7 CA         24.4325   53.8085  -37.2455 C.3       4 GLC5        0.0000 
      8 CA         22.7040   54.7760  -37.8890 C.3       8 GLP5        0.0000 
      9 CA         26.1025   51.6900  -34.2755 C.3       4 GLC5        0.0000 
     10 CA         24.5750   51.6060  -35.1180 C.3      12 GLL5        0.0000 
     11 CA         24.0435   50.0660  -35.1505 C.3       4 GLC5        0.0000 
     12 CA         23.5120   48.5260  -35.1830 C.3       8 GLP5        0.0000 
     13 CA         23.0045   52.1745  -36.0495 C.3       4 GLC5        0.0000 
     14 CA         21.4340   52.7430  -36.9810 C.3       8 GLP5        0.0000 
     15 CA         27.6820   55.6590  -35.2335 C.3       4 GLC5        0.0000 
     16 CA         25.8000   55.1190  -35.0010 C.3      12 GLL5        0.0000 
     17 CA         29.5640   56.1990  -35.4660 C.3       8 GLP5        0.0000 
     18 CA         27.3850   56.7950  -34.3915 C.3       4 GLC5        0.0000 
     19 CA         25.6530   56.2640  -34.2340 C.3      12 GLL5        0.0000 
     20 CA         29.1170   57.3260  -34.5490 C.3       8 GLP5        0.0000 
     21 O          23.4150   56.5095  -30.4750 O.2       1 ALC1        0.0000 
     22 O          23.9110   57.6250  -31.2440 O.2       9 ALL1        0.0000 
     23 O          22.9190   55.3940  -29.7060 O.2       5 ALP1        0.0000 
     24 O          22.5540   57.1625  -30.3005 O.2       1 ALC1        0.0000 
     25 O          21.1970   56.7000  -29.3570 O.2       5 ALP1        0.0000 
     26 OD1        23.3545   56.6195  -28.9720 O.co2     3 ASC3        0.0000 
     27 OD1        23.7900   57.8450  -28.2380 O.co2    11 ASL3        0.0000 
     28 OD1        22.9190   55.3940  -29.7060 O.co2     7 ASP3        0.0000 
     29 OD1        22.4935   57.2725  -28.7975 O.co2     3 ASC3        0.0000 
     30 OD1        21.1970   56.7000  -29.3570 O.co2     7 ASP3        0.0000 
     31 OD1        22.8585   58.4875  -27.3125 O.co2     3 ASC3        0.0000 
     32 OD1        21.9270   59.1300  -26.3870 O.co2     7 ASP3        0.0000 
     33 OD1        22.6720   57.6555  -26.6170 O.co2     3 ASC3        0.0000 
     34 OD1        21.5540   57.4660  -24.9960 O.co2     7 ASP3        0.0000 
     35 CA         24.2660   56.0265  -24.5775 C.3       4 GLC5        0.0000 
     36 CA         24.4910   57.0810  -25.9990 C.3      12 GLL5        0.0000 
     37 CA         24.0410   54.9720  -23.1560 C.3       8 GLP5        0.0000 
     38 CA         24.9725   57.8710  -24.4255 C.3       4 GLC5        0.0000 
     39 CA         25.4540   58.6610  -22.8520 C.3       8 GLP5        0.0000 
     40 N          23.2135   54.7895  -25.8990 N.am      2 SEC2        0.0000 
     41 N          23.4210   56.1360  -26.0670 N.am     10 SEL2        0.0000 
     42 N          23.0060   53.4430  -25.7310 N.am      6 SEP2        0.0000 
     43 O          22.4875   56.8010  -25.5315 O.2       1 ALC1        0.0000 
     44 O          23.4210   56.1360  -26.0670 O.2       9 ALL1        0.0000 
     45 O          21.5540   57.4660  -24.9960 O.2       5 ALP1        0.0000 
     46 CA         25.6885   59.5995  -25.8455 C.3       4 GLC5        0.0000 
     47 CA         25.8960   58.5690  -27.5330 C.3      12 GLL5        0.0000 
     48 CA         25.4810   60.6300  -24.1580 C.3       8 GLP5        0.0000 
     49 CA         24.0808   54.6560  -36.3648 C.3       4 GLC5        0.0000 
     50 CA         22.4465   59.7713  -29.6050 C.3       4 GLC5        0.0000 
     51 CA         23.6830   58.8600  -30.5000 C.3      12 GLL5        0.0000 
     52 CA         20.9630   60.6280  -29.4230 C.3       8 GLP5        0.0000 
     53 CA         27.2527   58.0643  -29.4608 C.3       4 GLC5        0.0000 
     54 CA         25.6790   59.0260  -28.9600 C.3      12 GLL5        0.0000 
     55 CA         28.7180   57.3310  -30.6750 C.3       8 GLP5        0.0000 
@<TRIPOS>BOND
@<TRIPOS>SUBSTRUCTURE
     1 ALC1       21 GROUP        1 X    ALC  0     ROOT ALC X 1
     2 SEC2       40 GROUP        1 X    SEC  0     **** SEC X 2
     3 ASC3       26 GROUP        1 X    ASC  0     **** ASC X 3
     4 GLC5        1 GROUP        1 X    GLC  0     **** GLC X 6
     5 ALP1       23 GROUP        1 Y    ALP  0     ROOT ALP Y 8
     6 SEP2       42 GROUP        1 Y    SEP  0     **** SEP Y 9
     7 ASP3       28 GROUP        1 Y    ASP  0     **** ASP Y 10
     8 GLP5        3 GROUP        1 Y    GLP  0     **** GLP Y 13
     9 ALL1       22 GROUP        1 Z    ALL  0     ROOT ALL Z 15
    10 SEL2       41 GROUP        1 Z    SEL  0     **** SEL Z 16
    11 ASL3       27 GROUP        1 Z    ASL  0     **** ASL Z 17
    12 GLL5        2 GROUP        1 Z    GLL  0     **** GLL Z 20
@<TRIPOS>SET

