#    Name: 2oym_MNI_1_ligand
#    Modification time : Mon Mar 24 18:01:49 2014

@<TRIPOS>MOLECULE
2oym_MNI_1_ligand
   44    45     1     0     0
SMALL
NO_CHARGES


@<TRIPOS>ATOM
      1 O1B        25.3250   58.5110  -32.7080 O.2       1 MNI600      0.0000 
      2 C1B        24.6690   57.5440  -32.3470 C.2       1 MNI600      0.0000 
      3 C2B        24.8110   56.2730  -33.1330 C.ar      1 MNI600      0.0000 
      4 C3B        24.1070   55.1120  -32.8110 C.ar      1 MNI600      0.0000 
      5 C4B        24.2660   53.9600  -33.5690 C.ar      1 MNI600      0.0000 
      6 C5B        25.1150   53.9530  -34.6800 C.ar      1 MNI600      0.0000 
      7 N5B        25.2750   52.8330  -35.4470 N.pl3     1 MNI600      0.0000 
      8 C8B        26.1610   52.8410  -36.6020 C.3       1 MNI600      0.0000 
      9 C9B        24.5750   51.6060  -35.1180 C.3       1 MNI600      0.0000 
     10 C6B        25.8000   55.1190  -35.0010 C.ar      1 MNI600      0.0000 
     11 C7B        25.6530   56.2640  -34.2340 C.ar      1 MNI600      0.0000 
     12 N1B        23.9110   57.6250  -31.2440 N.am      1 MNI600      0.0000 
     13 C1A        23.6830   58.8600  -30.5000 C.3       1 MNI600      0.0000 
     14 C2A        24.1770   58.9690  -29.0740 C.3       1 MNI600      0.0000 
     15 N5A        23.7900   57.8450  -28.2380 N.4       1 MNI600      0.0000 
     16 C5M        24.9040   57.4260  -27.4190 C.3       1 MNI600      0.0000 
     17 C6A        24.4910   57.0810  -25.9990 C.3       1 MNI600      0.0000 
     18 O6A        23.4210   56.1360  -26.0670 O.3       1 MNI600      0.0000 
     19 C4A        25.8960   58.5690  -27.5330 C.3       1 MNI600      0.0000 
     20 O4A        27.2480   58.1760  -27.2870 O.3       1 MNI600      0.0000 
     21 C3A        25.6790   59.0260  -28.9600 C.3       1 MNI600      0.0000 
     22 O3A        26.2270   60.3270  -29.2000 O.3       1 MNI600      0.0000 
     23 H          23.4652   55.1131  -32.0041 H         1 MNI600      0.0000 
     24 H          23.7562   53.1008  -33.3146 H         1 MNI600      0.0000 
     25 H          26.4278   55.1306  -35.8240 H         1 MNI600      0.0000 
     26 H          26.1764   57.1197  -34.4855 H         1 MNI600      0.0000 
     27 H          23.4300   56.7722  -30.8520 H         1 MNI600      0.0000 
     28 H          22.5722   59.0979  -30.4935 H         1 MNI600      0.0000 
     29 H          24.1187   59.7355  -31.0780 H         1 MNI600      0.0000 
     30 H          23.7864   59.8887  -28.6265 H         1 MNI600      0.0000 
     31 H          25.3692   56.5510  -27.8826 H         1 MNI600      0.0000 
     32 H          24.1870   58.0012  -25.5004 H         1 MNI600      0.0000 
     33 H          25.3593   56.6726  -25.4823 H         1 MNI600      0.0000 
     34 H          25.5549   59.3579  -26.8890 H         1 MNI600      0.0000 
     35 H          26.0861   58.2669  -29.6021 H         1 MNI600      0.0000 
     36 H          27.1042   53.0516  -36.3451 H         1 MNI600      0.0000 
     37 H          26.1744   51.9552  -37.0659 H         1 MNI600      0.0000 
     38 H          25.8825   53.5223  -37.2790 H         1 MNI600      0.0000 
     39 H          24.7856   50.8733  -35.7651 H         1 MNI600      0.0000 
     40 H          24.8189   51.2720  -34.2075 H         1 MNI600      0.0000 
     41 H          23.5828   51.7302  -35.1286 H         1 MNI600      0.0000 
     42 H          22.8475   56.3369  -25.2728 H         1 MNI600      0.0000 
     43 H          27.7776   59.0224  -27.3426 H         1 MNI600      0.0000 
     44 H          27.0769   60.3508  -28.6737 H         1 MNI600      0.0000 
@<TRIPOS>BOND
     1    2    1 2    
     2    3    2 1    
     3   12    2 am   
     4    4    3 ar   
     5   11    3 ar   
     6    5    4 ar   
     7   23    4 1    
     8    6    5 ar   
     9   24    5 1    
    10    7    6 1    
    11   10    6 ar   
    12    8    7 1    
    13    9    7 1    
    14   36    8 1    
    15   37    8 1    
    16   38    8 1    
    17   39    9 1    
    18   40    9 1    
    19   41    9 1    
    20   11   10 ar   
    21   25   10 1    
    22   26   11 1    
    23   13   12 1    
    24   27   12 1    
    25   14   13 1    
    26   28   13 1    
    27   29   13 1    
    28   15   14 1    
    29   21   14 1    
    30   30   14 1    
    31   16   15 1    
    32   17   16 1    
    33   19   16 1    
    34   31   16 1    
    35   18   17 1    
    36   32   17 1    
    37   33   17 1    
    38   42   18 1    
    39   20   19 1    
    40   21   19 1    
    41   34   19 1    
    42   43   20 1    
    43   22   21 1    
    44   35   21 1    
    45   44   22 1    
@<TRIPOS>SUBSTRUCTURE
     1 MNI600      1 GROUP   
@<TRIPOS>SET

