#    Name: 1nw5_SAM_1_INTS_M
#    Modification time : Mon Mar 24 19:05:32 2014

@<TRIPOS>MOLECULE
1nw5_SAM_1_INTS_M
   75     0    12     0     0
SMALL
NO_CHARGES


@<TRIPOS>ATOM
      1 OD1        27.6705   17.3835    0.7570 O.co2     3 ASC3        0.0000 
      2 OD1        26.5530   16.9510    0.1820 O.co2    11 ASL3        0.0000 
      3 OD1        28.7880   17.8160    1.3320 O.co2     7 ASP3        0.0000 
      4 O          27.6705   17.3835    0.7570 O.2       1 ALC1        0.0000 
      5 O          26.5530   16.9510    0.1820 O.2       9 ALL1        0.0000 
      6 O          28.7880   17.8160    1.3320 O.2       5 ALP1        0.0000 
      7 O          25.3805   17.6530    0.3295 O.2       1 ALC1        0.0000 
      8 O          24.2080   18.3550    0.4770 O.2       5 ALP1        0.0000 
      9 CA         26.9725   18.0675    0.6285 C.3       4 GLC5        0.0000 
     10 CA         26.6910   16.9820   -1.2790 C.3      12 GLL5        0.0000 
     11 CA         27.2540   19.1530    2.5360 C.3       8 GLP5        0.0000 
     12 CA         27.4695   15.6610    0.2340 C.3       4 GLC5        0.0000 
     13 CA         28.2480   14.3400    1.7470 C.3       8 GLP5        0.0000 
     14 N          26.1405   15.7860   -4.2255 N.am      2 SEC2        0.0000 
     15 N          26.8530   15.4790   -3.1280 N.am     10 SEL2        0.0000 
     16 N          25.4280   16.0930   -5.3230 N.am      6 SEP2        0.0000 
     17 N          26.0290   14.4190   -3.6215 N.am      2 SEC2        0.0000 
     18 N          25.2050   13.3590   -4.1150 N.am      6 SEP2        0.0000 
     19 N          27.4330   13.6045   -0.9110 N.am      2 SEC2        0.0000 
     20 N          26.5610   14.6140   -1.1460 N.am     10 SEL2        0.0000 
     21 N          28.3050   12.5950   -0.6760 N.am      6 SEP2        0.0000 
     22 N          25.8830   13.9865   -2.6305 N.am      2 SEC2        0.0000 
     23 CA         27.5870   19.2010    0.4710 C.3       4 GLC5        0.0000 
     24 CA         27.9200   19.2490   -1.5940 C.3      12 GLL5        0.0000 
     25 CA         31.4920   18.3390   -1.2495 C.3       4 GLC5        0.0000 
     26 CA         30.5550   19.9410   -0.6360 C.3      12 GLL5        0.0000 
     27 CA         32.4290   16.7370   -1.8630 C.3       8 GLP5        0.0000 
     28 CA         29.1910   23.7985   -1.2670 C.3       4 GLC5        0.0000 
     29 CA         29.0000   21.8750   -2.1740 C.3      12 GLL5        0.0000 
     30 CA         29.3820   25.7220   -0.3600 C.3       8 GLP5        0.0000 
     31 N          28.5750   19.6680   -5.7575 N.am      2 SEC2        0.0000 
     32 N          28.0630   20.9470   -5.4800 N.am     10 SEL2        0.0000 
     33 N          29.0870   18.3890   -6.0350 N.am      6 SEP2        0.0000 
     34 N          27.2835   20.3920   -6.9110 N.am      2 SEC2        0.0000 
     35 N          26.5040   19.8370   -8.3420 N.am      6 SEP2        0.0000 
     36 O          26.8410   21.3360   -5.5720 O.2       1 ALC1        0.0000 
     37 O          28.0630   20.9470   -5.4800 O.2       9 ALL1        0.0000 
     38 O          25.6190   21.7250   -5.6640 O.2       5 ALP1        0.0000 
     39 O          27.1415   23.1160   -7.1425 O.2       1 ALC1        0.0000 
     40 O          28.4440   23.3480   -6.7790 O.2       9 ALL1        0.0000 
     41 O          25.8390   22.8840   -7.5060 O.2       5 ALP1        0.0000 
     42 O          27.0315   22.5365   -6.2215 O.2       1 ALC1        0.0000 
     43 CA         26.6615   24.8745   -2.9735 C.3       4 GLC5        0.0000 
     44 CA         27.7070   24.1130   -4.6670 C.3      12 GLL5        0.0000 
     45 CA         25.6160   25.6360   -1.2800 C.3       8 GLP5        0.0000 
     46 CA         24.3605   29.4050   -5.3180 C.3       4 GLC5        0.0000 
     47 CA         26.2800   28.7290   -4.3590 C.3      12 GLL5        0.0000 
     48 CA         22.4410   30.0810   -6.2770 C.3       8 GLP5        0.0000 
     49 CA         25.0135   29.4050   -2.7750 C.3       4 GLC5        0.0000 
     50 CA         23.7470   30.0810   -1.1910 C.3       8 GLP5        0.0000 
     51 O          25.6440   30.9690   -4.6040 O.2       1 ALC1        0.0000 
     52 O          26.5870   30.0440   -4.2040 O.2       9 ALL1        0.0000 
     53 O          24.7010   31.8940   -5.0040 O.2       5 ALP1        0.0000 
     54 N          23.5935   28.9515   -4.2115 N.am      2 SEC2        0.0000 
     55 N          24.9470   28.4030   -4.4920 N.am     10 SEL2        0.0000 
     56 N          22.2400   29.5000   -3.9310 N.am      6 SEP2        0.0000 
     57 CA         23.5150   28.5950   -5.4630 C.3       4 GLC5        0.0000 
     58 CA         24.5890   27.1090   -4.6490 C.3      12 GLL5        0.0000 
     59 CA         23.5685   27.9575   -3.1240 C.3       4 GLC5        0.0000 
     60 CA         22.5480   28.8060   -1.5990 C.3       8 GLP5        0.0000 
     61 CA         23.7655   25.3450   -5.6360 C.3       4 GLC5        0.0000 
     62 CA         22.9420   23.5810   -6.6230 C.3       8 GLP5        0.0000 
     63 CA         25.1280   27.2285   -6.3255 C.3       4 GLC5        0.0000 
     64 CA         25.6670   27.3480   -8.0020 C.3       8 GLP5        0.0000 
     65 N          24.9105   25.7130   -6.1380 N.am      2 SEC2        0.0000 
     66 N          25.4790   26.0980   -4.6800 N.am     10 SEL2        0.0000 
     67 N          24.3420   25.3280   -7.5960 N.am      6 SEP2        0.0000 
     68 CA         26.7076   18.3889   -3.3121 C.3       4 GLC5        0.0000 
     69 CA         27.9940   17.6990   -1.7220 C.3      12 GLL5        0.0000 
     70 CA         25.7840   18.4830   -5.0770 C.3       8 GLP5        0.0000 
     71 CA         26.9062   22.6080   -1.8320 C.3       4 GLC5        0.0000 
     72 CA         28.1210   22.2410   -3.3800 C.3      12 GLL5        0.0000 
     73 CA         25.2520   23.1580   -0.8870 C.3       8 GLP5        0.0000 
     74 CA         26.2238   27.3412   -6.2295 C.3       4 GLC5        0.0000 
     75 CA         27.2640   27.7470   -4.3810 C.3      12 GLL5        0.0000 
@<TRIPOS>BOND
@<TRIPOS>SUBSTRUCTURE
     1 ALC1        4 GROUP        1 X    ALC  0     ROOT ALC X 1
     2 SEC2       14 GROUP        1 X    SEC  0     **** SEC X 2
     3 ASC3        1 GROUP        1 X    ASC  0     **** ASC X 3
     4 GLC5        9 GROUP        1 X    GLC  0     **** GLC X 6
     5 ALP1        6 GROUP        1 Y    ALP  0     ROOT ALP Y 8
     6 SEP2       16 GROUP        1 Y    SEP  0     **** SEP Y 9
     7 ASP3        3 GROUP        1 Y    ASP  0     **** ASP Y 10
     8 GLP5       11 GROUP        1 Y    GLP  0     **** GLP Y 13
     9 ALL1        5 GROUP        1 Z    ALL  0     ROOT ALL Z 15
    10 SEL2       15 GROUP        1 Z    SEL  0     **** SEL Z 16
    11 ASL3        2 GROUP        1 Z    ASL  0     **** ASL Z 17
    12 GLL5       10 GROUP        1 Z    GLL  0     **** GLL Z 20
@<TRIPOS>SET

