#    Name: 1nw5_SAM_1_ligand
#    Modification time : Mon Mar 24 19:05:32 2014

@<TRIPOS>MOLECULE
1nw5_SAM_1_ligand
   50    52     1     0     0
SMALL
NO_CHARGES


@<TRIPOS>ATOM
      1 N          26.5530   16.9510    0.1820 N.4       1 SAM401      0.0000 
      2 CA         26.6910   16.9820   -1.2790 C.3       1 SAM401      0.0000 
      3 C          26.7070   15.5780   -1.9060 C.2       1 SAM401      0.0000 
      4 O          26.8530   15.4790   -3.1280 O.co2     1 SAM401      0.0000 
      5 OXT        26.5610   14.6140   -1.1460 O.co2     1 SAM401      0.0000 
      6 CB         27.9940   17.6990   -1.7220 C.3       1 SAM401      0.0000 
      7 CG         27.9200   19.2490   -1.5940 C.3       1 SAM401      0.0000 
      8 SD         29.4590   20.1320   -2.0780 S.3       1 SAM401      0.0000 
      9 CE         30.5550   19.9410   -0.6360 C.3       1 SAM401      0.0000 
     10 C5'        29.0000   21.8750   -2.1740 C.3       1 SAM401      0.0000 
     11 C4'        28.1210   22.2410   -3.3800 C.3       1 SAM401      0.0000 
     12 O4'        27.7670   23.6090   -3.3560 O.3       1 SAM401      0.0000 
     13 C3'        28.7410   21.9740   -4.7670 C.3       1 SAM401      0.0000 
     14 O3'        28.0630   20.9470   -5.4800 O.3       1 SAM401      0.0000 
     15 C2'        28.8200   23.3610   -5.4010 C.3       1 SAM401      0.0000 
     16 O2'        28.4440   23.3480   -6.7790 O.3       1 SAM401      0.0000 
     17 C1'        27.7070   24.1130   -4.6670 C.3       1 SAM401      0.0000 
     18 N9         27.8700   25.5720   -4.5350 N.pl3     1 SAM401      0.0000 
     19 C8         28.9550   26.3660   -4.3770 C.2       1 SAM401      0.0000 
     20 N7         28.6560   27.6680   -4.2810 N.2       1 SAM401      0.0000 
     21 C5         27.2640   27.7470   -4.3810 C.ar      1 SAM401      0.0000 
     22 C6         26.2800   28.7290   -4.3590 C.ar      1 SAM401      0.0000 
     23 N6         26.5870   30.0440   -4.2040 N.pl3     1 SAM401      0.0000 
     24 N1         24.9470   28.4030   -4.4920 N.ar      1 SAM401      0.0000 
     25 C2         24.5890   27.1090   -4.6490 C.ar      1 SAM401      0.0000 
     26 N3         25.4790   26.0980   -4.6800 N.ar      1 SAM401      0.0000 
     27 C4         26.7890   26.4310   -4.5440 C.ar      1 SAM401      0.0000 
     28 H          25.8644   17.5295   -1.7336 H         1 SAM401      0.0000 
     29 H          28.2024   17.4429   -2.7650 H         1 SAM401      0.0000 
     30 H          28.8242   17.3358   -1.1091 H         1 SAM401      0.0000 
     31 H          27.7780   19.5817   -0.5809 H         1 SAM401      0.0000 
     32 H          27.1904   19.6915   -2.2491 H         1 SAM401      0.0000 
     33 H          29.9604   22.3709   -2.1854 H         1 SAM401      0.0000 
     34 H          28.5073   22.0411   -1.2264 H         1 SAM401      0.0000 
     35 H          27.2021   21.6304   -3.3258 H         1 SAM401      0.0000 
     36 H          29.7952   21.6854   -4.5400 H         1 SAM401      0.0000 
     37 H          29.7220   23.8084   -5.1885 H         1 SAM401      0.0000 
     38 H          26.7695   23.8654   -5.1112 H         1 SAM401      0.0000 
     39 H          29.8876   26.0073   -4.3367 H         1 SAM401      0.0000 
     40 H          25.9616   30.6954   -4.6336 H         1 SAM401      0.0000 
     41 H          27.4112   30.2440   -3.6741 H         1 SAM401      0.0000 
     42 H          23.5559   26.8802   -4.7528 H         1 SAM401      0.0000 
     43 H          27.3308   17.3836    0.6378 H         1 SAM401      0.0000 
     44 H          25.7304   17.4305    0.4876 H         1 SAM401      0.0000 
     45 H          26.4929   16.0153    0.5296 H         1 SAM401      0.0000 
     46 H          31.4399   20.3837   -0.7809 H         1 SAM401      0.0000 
     47 H          30.1574   20.3435    0.1886 H         1 SAM401      0.0000 
     48 H          30.7382   18.9790   -0.4336 H         1 SAM401      0.0000 
     49 H          27.1141   20.9992   -5.1688 H         1 SAM401      0.0000 
     50 H          27.4650   23.1444   -6.7781 H         1 SAM401      0.0000 
@<TRIPOS>BOND
     1    2    1 1    
     2   43    1 1    
     3   44    1 1    
     4   45    1 1    
     5    3    2 1    
     6    6    2 1    
     7   28    2 1    
     8    4    3 ar   
     9    5    3 ar   
    10    7    6 1    
    11   29    6 1    
    12   30    6 1    
    13    8    7 1    
    14   31    7 1    
    15   32    7 1    
    16    9    8 1    
    17   10    8 1    
    18   46    9 1    
    19   47    9 1    
    20   48    9 1    
    21   11   10 1    
    22   33   10 1    
    23   34   10 1    
    24   12   11 1    
    25   13   11 1    
    26   35   11 1    
    27   17   12 1    
    28   14   13 1    
    29   15   13 1    
    30   36   13 1    
    31   49   14 1    
    32   16   15 1    
    33   17   15 1    
    34   37   15 1    
    35   50   16 1    
    36   18   17 1    
    37   38   17 1    
    38   19   18 1    
    39   27   18 1    
    40   20   19 2    
    41   39   19 1    
    42   21   20 1    
    43   22   21 ar   
    44   27   21 ar   
    45   23   22 1    
    46   24   22 ar   
    47   40   23 1    
    48   41   23 1    
    49   25   24 ar   
    50   26   25 ar   
    51   42   25 1    
    52   27   26 ar   
@<TRIPOS>SUBSTRUCTURE
     1 SAM401      1 GROUP   
@<TRIPOS>SET

