#    Name: 2zva_1N1_1_INTS_M
#    Modification time : Mon Apr  7 18:50:38 2014

@<TRIPOS>MOLECULE
2zva_1N1_1_INTS_M
   75     0     9     0     0
SMALL
NO_CHARGES


@<TRIPOS>ATOM
      1 CA         16.4830   -6.0545   28.5185 C.3       3 GLC5        0.0000 
      2 CA         16.7010   -8.0160   27.4590 C.3       9 GLL5        0.0000 
      3 CA         16.2650   -4.0930   29.5780 C.3       6 GLP5        0.0000 
      4 CA         14.5710   -8.3935   27.6275 C.3       3 GLC5        0.0000 
      5 CA         12.4410   -8.7710   27.7960 C.3       6 GLP5        0.0000 
      6 CA         15.5705   -6.7110   26.3785 C.3       3 GLC5        0.0000 
      7 CA         14.4400   -5.4060   25.2980 C.3       6 GLP5        0.0000 
      8 CA         22.6835   -4.9540   33.7680 C.3       3 GLC5        0.0000 
      9 CA         21.2830   -6.3340   32.8480 C.3       9 GLL5        0.0000 
     10 CA         24.0840   -3.5740   34.6880 C.3       6 GLP5        0.0000 
     11 CA         17.5770  -10.0430   30.6065 C.3       3 GLC5        0.0000 
     12 CA         19.1410   -9.2630   31.7420 C.3       9 GLL5        0.0000 
     13 CA         16.0130  -10.8230   29.4710 C.3       6 GLP5        0.0000 
     14 CA         18.5210  -11.2640   32.3480 C.3       3 GLC5        0.0000 
     15 CA         17.9010  -13.2650   32.9540 C.3       6 GLP5        0.0000 
     16 CA         20.6930  -10.1955   32.4020 C.3       3 GLC5        0.0000 
     17 CA         22.2450  -11.1280   33.0620 C.3       6 GLP5        0.0000 
     18 CA         17.5595  -14.0780   22.7320 C.3       3 GLC5        0.0000 
     19 CA         17.8550  -12.3110   21.8780 C.3       9 GLL5        0.0000 
     20 CA         17.2640  -15.8450   23.5860 C.3       6 GLP5        0.0000 
     21 CA         18.6080  -10.2870   21.8125 C.3       3 GLC5        0.0000 
     22 CA         19.6600  -11.5620   23.2190 C.3       9 GLL5        0.0000 
     23 CA         17.5560   -9.0120   20.4060 C.3       6 GLP5        0.0000 
     24 CA         17.7910  -14.9055   21.8275 C.3       3 GLC5        0.0000 
     25 CA         18.3180  -13.9660   20.0690 C.3       9 GLL5        0.0000 
     26 CA         16.7885  -11.0075   20.3470 C.3       3 GLC5        0.0000 
     27 CA         16.0210  -13.0030   20.2880 C.3       9 GLL5        0.0000 
     28 O          15.4675   -9.6975   23.8760 O.2       1 ALC1        0.0000 
     29 O          16.6120  -10.2060   24.6190 O.2       7 ALL1        0.0000 
     30 O          14.3230   -9.1890   23.1330 O.2       4 ALP1        0.0000 
     31 N          14.6830   -8.3505   26.0095 N.am      2 SEC2        0.0000 
     32 N          16.1170   -8.6460   26.3810 N.am      8 SEL2        0.0000 
     33 N          13.2490   -8.0550   25.6380 N.am      5 SEP2        0.0000 
     34 CA         19.6175  -10.9445   27.3985 C.3       3 GLC5        0.0000 
     35 CA         18.5500   -9.4750   26.4460 C.3       9 GLL5        0.0000 
     36 CA         20.6850  -12.4140   28.3510 C.3       6 GLP5        0.0000 
     37 CA         17.2815  -10.1490   27.9585 C.3       3 GLC5        0.0000 
     38 CA         18.4955   -7.5475   25.9995 C.3       3 GLC5        0.0000 
     39 CA         18.4410   -5.6200   25.5530 C.3       6 GLP5        0.0000 
     40 O          17.5420   -7.3235   30.5645 O.2       1 ALC1        0.0000 
     41 O          18.7040   -7.2170   29.7130 O.2       7 ALL1        0.0000 
     42 O          16.3800   -7.4300   31.4160 O.2       4 ALP1        0.0000 
     43 CA         22.4640   -7.0590   31.7535 C.3       3 GLC5        0.0000 
     44 CA         21.0370   -5.3950   31.8470 C.3       9 GLL5        0.0000 
     45 CA         23.8910   -8.7230   31.6600 C.3       6 GLP5        0.0000 
     46 CA         19.1500   -5.0560   27.5370 C.3       3 GLC5        0.0000 
     47 CA         19.8590   -4.4920   29.5210 C.3       9 GLL5        0.0000 
     48 CA         20.3350   -3.7600   28.0510 C.3       3 GLC5        0.0000 
     49 CA         20.8110   -3.0280   26.5810 C.3       6 GLP5        0.0000 
     50 CA         15.0180  -10.9450   18.6985 C.3       3 GLC5        0.0000 
     51 CA         15.8780  -12.9990   18.7620 C.3       9 GLL5        0.0000 
     52 CA         14.1580   -8.8910   18.6350 C.3       6 GLP5        0.0000 
     53 CA         16.6938   -9.5025   28.5150 C.3       3 GLC5        0.0000 
     54 CA         17.9078   -6.9010   26.5560 C.3       3 GLC5        0.0000 
     55 CA         20.3987   -5.4655   34.0355 C.3       3 GLC5        0.0000 
     56 CA         20.6620   -7.5800   32.7920 C.3       9 GLL5        0.0000 
     57 CA         19.8250   -3.9740   35.2510 C.3       6 GLP5        0.0000 
     58 CA         22.1366   -8.0755   31.9717 C.3       3 GLC5        0.0000 
     59 CA         20.1831   -7.5710   34.2522 C.3       3 GLC5        0.0000 
     60 CA         19.9840   -7.7140   36.2210 C.3       6 GLP5        0.0000 
     61 CA         18.3377   -7.4870   32.5968 C.3       3 GLC5        0.0000 
     62 CA         19.7920   -7.8990   31.7470 C.3       9 GLL5        0.0000 
     63 CA         17.2090   -6.3930   33.4490 C.3       6 GLP5        0.0000 
     64 CA         17.3535  -12.7240   24.3550 C.3       3 GLC5        0.0000 
     65 CA         17.4680  -10.8930   23.8000 C.3       9 GLL5        0.0000 
     66 CA         17.4880  -14.1930   25.4530 C.3       6 GLP5        0.0000 
     67 CA         17.5465  -10.3975   21.4868 C.3       3 GLC5        0.0000 
     68 CA         19.9740  -13.4075   23.9492 C.3       3 GLC5        0.0000 
     69 CA         19.5490  -15.2750   24.5330 C.3       6 GLP5        0.0000 
     70 CA         20.3135   -4.0953   32.7027 C.3       3 GLC5        0.0000 
     71 CA         20.1690   -5.7100   30.8040 C.3       9 GLL5        0.0000 
     72 CA         20.0240   -2.6380   34.0800 C.3       6 GLP5        0.0000 
     73 CA         18.1395   -4.5970   29.8702 C.3       3 GLC5        0.0000 
     74 CA         18.8202   -6.3235   32.5018 C.3       3 GLC5        0.0000 
     75 CA         19.5470   -6.9540   30.7470 C.3       9 GLL5        0.0000 
@<TRIPOS>BOND
@<TRIPOS>SUBSTRUCTURE
     1 ALC1       28 GROUP        1 X    ALC  0     ROOT ALC X 1
     2 SEC2       31 GROUP        1 X    SEC  0     **** SEC X 2
     3 GLC5        1 GROUP        1 X    GLC  0     **** GLC X 6
     4 ALP1       30 GROUP        1 Y    ALP  0     ROOT ALP Y 8
     5 SEP2       33 GROUP        1 Y    SEP  0     **** SEP Y 9
     6 GLP5        3 GROUP        1 Y    GLP  0     **** GLP Y 13
     7 ALL1       29 GROUP        1 Z    ALL  0     ROOT ALL Z 15
     8 SEL2       32 GROUP        1 Z    SEL  0     **** SEL Z 16
     9 GLL5        2 GROUP        1 Z    GLL  0     **** GLL Z 20
@<TRIPOS>SET

