#    Name: 2zva_1N1_1_ligand
#    Modification time : Mon Apr  7 18:50:38 2014

@<TRIPOS>MOLECULE
2zva_1N1_1_ligand
   60    63     1     0     0
SMALL
NO_CHARGES


@<TRIPOS>ATOM
      1 C1         16.7010   -8.0160   27.4590 C.2       1 1N1513      0.0000 
      2 C2         18.0480   -8.3480   27.6590 C.2       1 1N1513      0.0000 
      3 C3         19.0890   -7.9330   28.6560 C.2       1 1N1513      0.0000 
      4 N6         17.0400  -13.4530   17.9910 N.4       1 1N1513      0.0000 
      5 C7         21.2830   -6.3340   32.8480 C.ar      1 1N1513      0.0000 
      6 C8         20.6620   -7.5800   32.7920 C.ar      1 1N1513      0.0000 
      7 C9         19.7920   -7.8990   31.7470 C.ar      1 1N1513      0.0000 
      8 C10        19.1410   -9.2630   31.7420 C.3       1 1N1513      0.0000 
      9 C11        17.4680  -10.8930   23.8000 C.ar      1 1N1513      0.0000 
     10 C12        16.9700  -11.6170   22.7140 C.ar      1 1N1513      0.0000 
     11 C13        17.8550  -12.3110   21.8780 C.ar      1 1N1513      0.0000 
     12 C14        19.6600  -11.5620   23.2190 C.ar      1 1N1513      0.0000 
     13 C15        21.1380  -11.5180   23.5120 C.3       1 1N1513      0.0000 
     14 C16        18.3180  -13.9660   20.0690 C.3       1 1N1513      0.0000 
     15 C19        16.0210  -13.0030   20.2880 C.3       1 1N1513      0.0000 
     16 C20        16.8720  -13.7150   16.5640 C.3       1 1N1513      0.0000 
     17 C21        16.8720  -15.2150   16.2760 C.3       1 1N1513      0.0000 
     18 N          16.6120  -10.2060   24.6190 N.pl3     1 1N1513      0.0000 
     19 C          16.9810   -9.4630   25.7230 C.2       1 1N1513      0.0000 
     20 N1         16.1170   -8.6460   26.3810 N.2       1 1N1513      0.0000 
     21 S          18.5500   -9.4750   26.4460 S.3       1 1N1513      0.0000 
     22 N2         18.7040   -7.2170   29.7130 N.am      1 1N1513      0.0000 
     23 C4         19.5470   -6.9540   30.7470 C.ar      1 1N1513      0.0000 
     24 C5         20.1690   -5.7100   30.8040 C.ar      1 1N1513      0.0000 
     25 C6         21.0370   -5.3950   31.8470 C.ar      1 1N1513      0.0000 
     26 CL         19.8590   -4.4920   29.5210 Cl        1 1N1513      0.0000 
     27 O          20.2620   -8.2480   28.4890 O.2       1 1N1513      0.0000 
     28 N3         19.1860  -12.2640   22.1610 N.ar      1 1N1513      0.0000 
     29 N4         18.8050  -10.8900   24.0200 N.ar      1 1N1513      0.0000 
     30 N5         17.4010  -13.0680   20.7650 N.3       1 1N1513      0.0000 
     31 C17        18.3680  -13.6260   18.5840 C.3       1 1N1513      0.0000 
     32 C18        15.8780  -12.9990   18.7620 C.3       1 1N1513      0.0000 
     33 O1         15.7140  -15.8100   16.8760 O.3       1 1N1513      0.0000 
     34 H          16.2212   -7.3827   28.0475 H         1 1N1513      0.0000 
     35 H          16.7148  -14.8245   18.2797 H         1 1N1513      0.0000 
     36 H          21.9173   -6.1084   33.6206 H         1 1N1513      0.0000 
     37 H          20.8462   -8.2769   33.5311 H         1 1N1513      0.0000 
     38 H          15.9641  -11.6417   22.5282 H         1 1N1513      0.0000 
     39 H          17.9977  -15.0080   20.1726 H         1 1N1513      0.0000 
     40 H          19.3312  -13.8810   20.4755 H         1 1N1513      0.0000 
     41 H          15.5180  -12.0913   20.6763 H         1 1N1513      0.0000 
     42 H          15.4335  -13.8612   20.6796 H         1 1N1513      0.0000 
     43 H          17.6833  -13.2554   15.9845 H         1 1N1513      0.0000 
     44 H          15.9249  -13.2966   16.1991 H         1 1N1513      0.0000 
     45 H          17.7972  -15.6348   16.6795 H         1 1N1513      0.0000 
     46 H          16.8791  -15.3490   15.1911 H         1 1N1513      0.0000 
     47 H          15.5659  -10.2455   24.3872 H         1 1N1513      0.0000 
     48 H          17.7196   -6.8387   29.7591 H         1 1N1513      0.0000 
     49 H          21.4929   -4.4775   31.8790 H         1 1N1513      0.0000 
     50 H          18.9682  -12.7053   18.4627 H         1 1N1513      0.0000 
     51 H          18.9206  -14.4316   18.0659 H         1 1N1513      0.0000 
     52 H          14.9810  -13.6207   18.5067 H         1 1N1513      0.0000 
     53 H          15.5948  -11.9593   18.4535 H         1 1N1513      0.0000 
     54 H          19.8186   -9.9978   31.7107 H         1 1N1513      0.0000 
     55 H          18.5846   -9.4120   32.5595 H         1 1N1513      0.0000 
     56 H          18.5399   -9.3847   30.9521 H         1 1N1513      0.0000 
     57 H          21.5094  -12.4300   23.6860 H         1 1N1513      0.0000 
     58 H          21.6564  -11.1309   22.7495 H         1 1N1513      0.0000 
     59 H          21.3406  -10.9605   24.3171 H         1 1N1513      0.0000 
     60 H          15.5712  -15.1963   16.0993 H         1 1N1513      0.0000 
@<TRIPOS>BOND
     1    2    1 2    
     2   20    1 1    
     3   34    1 1    
     4    3    2 1    
     5   21    2 1    
     6   22    3 am   
     7   27    3 2    
     8   16    4 1    
     9   31    4 1    
    10   32    4 1    
    11   35    4 1    
    12    6    5 ar   
    13   25    5 ar   
    14   36    5 1    
    15    7    6 ar   
    16   37    6 1    
    17    8    7 1    
    18   23    7 ar   
    19   54    8 1    
    20   55    8 1    
    21   56    8 1    
    22   10    9 ar   
    23   18    9 1    
    24   29    9 ar   
    25   11   10 ar   
    26   38   10 1    
    27   28   11 ar   
    28   30   11 1    
    29   13   12 1    
    30   28   12 ar   
    31   29   12 ar   
    32   57   13 1    
    33   58   13 1    
    34   59   13 1    
    35   30   14 1    
    36   31   14 1    
    37   39   14 1    
    38   40   14 1    
    39   30   15 1    
    40   32   15 1    
    41   41   15 1    
    42   42   15 1    
    43   17   16 1    
    44   43   16 1    
    45   44   16 1    
    46   33   17 1    
    47   45   17 1    
    48   46   17 1    
    49   19   18 1    
    50   47   18 1    
    51   20   19 2    
    52   21   19 1    
    53   23   22 1    
    54   48   22 1    
    55   24   23 ar   
    56   25   24 ar   
    57   26   24 1    
    58   49   25 1    
    59   50   31 1    
    60   51   31 1    
    61   52   32 1    
    62   53   32 1    
    63   60   33 1    
@<TRIPOS>SUBSTRUCTURE
     1 1N1513      1 GROUP   
@<TRIPOS>SET

