#    Name: 4fgg_0U5_1_INTS_M
#    Modification time : Mon Mar 24 19:59:01 2014

@<TRIPOS>MOLECULE
4fgg_0U5_1_INTS_M
   95     0     6     0     0
SMALL
NO_CHARGES


@<TRIPOS>ATOM
      1 O          -2.9910   27.5140   -2.4185 O.2       1 ALC1        0.0000 
      2 O          -3.3500   28.6590   -3.0040 O.2       5 ALL1        0.0000 
      3 O          -2.6320   26.3690   -1.8330 O.2       3 ALP1        0.0000 
      4 O          -1.9625   29.1575   -3.0140 O.2       1 ALC1        0.0000 
      5 O          -0.5750   29.6560   -3.0240 O.2       3 ALP1        0.0000 
      6 CA         -5.0825   27.9495   -1.8520 C.3       2 GLC5        0.0000 
      7 CA         -4.5490   28.6720   -3.8260 C.3       6 GLL5        0.0000 
      8 CA         -5.6160   27.2270    0.1220 C.3       4 GLP5        0.0000 
      9 CA         -4.1425   26.7195   -3.8215 C.3       2 GLC5        0.0000 
     10 CA         -3.7360   24.7670   -3.8170 C.3       4 GLP5        0.0000 
     11 CA         -4.0715   31.6540   -3.4390 C.3       2 GLC5        0.0000 
     12 CA         -3.8080   30.8840   -4.7960 C.3       6 GLL5        0.0000 
     13 CA         -4.3350   32.4240   -2.0820 C.3       4 GLP5        0.0000 
     14 CA         -2.5505   29.8465   -5.3430 C.3       2 GLC5        0.0000 
     15 CA         -1.2930   28.8090   -5.8900 C.3       4 GLP5        0.0000 
     16 CA         -3.8740   31.0955   -8.4490 C.3       2 GLC5        0.0000 
     17 CA         -3.4390   32.3470   -6.8600 C.3       6 GLL5        0.0000 
     18 CA         -4.3090   29.8440  -10.0380 C.3       4 GLP5        0.0000 
     19 CA         -4.3945   32.2375   -9.1650 C.3       2 GLC5        0.0000 
     20 CA         -3.7800   33.4440   -7.6650 C.3       6 GLL5        0.0000 
     21 CA         -5.0090   31.0310  -10.6650 C.3       4 GLP5        0.0000 
     22 CA         -3.3765   32.1190   -9.8035 C.3       2 GLC5        0.0000 
     23 CA         -1.7440   33.2070   -8.9420 C.3       6 GLL5        0.0000 
     24 CA         -0.6270   34.7835   -9.3220 C.3       2 GLC5        0.0000 
     25 CA          0.4900   36.3600   -9.7020 C.3       4 GLP5        0.0000 
     26 CA         -0.3965   32.2320   -9.6710 C.3       2 GLC5        0.0000 
     27 CA          0.9510   31.2570  -10.4000 C.3       4 GLP5        0.0000 
     28 CA         -5.6090   32.7880   -8.6490 C.3       2 GLC5        0.0000 
     29 CA         -4.8420   34.2760   -7.2810 C.3       6 GLL5        0.0000 
     30 CA         -6.3760   31.3000  -10.0170 C.3       4 GLP5        0.0000 
     31 CA         -6.3620   33.2685   -9.4465 C.3       2 GLC5        0.0000 
     32 CA         -6.3480   35.2370   -8.8760 C.3       6 GLL5        0.0000 
     33 CA         -4.6780   35.8265   -4.4615 C.3       2 GLC5        0.0000 
     34 CA         -6.8550   35.6080   -4.4980 C.3       6 GLL5        0.0000 
     35 CA         -2.5010   36.0450   -4.4250 C.3       4 GLP5        0.0000 
     36 CA         -6.3650   36.8880   -3.3590 C.3       2 GLC5        0.0000 
     37 CA         -5.8750   38.1680   -2.2200 C.3       4 GLP5        0.0000 
     38 CA        -10.0520   35.7740   -4.0340 C.3       2 GLC5        0.0000 
     39 CA        -10.0050   37.2120   -2.7720 C.3       6 GLL5        0.0000 
     40 CA        -10.0990   34.3360   -5.2960 C.3       4 GLP5        0.0000 
     41 CA        -11.4645   35.3805   -4.2515 C.3       2 GLC5        0.0000 
     42 CA        -11.3030   36.4500   -3.1410 C.3       6 GLL5        0.0000 
     43 CA        -11.6260   34.3110   -5.3620 C.3       4 GLP5        0.0000 
     44 CA        -12.4950   36.3400   -1.3390 C.3       2 GLC5        0.0000 
     45 CA        -13.6870   36.2300    0.4630 C.3       4 GLP5        0.0000 
     46 CA        -11.9090   36.9370   -0.4385 C.3       2 GLC5        0.0000 
     47 CA        -10.1310   37.6440   -1.3400 C.3       6 GLL5        0.0000 
     48 CA         -5.1255   26.1545   -4.1175 C.3       2 GLC5        0.0000 
     49 CA         -6.5150   27.5420   -4.4180 C.3       6 GLL5        0.0000 
     50 CA         -6.5210   26.4810   -6.0245 C.3       2 GLC5        0.0000 
     51 CA         -6.5270   25.4200   -7.6310 C.3       4 GLP5        0.0000 
     52 CA         -7.4840   28.5230   -3.4545 C.3       2 GLC5        0.0000 
     53 CA         -8.4530   29.5040   -2.4910 C.3       4 GLP5        0.0000 
     54 O          -8.8970   26.3360   -4.6225 O.2       1 ALC1        0.0000 
     55 O          -7.3880   26.4020   -4.2470 O.2       5 ALL1        0.0000 
     56 O         -10.4060   26.2700   -4.9980 O.2       3 ALP1        0.0000 
     57 O          -8.2190   26.8560   -5.3145 O.2       1 ALC1        0.0000 
     58 O          -9.0500   27.3100   -6.3820 O.2       3 ALP1        0.0000 
     59 O          -7.8405   25.2685   -3.2125 O.2       1 ALC1        0.0000 
     60 O          -8.2930   24.1350   -2.1780 O.2       3 ALP1        0.0000 
     61 CA        -13.7700   36.5715   -1.3365 C.3       2 GLC5        0.0000 
     62 CA        -13.8530   36.9130   -3.1360 C.3       6 GLL5        0.0000 
     63 CA         -9.9140   31.3870   -5.6150 C.3       2 GLC5        0.0000 
     64 CA         -8.0650   31.0010   -6.2540 C.3       6 GLL5        0.0000 
     65 CA        -11.7630   31.7730   -4.9760 C.3       4 GLP5        0.0000 
     66 CA         -8.2590   30.2525   -4.3725 C.3       2 GLC5        0.0000 
     67 CA         -9.4045   33.2040   -6.1940 C.3       2 GLC5        0.0000 
     68 CA         -8.7100   32.0720   -7.0920 C.3       6 GLL5        0.0000 
     69 CA         -3.3190   35.2870   -6.6225 C.3       2 GLC5        0.0000 
     70 CA         -2.3270   36.7140   -5.7720 C.3       4 GLP5        0.0000 
     71 CA         -3.8179   34.6532   -5.1106 C.3       2 GLC5        0.0000 
     72 CA         -5.5670   34.0180   -6.0980 C.3       6 GLL5        0.0000 
     73 CA         -8.4465   34.8077   -5.2040 C.3       2 GLC5        0.0000 
     74 CA         -6.7330   34.9510   -5.7260 C.3       6 GLL5        0.0000 
     75 CA         -7.9715   37.7980   -2.1380 C.3       2 GLC5        0.0000 
     76 CA        -11.3418   36.0725    0.8213 C.3       2 GLC5        0.0000 
     77 CA         -9.5930   36.8300   -0.3600 C.3       6 GLL5        0.0000 
     78 CA        -13.0430   35.1270    1.3100 C.3       4 GLP5        0.0000 
     79 CA         -7.7157   37.6480    0.3137 C.3       2 GLC5        0.0000 
     80 CA         -9.6880   37.2060    1.0250 C.3       6 GLL5        0.0000 
     81 CA         -5.7910   38.2780    0.2950 C.3       4 GLP5        0.0000 
     82 CA         -8.7489   37.2310    2.2119 C.3       2 GLC5        0.0000 
     83 CA        -10.3310   38.4060    1.3710 C.3       6 GLL5        0.0000 
     84 CA         -7.5120   36.7500    3.5720 C.3       4 GLP5        0.0000 
     85 CA        -12.3321   38.1619    0.6275 C.3       2 GLC5        0.0000 
     86 CA        -13.9690   37.4790    1.3150 C.3       4 GLP5        0.0000 
     87 CA        -10.0406   40.3559    0.4680 C.3       2 GLC5        0.0000 
     88 CA        -10.8800   39.2370    0.3670 C.3       6 GLL5        0.0000 
     89 CA         -9.3860   41.8670    0.9960 C.3       4 GLP5        0.0000 
     90 CA         -6.9123   29.4521   -3.6910 C.3       2 GLC5        0.0000 
     91 CA         -4.8370   29.7350   -4.7360 C.3       6 GLL5        0.0000 
     92 CA        -12.6714   36.3587   -4.9859 C.3       2 GLC5        0.0000 
     93 CA        -12.4690   37.2410   -3.7530 C.3       6 GLL5        0.0000 
     94 CA        -12.1760   35.4710   -6.2040 C.3       4 GLP5        0.0000 
     95 CA         -7.2024   31.3661   -8.3794 C.3       2 GLC5        0.0000 
@<TRIPOS>BOND
@<TRIPOS>SUBSTRUCTURE
     1 ALC1        1 GROUP        1 X    ALC  0     ROOT ALC X 1
     2 GLC5        6 GROUP        1 X    GLC  0     **** GLC X 6
     3 ALP1        3 GROUP        1 Y    ALP  0     ROOT ALP Y 8
     4 GLP5        8 GROUP        1 Y    GLP  0     **** GLP Y 13
     5 ALL1        2 GROUP        1 Z    ALL  0     ROOT ALL Z 15
     6 GLL5        7 GROUP        1 Z    GLL  0     **** GLL Z 20
@<TRIPOS>SET

