#    Name: 4fgg_0U5_1_ligand
#    Modification time : Mon Mar 24 19:59:01 2014

@<TRIPOS>MOLECULE
4fgg_0U5_1_ligand
   76    79     1     0     0
SMALL
NO_CHARGES


@<TRIPOS>ATOM
      1 N01        -3.3500   28.6590   -3.0040 N.pl3     1 0U5200      0.0000 
      2 C02        -4.5490   28.6720   -3.8260 C.ar      1 0U5200      0.0000 
      3 C03        -4.8370   29.7350   -4.7360 C.ar      1 0U5200      0.0000 
      4 C04        -3.8080   30.8840   -4.7960 C.3       1 0U5200      0.0000 
      5 C05        -4.1730   32.0860   -5.6860 C.ar      1 0U5200      0.0000 
      6 C06        -3.4390   32.3470   -6.8600 C.ar      1 0U5200      0.0000 
      7 C07        -3.7800   33.4440   -7.6650 C.ar      1 0U5200      0.0000 
      8 O08        -3.0530   33.6790   -8.8280 O.3       1 0U5200      0.0000 
      9 C09        -1.7440   33.2070   -8.9420 C.3       1 0U5200      0.0000 
     10 C10        -4.8420   34.2760   -7.2810 C.ar      1 0U5200      0.0000 
     11 O11        -5.2270   35.3680   -8.0420 O.3       1 0U5200      0.0000 
     12 C12        -6.3480   35.2370   -8.8760 C.3       1 0U5200      0.0000 
     13 C13        -5.5670   34.0180   -6.0980 C.ar      1 0U5200      0.0000 
     14 C14        -6.7330   34.9510   -5.7260 C.2       1 0U5200      0.0000 
     15 C15        -6.8550   35.6080   -4.4980 C.2       1 0U5200      0.0000 
     16 C16        -8.1290   36.4520   -4.2750 C.2       1 0U5200      0.0000 
     17 N17        -8.8020   36.4250   -3.0030 N.am      1 0U5200      0.0000 
     18 N18        -8.2460   35.6410   -2.0310 N.2       1 0U5200      0.0000 
     19 C19        -8.9180   35.5520   -0.7680 C.2       1 0U5200      0.0000 
     20 C20       -10.0050   37.2120   -2.7720 C.3       1 0U5200      0.0000 
     21 C21       -11.3030   36.4500   -3.1410 C.2       1 0U5200      0.0000 
     22 C22       -12.4690   37.2410   -3.7530 C.2       1 0U5200      0.0000 
     23 C23       -12.4920   37.9190   -5.0460 C.3       1 0U5200      0.0000 
     24 C24       -10.1310   37.6440   -1.3400 C.ar      1 0U5200      0.0000 
     25 C25        -9.5930   36.8300   -0.3600 C.ar      1 0U5200      0.0000 
     26 C26        -9.6880   37.2060    1.0250 C.ar      1 0U5200      0.0000 
     27 C27       -10.3310   38.4060    1.3710 C.ar      1 0U5200      0.0000 
     28 C28       -10.8800   39.2370    0.3670 C.ar      1 0U5200      0.0000 
     29 C29       -10.7850   38.8680   -0.9890 C.ar      1 0U5200      0.0000 
     30 O30        -8.5570   37.1230   -5.1920 O.2       1 0U5200      0.0000 
     31 C31        -5.2320   32.9240   -5.3030 C.ar      1 0U5200      0.0000 
     32 C32        -6.0500   29.5970   -5.5010 C.ar      1 0U5200      0.0000 
     33 N33        -6.8310   28.5020   -5.2980 N.ar      1 0U5200      0.0000 
     34 C34        -6.5150   27.5420   -4.4180 C.ar      1 0U5200      0.0000 
     35 N35        -7.3880   26.4020   -4.2470 N.pl3     1 0U5200      0.0000 
     36 N36        -5.3800   27.6270   -3.6970 N.ar      1 0U5200      0.0000 
     37 C37       -13.8530   36.9130   -3.1360 C.3       1 0U5200      0.0000 
     38 C38        -6.6300   30.5840   -6.5290 C.3       1 0U5200      0.0000 
     39 C39        -8.0650   31.0010   -6.2540 C.3       1 0U5200      0.0000 
     40 C40        -8.7100   32.0720   -7.0920 C.3       1 0U5200      0.0000 
     41 H          -2.5449   29.1067   -3.3930 H         1 0U5200      0.0000 
     42 H          -3.4293   28.2034   -2.1173 H         1 0U5200      0.0000 
     43 H          -2.8377   30.4688   -5.1421 H         1 0U5200      0.0000 
     44 H          -3.6294   31.2499   -3.7626 H         1 0U5200      0.0000 
     45 H          -2.6618   31.7379   -7.1216 H         1 0U5200      0.0000 
     46 H          -7.4446   35.0633   -6.4707 H         1 0U5200      0.0000 
     47 H          -6.1994   35.5775   -3.7671 H         1 0U5200      0.0000 
     48 H          -8.9532   34.7739   -0.2151 H         1 0U5200      0.0000 
     49 H          -9.9946   38.1182   -3.3901 H         1 0U5200      0.0000 
     50 H         -11.3714   35.4988   -2.9872 H         1 0U5200      0.0000 
     51 H          -9.2898   36.6003    1.7337 H         1 0U5200      0.0000 
     52 H         -10.4048   38.6842    2.3540 H         1 0U5200      0.0000 
     53 H         -11.3472   40.1085    0.6290 H         1 0U5200      0.0000 
     54 H         -11.1731   39.4571   -1.7177 H         1 0U5200      0.0000 
     55 H          -5.7521   32.7285   -4.4439 H         1 0U5200      0.0000 
     56 H          -7.0966   25.7216   -3.5745 H         1 0U5200      0.0000 
     57 H          -8.2106   26.3886   -4.8154 H         1 0U5200      0.0000 
     58 H          -6.5707   30.1224   -7.5296 H         1 0U5200      0.0000 
     59 H          -5.9886   31.4816   -6.5530 H         1 0U5200      0.0000 
     60 H          -8.1365   31.3060   -5.1650 H         1 0U5200      0.0000 
     61 H          -8.7124   30.0720   -6.2988 H         1 0U5200      0.0000 
     62 H          -1.3380   33.4474   -9.8237 H         1 0U5200      0.0000 
     63 H          -1.1496   33.5856   -8.2326 H         1 0U5200      0.0000 
     64 H          -1.6998   32.2113   -8.8607 H         1 0U5200      0.0000 
     65 H          -6.5392   36.0813   -9.3766 H         1 0U5200      0.0000 
     66 H          -6.2224   34.5149   -9.5563 H         1 0U5200      0.0000 
     67 H          -7.1724   35.0107   -8.3572 H         1 0U5200      0.0000 
     68 H         -11.7883   38.6269   -5.1067 H         1 0U5200      0.0000 
     69 H         -12.3342   37.2832   -5.8016 H         1 0U5200      0.0000 
     70 H         -13.3711   38.3642   -5.2163 H         1 0U5200      0.0000 
     71 H         -14.0891   35.9475   -3.2457 H         1 0U5200      0.0000 
     72 H         -13.8794   37.1117   -2.1563 H         1 0U5200      0.0000 
     73 H         -14.5851   37.4441   -3.5626 H         1 0U5200      0.0000 
     74 H          -8.2173   32.9399   -7.0291 H         1 0U5200      0.0000 
     75 H          -8.7378   31.8202   -8.0594 H         1 0U5200      0.0000 
     76 H          -9.6524   32.2487   -6.8079 H         1 0U5200      0.0000 
@<TRIPOS>BOND
     1    2    1 1    
     2   41    1 1    
     3   42    1 1    
     4    3    2 ar   
     5   36    2 ar   
     6    4    3 1    
     7   32    3 ar   
     8    5    4 1    
     9   43    4 1    
    10   44    4 1    
    11    6    5 ar   
    12   31    5 ar   
    13    7    6 ar   
    14   45    6 1    
    15    8    7 1    
    16   10    7 ar   
    17    9    8 1    
    18   62    9 1    
    19   63    9 1    
    20   64    9 1    
    21   11   10 1    
    22   13   10 ar   
    23   12   11 1    
    24   65   12 1    
    25   66   12 1    
    26   67   12 1    
    27   14   13 1    
    28   31   13 ar   
    29   15   14 2    
    30   46   14 1    
    31   16   15 1    
    32   47   15 1    
    33   17   16 am   
    34   30   16 2    
    35   18   17 1    
    36   20   17 1    
    37   19   18 2    
    38   25   19 1    
    39   48   19 1    
    40   21   20 1    
    41   24   20 1    
    42   49   20 1    
    43   22   21 2    
    44   50   21 1    
    45   23   22 1    
    46   37   22 1    
    47   68   23 1    
    48   69   23 1    
    49   70   23 1    
    50   25   24 ar   
    51   29   24 ar   
    52   26   25 ar   
    53   27   26 ar   
    54   51   26 1    
    55   28   27 ar   
    56   52   27 1    
    57   29   28 ar   
    58   53   28 1    
    59   54   29 1    
    60   55   31 1    
    61   33   32 ar   
    62   38   32 1    
    63   34   33 ar   
    64   35   34 1    
    65   36   34 ar   
    66   56   35 1    
    67   57   35 1    
    68   71   37 1    
    69   72   37 1    
    70   73   37 1    
    71   39   38 1    
    72   58   38 1    
    73   59   38 1    
    74   40   39 1    
    75   60   39 1    
    76   61   39 1    
    77   74   40 1    
    78   75   40 1    
    79   76   40 1    
@<TRIPOS>SUBSTRUCTURE
     1 0U5200      1 GROUP   
@<TRIPOS>SET

