#    Name: 1z2i_NAD_1_INTS_M
#    Modification time : Mon Apr  7 16:22:01 2014

@<TRIPOS>MOLECULE
1z2i_NAD_1_INTS_M
   83     0    12     0     0
SMALL
NO_CHARGES


@<TRIPOS>ATOM
      1 NZ        -20.6750  -25.3030   -7.1620 N.4       3 LYC4        0.0000 
      2 NZ        -20.1640  -26.3800   -5.5750 N.4      11 LYL4        0.0000 
      3 NZ        -21.1860  -24.2260   -8.7490 N.4       7 LYP4        0.0000 
      4 NZ        -18.5755  -28.9860   -3.3495 N.4       3 LYC4        0.0000 
      5 NZ        -19.6990  -28.4030   -4.1050 N.4      11 LYL4        0.0000 
      6 NZ        -17.2810  -29.3390   -1.2990 N.4       7 LYP4        0.0000 
      7 N         -18.5755  -28.9860   -3.3495 N.am      2 SEC2        0.0000 
      8 N         -19.6990  -28.4030   -4.1050 N.am     10 SEL2        0.0000 
      9 N         -17.4520  -29.5690   -2.5940 N.am      6 SEP2        0.0000 
     10 CA        -18.6570  -25.3935   -7.1565 C.3       4 GLC5        0.0000 
     11 CA        -17.1870  -26.8630   -6.5720 C.3      12 GLL5        0.0000 
     12 CA        -20.1270  -23.9240   -7.7410 C.3       8 GLP5        0.0000 
     13 CA        -16.5985  -24.5645   -4.8690 C.3       4 GLC5        0.0000 
     14 CA        -15.8940  -26.2380   -6.1120 C.3      12 GLL5        0.0000 
     15 CA        -17.3030  -22.8910   -3.6260 C.3       8 GLP5        0.0000 
     16 N         -13.8080  -27.9630   -8.3265 N.am      2 SEC2        0.0000 
     17 N         -13.9280  -27.5180   -6.7610 N.am     10 SEL2        0.0000 
     18 N         -13.6880  -28.4080   -9.8920 N.am      6 SEP2        0.0000 
     19 N         -11.8525  -28.2915   -4.2310 N.am      2 SEC2        0.0000 
     20 N         -13.5030  -28.0610   -4.1110 N.am     10 SEL2        0.0000 
     21 N         -10.2020  -28.5220   -4.3510 N.am      6 SEP2        0.0000 
     22 O         -13.3315  -29.3315   -3.9310 O.2       1 ALC1        0.0000 
     23 O         -13.5030  -28.0610   -4.1110 O.2       9 ALL1        0.0000 
     24 O         -13.1600  -30.6020   -3.7510 O.2       5 ALP1        0.0000 
     25 CA        -15.9895  -24.3960   -3.8885 C.3       4 GLC5        0.0000 
     26 CA        -14.6760  -25.9010   -4.1510 C.3      12 GLL5        0.0000 
     27 CA        -12.5675  -24.6565    0.9330 C.3       4 GLC5        0.0000 
     28 CA        -14.3500  -23.9270    0.3040 C.3      12 GLL5        0.0000 
     29 CA        -10.7850  -25.3860    1.5620 C.3       8 GLP5        0.0000 
     30 CA        -11.6795  -24.3875    0.2125 C.3       4 GLC5        0.0000 
     31 CA        -12.5740  -23.3890   -1.1370 C.3      12 GLL5        0.0000 
     32 CA        -14.0505  -22.4780   -1.7735 C.3       4 GLC5        0.0000 
     33 CA        -15.5270  -21.5670   -2.4100 C.3       8 GLP5        0.0000 
     34 NZ        -20.8135  -25.6790   -8.6400 N.4       3 LYC4        0.0000 
     35 NZ        -20.4410  -27.1320   -8.5310 N.4      11 LYL4        0.0000 
     36 N         -20.2740  -26.8840   -9.8580 N.am      2 SEC2        0.0000 
     37 N         -20.4410  -27.1320   -8.5310 N.am     10 SEL2        0.0000 
     38 N         -20.1070  -26.6360  -11.1850 N.am      6 SEP2        0.0000 
     39 N         -20.8135  -25.6790   -8.6400 N.am      2 SEC2        0.0000 
     40 N         -21.1860  -24.2260   -8.7490 N.am      6 SEP2        0.0000 
     41 O         -17.0625  -32.8785  -10.3175 O.2       1 ALC1        0.0000 
     42 O         -18.3550  -33.0820   -9.8150 O.2       9 ALL1        0.0000 
     43 O         -15.7700  -32.6750  -10.8200 O.2       5 ALP1        0.0000 
     44 CA        -19.5235  -30.3650  -13.1660 C.3       4 GLC5        0.0000 
     45 CA        -19.5860  -31.6730  -11.4140 C.3      12 GLL5        0.0000 
     46 CA        -19.4610  -29.0570  -14.9180 C.3       8 GLP5        0.0000 
     47 N         -17.8335  -33.0520  -13.1580 N.am      2 SEC2        0.0000 
     48 N         -18.6530  -32.1770  -12.3690 N.am     10 SEL2        0.0000 
     49 N         -17.0140  -33.9270  -13.9470 N.am      6 SEP2        0.0000 
     50 O         -17.5325  -31.5180  -12.1255 O.2       1 ALC1        0.0000 
     51 O         -18.6530  -32.1770  -12.3690 O.2       9 ALL1        0.0000 
     52 O         -16.4120  -30.8590  -11.8820 O.2       5 ALP1        0.0000 
     53 CA        -21.5655  -34.2345  -11.1105 C.3       4 GLC5        0.0000 
     54 CA        -20.9120  -32.3940  -11.4630 C.3      12 GLL5        0.0000 
     55 CA        -22.2190  -36.0750  -10.7580 C.3       8 GLP5        0.0000 
     56 CA        -22.2160  -34.4030  -12.9025 C.3       4 GLC5        0.0000 
     57 CA        -21.7690  -32.8330  -13.7720 C.3      12 GLL5        0.0000 
     58 CA        -22.6630  -35.9730  -12.0330 C.3       8 GLP5        0.0000 
     59 O         -20.9230  -35.0670  -15.2945 O.2       1 ALC1        0.0000 
     60 O         -21.9330  -34.4820  -16.0820 O.2       9 ALL1        0.0000 
     61 O         -19.9130  -35.6520  -14.5070 O.2       5 ALP1        0.0000 
     62 CA        -20.9305  -29.9080  -13.7765 C.3       4 GLC5        0.0000 
     63 CA        -22.4000  -30.7590  -12.6350 C.3      12 GLL5        0.0000 
     64 CA        -16.9367  -26.0207   -8.0890 C.3       4 GLC5        0.0000 
     65 CA        -17.3330  -25.4910   -9.8360 C.3       8 GLP5        0.0000 
     66 CA        -14.4135  -25.9213   -7.5790 C.3       4 GLC5        0.0000 
     67 CA        -13.3400  -24.9740   -9.1540 C.3       8 GLP5        0.0000 
     68 CA        -14.9930  -23.0572   -1.7444 C.3       4 GLC5        0.0000 
     69 CA        -14.9420  -24.7090   -0.7190 C.3      12 GLL5        0.0000 
     70 CA        -19.7689  -33.0751   -8.1032 C.3       4 GLC5        0.0000 
     71 CA        -20.6920  -30.9570   -8.1840 C.3      12 GLL5        0.0000 
     72 CA        -19.6670  -34.4550   -6.8620 C.3       8 GLP5        0.0000 
     73 CA        -19.1275  -33.8342  -11.9857 C.3       4 GLC5        0.0000 
     74 CA        -18.0060  -35.6350  -12.5330 C.3       8 GLP5        0.0000 
     75 CA        -21.0423  -31.2370  -15.2218 C.3       4 GLC5        0.0000 
     76 CA        -19.9400  -29.8340  -16.1110 C.3       8 GLP5        0.0000 
     77 CA        -22.1340  -29.9023  -15.4490 C.3       4 GLC5        0.0000 
     78 CA        -23.1380  -30.3850  -13.7430 C.3      12 GLL5        0.0000 
     79 CA        -21.0990  -29.0030  -16.5970 C.3       8 GLP5        0.0000 
     80 CA        -22.6330  -28.6980  -12.3915 C.3       4 GLC5        0.0000 
     81 CA        -22.4970  -26.8240  -11.5940 C.3       8 GLP5        0.0000 
     82 CA        -24.1547  -29.3331  -13.7805 C.3       4 GLC5        0.0000 
     83 CA        -25.5250  -27.8860  -14.0930 C.3       8 GLP5        0.0000 
@<TRIPOS>BOND
@<TRIPOS>SUBSTRUCTURE
     1 ALC1       22 GROUP        1 X    ALC  0     ROOT ALC X 1
     2 SEC2        7 GROUP        1 X    SEC  0     **** SEC X 2
     3 LYC4        1 GROUP        1 X    LYC  0     **** LYC X 4
     4 GLC5       10 GROUP        1 X    GLC  0     **** GLC X 6
     5 ALP1       24 GROUP        1 Y    ALP  0     ROOT ALP Y 8
     6 SEP2        9 GROUP        1 Y    SEP  0     **** SEP Y 9
     7 LYP4        3 GROUP        1 Y    LYP  0     **** LYP Y 11
     8 GLP5       12 GROUP        1 Y    GLP  0     **** GLP Y 13
     9 ALL1       23 GROUP        1 Z    ALL  0     ROOT ALL Z 15
    10 SEL2        8 GROUP        1 Z    SEL  0     **** SEL Z 16
    11 LYL4        2 GROUP        1 Z    LYL  0     **** LYL Z 18
    12 GLL5       11 GROUP        1 Z    GLL  0     **** GLL Z 20
@<TRIPOS>SET

