#    Name: 1z2i_NAD_1_ligand
#    Modification time : Mon Apr  7 16:22:01 2014

@<TRIPOS>MOLECULE
1z2i_NAD_1_ligand
   70    74     1     0     0
SMALL
NO_CHARGES


@<TRIPOS>ATOM
      1 PA        -19.4120  -27.6340   -5.3400 P.3       1 NAD700      0.0000 
      2 O1A       -20.1640  -26.3800   -5.5750 O.co2     1 NAD700      0.0000 
      3 O2A       -19.6990  -28.4030   -4.1050 O.co2     1 NAD700      0.0000 
      4 O5B       -17.8270  -27.3330   -5.3820 O.3       1 NAD700      0.0000 
      5 C5B       -17.1870  -26.8630   -6.5720 C.3       1 NAD700      0.0000 
      6 C4B       -15.8940  -26.2380   -6.1120 C.3       1 NAD700      0.0000 
      7 O4B       -15.6350  -25.3030   -5.0560 O.3       1 NAD700      0.0000 
      8 C3B       -15.0800  -27.4990   -5.8960 C.3       1 NAD700      0.0000 
      9 O3B       -13.9280  -27.5180   -6.7610 O.3       1 NAD700      0.0000 
     10 C2B       -14.7450  -27.4100   -4.4000 C.3       1 NAD700      0.0000 
     11 O2B       -13.5030  -28.0610   -4.1110 O.3       1 NAD700      0.0000 
     12 C1B       -14.6760  -25.9010   -4.1510 C.3       1 NAD700      0.0000 
     13 N9A       -15.0100  -25.5510   -2.7420 N.pl3     1 NAD700      0.0000 
     14 C8A       -16.0810  -25.9500   -2.0550 C.2       1 NAD700      0.0000 
     15 N7A       -16.0420  -25.4330   -0.8120 N.2       1 NAD700      0.0000 
     16 C5A       -14.9420  -24.7090   -0.7190 C.ar      1 NAD700      0.0000 
     17 C6A       -14.3500  -23.9270    0.3040 C.ar      1 NAD700      0.0000 
     18 N6A       -14.9360  -23.8190    1.4920 N.pl3     1 NAD700      0.0000 
     19 N1A       -13.1810  -23.2980    0.0480 N.ar      1 NAD700      0.0000 
     20 C2A       -12.5740  -23.3890   -1.1370 C.ar      1 NAD700      0.0000 
     21 N3A       -13.1070  -24.1130   -2.1220 N.ar      1 NAD700      0.0000 
     22 C4A       -14.2720  -24.7770   -1.9500 C.ar      1 NAD700      0.0000 
     23 O3        -19.6190  -28.6130   -6.6010 O.3       1 NAD700      0.0000 
     24 PN        -20.7010  -28.3710   -7.7610 P.3       1 NAD700      0.0000 
     25 O1N       -20.4410  -27.1320   -8.5310 O.co2     1 NAD700      0.0000 
     26 O2N       -22.0240  -28.4710   -7.1120 O.co2     1 NAD700      0.0000 
     27 O5D       -20.4950  -29.6370   -8.7250 O.3       1 NAD700      0.0000 
     28 C5D       -20.6920  -30.9570   -8.1840 C.3       1 NAD700      0.0000 
     29 C4D       -20.4810  -32.0420   -9.2400 C.3       1 NAD700      0.0000 
     30 O4D       -21.5150  -31.9410  -10.2350 O.3       1 NAD700      0.0000 
     31 C3D       -19.1550  -31.8910   -9.9770 C.3       1 NAD700      0.0000 
     32 O3D       -18.3550  -33.0820   -9.8150 O.3       1 NAD700      0.0000 
     33 C2D       -19.5860  -31.6730  -11.4140 C.3       1 NAD700      0.0000 
     34 O2D       -18.6530  -32.1770  -12.3690 O.3       1 NAD700      0.0000 
     35 C1D       -20.9120  -32.3940  -11.4630 C.3       1 NAD700      0.0000 
     36 N1N       -21.7030  -31.9960  -12.6410 N.pl3     1 NAD700      0.0000 
     37 C2N       -21.7690  -32.8330  -13.7720 C.ar      1 NAD700      0.0000 
     38 C3N       -22.5200  -32.4470  -14.8930 C.ar      1 NAD700      0.0000 
     39 C7N       -22.6170  -33.3250  -16.1370 C.2       1 NAD700      0.0000 
     40 O7N       -23.2760  -32.9860  -17.1170 O.2       1 NAD700      0.0000 
     41 N7N       -21.9330  -34.4820  -16.0820 N.am      1 NAD700      0.0000 
     42 C4N       -23.2000  -31.2180  -14.8590 C.ar      1 NAD700      0.0000 
     43 C5N       -23.1380  -30.3850  -13.7430 C.ar      1 NAD700      0.0000 
     44 C6N       -22.4000  -30.7590  -12.6350 C.ar      1 NAD700      0.0000 
     45 H         -17.7760  -26.1093   -7.0745 H         1 NAD700      0.0000 
     46 H         -16.9580  -27.6713   -7.2515 H         1 NAD700      0.0000 
     47 H         -15.4006  -25.8529   -7.0937 H         1 NAD700      0.0000 
     48 H         -15.7338  -28.3312   -6.0354 H         1 NAD700      0.0000 
     49 H         -15.5718  -27.7977   -3.8590 H         1 NAD700      0.0000 
     50 H         -13.6837  -25.5705   -4.3942 H         1 NAD700      0.0000 
     51 H         -16.7909  -26.5297   -2.3951 H         1 NAD700      0.0000 
     52 H         -15.8223  -24.2720    1.5883 H         1 NAD700      0.0000 
     53 H         -14.4377  -23.2945    2.1824 H         1 NAD700      0.0000 
     54 H         -11.6649  -22.8838   -1.2955 H         1 NAD700      0.0000 
     55 H         -21.7119  -31.0755   -7.7801 H         1 NAD700      0.0000 
     56 H         -19.9940  -31.1569   -7.3532 H         1 NAD700      0.0000 
     57 H         -20.5051  -33.0042   -8.7692 H         1 NAD700      0.0000 
     58 H         -18.6815  -31.0118   -9.6237 H         1 NAD700      0.0000 
     59 H         -19.7890  -30.6211  -11.5320 H         1 NAD700      0.0000 
     60 H         -20.7282  -33.4334  -11.4275 H         1 NAD700      0.0000 
     61 H         -21.2665  -33.7258  -13.7741 H         1 NAD700      0.0000 
     62 H         -21.4141  -34.6470  -15.2432 H         1 NAD700      0.0000 
     63 H         -22.0044  -35.0739  -16.8848 H         1 NAD700      0.0000 
     64 H         -23.7573  -30.9294  -15.6820 H         1 NAD700      0.0000 
     65 H         -23.6458  -29.4881  -13.7486 H         1 NAD700      0.0000 
     66 H         -22.3461  -30.1602  -11.8084 H         1 NAD700      0.0000 
     67 H         -13.1540  -27.7072   -6.1568 H         1 NAD700      0.0000 
     68 H         -13.7235  -29.0358   -4.0777 H         1 NAD700      0.0000 
     69 H         -17.7083  -33.0649  -10.5775 H         1 NAD700      0.0000 
     70 H         -18.0263  -31.4177  -12.5441 H         1 NAD700      0.0000 
@<TRIPOS>BOND
     1    2    1 ar   
     2    3    1 ar   
     3    4    1 1    
     4   23    1 1    
     5    5    4 1    
     6    6    5 1    
     7   45    5 1    
     8   46    5 1    
     9    7    6 1    
    10    8    6 1    
    11   47    6 1    
    12   12    7 1    
    13    9    8 1    
    14   10    8 1    
    15   48    8 1    
    16   67    9 1    
    17   11   10 1    
    18   12   10 1    
    19   49   10 1    
    20   68   11 1    
    21   13   12 1    
    22   50   12 1    
    23   14   13 1    
    24   22   13 1    
    25   15   14 2    
    26   51   14 1    
    27   16   15 1    
    28   17   16 ar   
    29   22   16 ar   
    30   18   17 1    
    31   19   17 ar   
    32   52   18 1    
    33   53   18 1    
    34   20   19 ar   
    35   21   20 ar   
    36   54   20 1    
    37   22   21 ar   
    38   24   23 1    
    39   25   24 ar   
    40   26   24 ar   
    41   27   24 1    
    42   28   27 1    
    43   29   28 1    
    44   55   28 1    
    45   56   28 1    
    46   30   29 1    
    47   31   29 1    
    48   57   29 1    
    49   35   30 1    
    50   32   31 1    
    51   33   31 1    
    52   58   31 1    
    53   69   32 1    
    54   34   33 1    
    55   35   33 1    
    56   59   33 1    
    57   70   34 1    
    58   36   35 1    
    59   60   35 1    
    60   37   36 ar   
    61   44   36 ar   
    62   38   37 ar   
    63   61   37 1    
    64   39   38 1    
    65   42   38 ar   
    66   40   39 2    
    67   41   39 am   
    68   62   41 1    
    69   63   41 1    
    70   43   42 ar   
    71   64   42 1    
    72   44   43 ar   
    73   65   43 1    
    74   66   44 1    
@<TRIPOS>SUBSTRUCTURE
     1 NAD700      1 GROUP   
@<TRIPOS>SET

