#    Name: 2x7d_EGB_1_INTS_M
#    Modification time : Tue Mar 25 05:14:59 2014

@<TRIPOS>MOLECULE
2x7d_EGB_1_INTS_M
   63     0     6     0     0
SMALL
NO_CHARGES


@<TRIPOS>ATOM
      1 O          -9.2990   11.9335   33.5195 O.2       1 ALC1        0.0000 
      2 O          -8.3160   12.2300   34.3450 O.2       5 ALL1        0.0000 
      3 O         -10.2820   11.6370   32.6940 O.2       3 ALP1        0.0000 
      4 CA         -8.3075   12.3230   35.5980 C.3       2 GLC5        0.0000 
      5 CA         -7.3830   13.0190   33.7290 C.3       6 GLL5        0.0000 
      6 CA         -9.2320   11.6270   37.4670 C.3       4 GLP5        0.0000 
      7 CA         -8.9805   12.5875   31.3115 C.3       2 GLC5        0.0000 
      8 CA         -7.4140   13.1510   32.3250 C.3       6 GLL5        0.0000 
      9 CA        -10.5470   12.0240   30.2980 C.3       4 GLP5        0.0000 
     10 CA         -6.1800   11.7845   34.6605 C.3       2 GLC5        0.0000 
     11 CA         -6.4240   13.6850   34.4880 C.3       6 GLL5        0.0000 
     12 CA         -5.9360    9.8840   34.8330 C.3       4 GLP5        0.0000 
     13 CA         -3.6300   15.3385   32.1505 C.3       2 GLC5        0.0000 
     14 CA         -5.5150   14.5990   32.4090 C.3       6 GLL5        0.0000 
     15 CA         -1.7450   16.0780   31.8920 C.3       4 GLP5        0.0000 
     16 CA         -5.8860   12.8555   28.3905 C.3       2 GLC5        0.0000 
     17 CA         -6.5500   14.0070   30.0820 C.3       6 GLL5        0.0000 
     18 CA         -5.2220   11.7040   26.6990 C.3       4 GLP5        0.0000 
     19 CA         -8.5485   13.0155   30.1900 C.3       2 GLC5        0.0000 
     20 CA         -9.7995   16.6905   31.3905 C.3       2 GLC5        0.0000 
     21 CA         -8.6820   17.3460   29.5590 C.3       6 GLL5        0.0000 
     22 CA        -10.9170   16.0350   33.2220 C.3       4 GLP5        0.0000 
     23 CA         -7.0415   18.7755   32.6825 C.3       2 GLC5        0.0000 
     24 CA         -6.8650   18.4810   30.9520 C.3       6 GLL5        0.0000 
     25 CA         -7.2180   19.0700   34.4130 C.3       4 GLP5        0.0000 
     26 CA         -6.3155   20.3970   31.3300 C.3       2 GLC5        0.0000 
     27 CA         -5.7660   22.3130   31.7080 C.3       4 GLP5        0.0000 
     28 CA         -6.8610   21.0205   30.4025 C.3       2 GLC5        0.0000 
     29 CA         -7.9560   19.7280   29.0970 C.3       6 GLL5        0.0000 
     30 CA         -4.1520   17.2255   29.7705 C.3       2 GLC5        0.0000 
     31 CA         -6.0230   16.2830   29.0230 C.3       6 GLL5        0.0000 
     32 CA         -2.2810   18.1680   30.5180 C.3       4 GLP5        0.0000 
     33 CA         -4.7755   13.1585   28.0030 C.3       2 GLC5        0.0000 
     34 CA         -4.3290   14.6130   29.3070 C.3       6 GLL5        0.0000 
     35 CA         -3.0370   15.3455   30.5995 C.3       2 GLC5        0.0000 
     36 CA         -3.5570   13.1050   27.0570 C.3       2 GLC5        0.0000 
     37 CA         -2.8540   14.0330   28.4520 C.3       6 GLL5        0.0000 
     38 CA         -4.2600   12.1770   25.6620 C.3       4 GLP5        0.0000 
     39 CA         -1.1520   13.4825   28.9080 C.3       2 GLC5        0.0000 
     40 CA          0.5500   12.9320   29.3640 C.3       4 GLP5        0.0000 
     41 CA         -1.5385   15.4130   29.2315 C.3       2 GLC5        0.0000 
     42 CA         -0.2230   16.7930   30.0110 C.3       4 GLP5        0.0000 
     43 O          -5.3650   12.1705   29.6110 O.2       1 ALC1        0.0000 
     44 O          -5.3260   13.5580   29.3740 O.2       5 ALL1        0.0000 
     45 O          -5.4040   10.7830   29.8480 O.2       3 ALP1        0.0000 
     46 CA         -7.1197   11.2840   33.3605 C.3       2 GLC5        0.0000 
     47 CA         -6.8410    9.4830   33.6940 C.3       4 GLP5        0.0000 
     48 CA         -7.8315   14.7460   34.0373 C.3       2 GLC5        0.0000 
     49 CA         -5.4880   14.4790   33.8150 C.3       6 GLL5        0.0000 
     50 CA         -9.7070   15.4100   33.9230 C.3       4 GLP5        0.0000 
     51 CA         -5.9210   15.0770   35.7452 C.3       2 GLC5        0.0000 
     52 CA         -5.8860   16.0720   37.3390 C.3       4 GLP5        0.0000 
     53 CA         -4.2125   13.2730   33.8337 C.3       2 GLC5        0.0000 
     54 CA         -2.4690   12.4640   33.5160 C.3       4 GLP5        0.0000 
     55 CA         -4.7227   12.8317   32.3858 C.3       2 GLC5        0.0000 
     56 CA         -3.2190   11.6000   32.5780 C.3       4 GLP5        0.0000 
     57 CA         -8.3186   14.4525   33.1260 C.3       2 GLC5        0.0000 
     58 CA         -6.4620   13.9050   31.6310 C.3       6 GLL5        0.0000 
     59 CA         -6.7085   19.3339   27.4326 C.3       2 GLC5        0.0000 
     60 CA         -6.4070   17.7490   28.6130 C.3       6 GLL5        0.0000 
     61 CA         -6.3540   20.2770   25.8960 C.3       4 GLP5        0.0000 
     62 CA         -2.9503   12.9215   30.1227 C.3       2 GLC5        0.0000 
     63 CA         -2.3090   11.5200   31.3660 C.3       4 GLP5        0.0000 
@<TRIPOS>BOND
@<TRIPOS>SUBSTRUCTURE
     1 ALC1        1 GROUP        1 X    ALC  0     ROOT ALC X 1
     2 GLC5        4 GROUP        1 X    GLC  0     **** GLC X 6
     3 ALP1        3 GROUP        1 Y    ALP  0     ROOT ALP Y 8
     4 GLP5        6 GROUP        1 Y    GLP  0     **** GLP Y 13
     5 ALL1        2 GROUP        1 Z    ALL  0     ROOT ALL Z 15
     6 GLL5        5 GROUP        1 Z    GLL  0     **** GLL Z 20
@<TRIPOS>SET

