#    Name: 2x7d_EGB_1_ligand
#    Modification time : Tue Mar 25 05:14:59 2014

@<TRIPOS>MOLECULE
2x7d_EGB_1_ligand
   39    41     1     0     0
SMALL
NO_CHARGES


@<TRIPOS>ATOM
      1 OAD        -8.3160   12.2300   34.3450 O.3       1 EGB1369     0.0000 
      2 CAR        -7.3830   13.0190   33.7290 C.ar      1 EGB1369     0.0000 
      3 CAI        -7.4140   13.1510   32.3250 C.ar      1 EGB1369     0.0000 
      4 CAG        -6.4240   13.6850   34.4880 C.ar      1 EGB1369     0.0000 
      5 CAF        -5.4880   14.4790   33.8150 C.ar      1 EGB1369     0.0000 
      6 CAH        -5.5150   14.5990   32.4090 C.ar      1 EGB1369     0.0000 
      7 CAS        -6.4620   13.9050   31.6310 C.ar      1 EGB1369     0.0000 
      8 CAT        -6.5500   14.0070   30.0820 C.3       1 EGB1369     0.0000 
      9 CAQ        -6.9250   15.4310   29.6360 C.2       1 EGB1369     0.0000 
     10 CAN        -8.1950   15.9250   29.9200 C.2       1 EGB1369     0.0000 
     11 OAC        -8.9970   15.1350   30.4080 O.2       1 EGB1369     0.0000 
     12 CAJ        -8.6820   17.3460   29.5590 C.3       1 EGB1369     0.0000 
     13 CAU        -7.4820   18.3370   29.5540 C.3       1 EGB1369     0.0000 
     14 CAA        -6.8650   18.4810   30.9520 C.3       1 EGB1369     0.0000 
     15 CAB        -7.9560   19.7280   29.0970 C.3       1 EGB1369     0.0000 
     16 CAK        -6.4070   17.7490   28.6130 C.3       1 EGB1369     0.0000 
     17 CAP        -6.0230   16.2830   29.0230 C.2       1 EGB1369     0.0000 
     18 NAL        -4.7990   15.8390   28.6810 N.am      1 EGB1369     0.0000 
     19 CAO        -4.3290   14.6130   29.3070 C.2       1 EGB1369     0.0000 
     20 SAE        -2.8540   14.0330   28.4520 S.2       1 EGB1369     0.0000 
     21 NAM        -5.3260   13.5580   29.3740 N.am      1 EGB1369     0.0000 
     22 H          -8.1674   12.6726   31.7958 H         1 EGB1369     0.0000 
     23 H          -6.4016   13.5997   35.4967 H         1 EGB1369     0.0000 
     24 H          -4.7671   14.9850   34.3491 H         1 EGB1369     0.0000 
     25 H          -4.8256   15.2086   31.9422 H         1 EGB1369     0.0000 
     26 H          -7.3950   13.3550   29.7684 H         1 EGB1369     0.0000 
     27 H          -9.4046   17.6744   30.2923 H         1 EGB1369     0.0000 
     28 H          -9.1294   17.3326   28.5755 H         1 EGB1369     0.0000 
     29 H          -5.5134   18.3633   28.6564 H         1 EGB1369     0.0000 
     30 H          -6.7860   17.7334   27.5962 H         1 EGB1369     0.0000 
     31 H          -4.1917   16.3017   28.0213 H         1 EGB1369     0.0000 
     32 H          -5.2234   12.6923   29.0176 H         1 EGB1369     0.0000 
     33 H          -6.5219   17.6079   31.2983 H         1 EGB1369     0.0000 
     34 H          -6.0957   19.1199   30.9544 H         1 EGB1369     0.0000 
     35 H          -7.5295   18.8197   31.6181 H         1 EGB1369     0.0000 
     36 H          -7.2066   20.3900   29.0840 H         1 EGB1369     0.0000 
     37 H          -8.3422   19.7043   28.1749 H         1 EGB1369     0.0000 
     38 H          -8.6623   20.0967   29.7012 H         1 EGB1369     0.0000 
     39 H          -8.6737   11.6396   33.6215 H         1 EGB1369     0.0000 
@<TRIPOS>BOND
     1    2    1 1    
     2   39    1 1    
     3    3    2 ar   
     4    4    2 ar   
     5    7    3 ar   
     6   22    3 1    
     7    5    4 ar   
     8   23    4 1    
     9    6    5 ar   
    10   24    5 1    
    11    7    6 ar   
    12   25    6 1    
    13    8    7 1    
    14    9    8 1    
    15   21    8 1    
    16   26    8 1    
    17   10    9 1    
    18   17    9 2    
    19   11   10 2    
    20   12   10 1    
    21   13   12 1    
    22   27   12 1    
    23   28   12 1    
    24   14   13 1    
    25   15   13 1    
    26   16   13 1    
    27   33   14 1    
    28   34   14 1    
    29   35   14 1    
    30   36   15 1    
    31   37   15 1    
    32   38   15 1    
    33   17   16 1    
    34   29   16 1    
    35   30   16 1    
    36   18   17 1    
    37   19   18 am   
    38   31   18 1    
    39   20   19 2    
    40   21   19 am   
    41   32   21 1    
@<TRIPOS>SUBSTRUCTURE
     1 EGB1369     1 GROUP   
@<TRIPOS>SET

