#    Name: 3wec_AUI_1_INTS_M
#    Modification time : Tue Mar 25 02:32:01 2014

@<TRIPOS>MOLECULE
3wec_AUI_1_INTS_M
   62     0     3     0     0
SMALL
NO_CHARGES


@<TRIPOS>ATOM
      1 CA          5.2885    4.7710   23.7135 C.3       1 GLC5        0.0000 
      2 CA          6.6370    4.1720   22.0370 C.3       3 GLL5        0.0000 
      3 CA          3.9400    5.3700   25.3900 C.3       2 GLP5        0.0000 
      4 CA          2.6470    4.2905   19.9115 C.3       1 GLC5        0.0000 
      5 CA          3.7550    4.2610   18.1920 C.3       3 GLL5        0.0000 
      6 CA          1.5390    4.3200   21.6310 C.3       2 GLP5        0.0000 
      7 CA          1.9705    1.7530   17.7745 C.3       1 GLC5        0.0000 
      8 CA          2.7690    3.5460   17.2810 C.3       3 GLL5        0.0000 
      9 CA          1.1720   -0.0400   18.2680 C.3       2 GLP5        0.0000 
     10 CA          1.5015    3.6025   15.9020 C.3       1 GLC5        0.0000 
     11 CA          0.2340    3.6590   14.5230 C.3       2 GLP5        0.0000 
     12 CA          3.5875    7.6915   15.1840 C.3       1 GLC5        0.0000 
     13 CA          3.4730    6.4150   16.7550 C.3       3 GLL5        0.0000 
     14 CA          3.7020    8.9680   13.6130 C.3       2 GLP5        0.0000 
     15 CA          1.1055    5.1210   15.7825 C.3       1 GLC5        0.0000 
     16 CA          1.9770    6.5830   17.0420 C.3       3 GLL5        0.0000 
     17 CA          1.6570    5.9910   20.4985 C.3       1 GLC5        0.0000 
     18 CA          1.7750    7.6620   19.3660 C.3       3 GLL5        0.0000 
     19 CA         -1.6485   10.5770   15.4775 C.3       1 GLC5        0.0000 
     20 CA         -1.8030   11.2970   17.4420 C.3       3 GLL5        0.0000 
     21 CA         -1.4940    9.8570   13.5130 C.3       2 GLP5        0.0000 
     22 CA         -3.0170   12.6975   17.5135 C.3       1 GLC5        0.0000 
     23 CA         -4.2310   14.0980   17.5850 C.3       2 GLP5        0.0000 
     24 CA         -2.7350    9.7900   16.5585 C.3       1 GLC5        0.0000 
     25 CA         -3.6670    8.2830   15.6750 C.3       2 GLP5        0.0000 
     26 CA          0.4515   11.3985   20.7520 C.3       1 GLC5        0.0000 
     27 CA          0.3060   11.8080   18.8460 C.3       3 GLL5        0.0000 
     28 CA          0.5970   10.9890   22.6580 C.3       2 GLP5        0.0000 
     29 CA         -0.9190   12.6860   20.0185 C.3       1 GLC5        0.0000 
     30 CA         -2.1440   13.5640   21.1910 C.3       2 GLP5        0.0000 
     31 CA          2.9315   13.9145   18.3405 C.3       1 GLC5        0.0000 
     32 CA          1.5450   12.2230   18.0440 C.3       3 GLL5        0.0000 
     33 CA          4.3180   15.6060   18.6370 C.3       2 GLP5        0.0000 
     34 CA          6.3420    9.5705   17.7050 C.3       1 GLC5        0.0000 
     35 CA          4.3110    9.5810   17.3400 C.3       3 GLL5        0.0000 
     36 CA          8.3730    9.5600   18.0700 C.3       2 GLP5        0.0000 
     37 CA          4.0065    9.2745   15.4765 C.3       1 GLC5        0.0000 
     38 CA          5.2420   11.2220   21.3190 C.3       1 GLC5        0.0000 
     39 CA          4.3280   11.1790   19.3180 C.3       3 GLL5        0.0000 
     40 CA          6.1560   11.2650   23.3200 C.3       2 GLP5        0.0000 
     41 CA          7.0920    7.6978   21.7402 C.3       1 GLC5        0.0000 
     42 CA          6.5250    6.2390   20.8380 C.3       3 GLL5        0.0000 
     43 CA          7.3980    9.5230   22.1100 C.3       2 GLP5        0.0000 
     44 CA          5.7743    2.1982   22.3275 C.3       1 GLC5        0.0000 
     45 CA          5.3540    0.5460   23.0520 C.3       2 GLP5        0.0000 
     46 CA          3.5100    4.0968   21.1315 C.3       1 GLC5        0.0000 
     47 CA          5.7520    3.5290   21.1690 C.3       3 GLL5        0.0000 
     48 CA          6.7560    3.9630   23.4243 C.3       1 GLC5        0.0000 
     49 CA          7.2150    3.7420   25.2790 C.3       2 GLP5        0.0000 
     50 CA         -1.0737    5.9129   17.7295 C.3       1 GLC5        0.0000 
     51 CA         -1.0270    8.3150   17.7900 C.3       3 GLL5        0.0000 
     52 CA         -1.8820    4.1460   17.5840 C.3       2 GLP5        0.0000 
     53 CA         -2.0610    8.4284   16.8800 C.3       1 GLC5        0.0000 
     54 CA         -0.2490    7.0020   17.8520 C.3       3 GLL5        0.0000 
     55 CA         -1.9703   11.6248   19.6702 C.3       1 GLC5        0.0000 
     56 CA         -2.7440   12.2050   21.5280 C.3       2 GLP5        0.0000 
     57 CA          3.2973   12.0478   16.4153 C.3       1 GLC5        0.0000 
     58 CA          4.6040   12.4310   15.0380 C.3       2 GLP5        0.0000 
     59 CA          5.0853   12.5303   18.5023 C.3       1 GLC5        0.0000 
     60 CA          3.6190   10.6820   18.0670 C.3       3 GLL5        0.0000 
     61 CA          6.1970   14.1300   18.3120 C.3       2 GLP5        0.0000 
     62 CA          4.3752   11.5431   16.7744 C.3       1 GLC5        0.0000 
@<TRIPOS>BOND
@<TRIPOS>SUBSTRUCTURE
     1 GLC5        1 GROUP        1 X    GLC  0     ROOT GLC X 6
     2 GLP5        3 GROUP        1 Y    GLP  0     ROOT GLP Y 13
     3 GLL5        2 GROUP        1 Z    GLL  0     ROOT GLL Z 20
@<TRIPOS>SET

