#    Name: 3wec_AUI_1_ligand
#    Modification time : Tue Mar 25 02:32:01 2014

@<TRIPOS>MOLECULE
3wec_AUI_1_ligand
   61    62     1     0     0
SMALL
NO_CHARGES


@<TRIPOS>ATOM
      1 O13         5.4000    7.6000   18.6770 O.2       1 AUI502      0.0000 
      2 C1          5.0700    6.4000   18.8210 C.2       1 AUI502      0.0000 
      3 C4          5.6480    5.6350   19.9420 C.ar      1 AUI502      0.0000 
      4 C5          6.5250    6.2390   20.8380 C.ar      1 AUI502      0.0000 
      5 C6          7.0470    5.5060   21.9030 C.ar      1 AUI502      0.0000 
      6 C7          6.6370    4.1720   22.0370 C.ar      1 AUI502      0.0000 
      7 C8          5.7520    3.5290   21.1690 C.ar      1 AUI502      0.0000 
      8 C9          5.2100    4.2180   20.0950 C.ar      1 AUI502      0.0000 
      9 N10         4.3110    3.6300   19.2470 N.pl3     1 AUI502      0.0000 
     10 C3          3.7550    4.2610   18.1920 C.2       1 AUI502      0.0000 
     11 C11         2.7690    3.5460   17.2810 C.3       1 AUI502      0.0000 
     12 C2          4.1060    5.6940   17.9150 C.2       1 AUI502      0.0000 
     13 C12         3.4730    6.4150   16.7550 C.3       1 AUI502      0.0000 
     14 C14         1.9770    6.5830   17.0420 C.2       1 AUI502      0.0000 
     15 C15         1.2410    7.0870   18.0680 C.2       1 AUI502      0.0000 
     16 C26         1.7750    7.6620   19.3660 C.3       1 AUI502      0.0000 
     17 C16        -0.2490    7.0020   17.8520 C.3       1 AUI502      0.0000 
     18 C17        -1.0270    8.3150   17.7900 C.3       1 AUI502      0.0000 
     19 C18        -0.2720    9.4890   18.3490 C.2       1 AUI502      0.0000 
     20 C19        -0.5900   10.7920   18.1830 C.2       1 AUI502      0.0000 
     21 C27        -1.8030   11.2970   17.4420 C.3       1 AUI502      0.0000 
     22 C20         0.3060   11.8080   18.8460 C.3       1 AUI502      0.0000 
     23 C21         1.5450   12.2230   18.0440 C.3       1 AUI502      0.0000 
     24 O28         2.3560   12.9700   18.9420 O.3       1 AUI502      0.0000 
     25 C22         2.4360   11.1060   17.5410 C.2       1 AUI502      0.0000 
     26 C23         3.6190   10.6820   18.0670 C.2       1 AUI502      0.0000 
     27 C24         4.3110    9.5810   17.3400 C.3       1 AUI502      0.0000 
     28 C25         4.3280   11.1790   19.3180 C.3       1 AUI502      0.0000 
     29 H           6.7884    7.2244   20.7158 H         1 AUI502      0.0000 
     30 H           7.6970    5.9177   22.5561 H         1 AUI502      0.0000 
     31 H           7.0244    3.6185   22.8490 H         1 AUI502      0.0000 
     32 H           5.5051    2.5440   21.3304 H         1 AUI502      0.0000 
     33 H           4.0406    2.6185   19.4371 H         1 AUI502      0.0000 
     34 H           3.5949    5.8387   15.8481 H         1 AUI502      0.0000 
     35 H           3.9205    7.3922   16.6360 H         1 AUI502      0.0000 
     36 H           1.3929    6.1785   16.1670 H         1 AUI502      0.0000 
     37 H          -0.6973    6.3685   18.6599 H         1 AUI502      0.0000 
     38 H          -0.4470    6.4341   16.9069 H         1 AUI502      0.0000 
     39 H          -1.9740    8.1889   18.3422 H         1 AUI502      0.0000 
     40 H          -1.2948    8.5157   16.7385 H         1 AUI502      0.0000 
     41 H           0.5801    9.2080   18.9179 H         1 AUI502      0.0000 
     42 H           0.6432   11.4132   19.8287 H         1 AUI502      0.0000 
     43 H          -0.2832   12.7222   19.0748 H         1 AUI502      0.0000 
     44 H           1.2455   12.8444   17.2247 H         1 AUI502      0.0000 
     45 H           2.0414   10.6279   16.6672 H         1 AUI502      0.0000 
     46 H           3.1796    2.7451   16.8451 H         1 AUI502      0.0000 
     47 H           1.9646    3.2268   17.7821 H         1 AUI502      0.0000 
     48 H           2.4405    4.1423   16.5485 H         1 AUI502      0.0000 
     49 H           2.3071    6.9887   19.8794 H         1 AUI502      0.0000 
     50 H           2.3727    8.4476   19.2061 H         1 AUI502      0.0000 
     51 H           1.0375    7.9721   19.9660 H         1 AUI502      0.0000 
     52 H          -1.8468   12.2960   17.4385 H         1 AUI502      0.0000 
     53 H          -1.8051   11.0001   16.4871 H         1 AUI502      0.0000 
     54 H          -2.6531   10.9678   17.8531 H         1 AUI502      0.0000 
     55 H           4.5328    9.8388   16.3996 H         1 AUI502      0.0000 
     56 H           5.1697    9.3249   17.7840 H         1 AUI502      0.0000 
     57 H           3.7481    8.7559   17.2927 H         1 AUI502      0.0000 
     58 H           5.1879   10.6933   19.4753 H         1 AUI502      0.0000 
     59 H           4.5480   12.1527   19.2581 H         1 AUI502      0.0000 
     60 H           3.7673   11.0550   20.1367 H         1 AUI502      0.0000 
     61 H           2.9334   13.5474   18.3646 H         1 AUI502      0.0000 
@<TRIPOS>BOND
     1    2    1 2    
     2    3    2 1    
     3   12    2 1    
     4    4    3 ar   
     5    8    3 ar   
     6    5    4 ar   
     7   29    4 1    
     8    6    5 ar   
     9   30    5 1    
    10    7    6 ar   
    11   31    6 1    
    12    8    7 ar   
    13   32    7 1    
    14    9    8 1    
    15   10    9 1    
    16   33    9 1    
    17   11   10 1    
    18   12   10 2    
    19   46   11 1    
    20   47   11 1    
    21   48   11 1    
    22   13   12 1    
    23   14   13 1    
    24   34   13 1    
    25   35   13 1    
    26   15   14 2    
    27   36   14 1    
    28   16   15 1    
    29   17   15 1    
    30   49   16 1    
    31   50   16 1    
    32   51   16 1    
    33   18   17 1    
    34   37   17 1    
    35   38   17 1    
    36   19   18 1    
    37   39   18 1    
    38   40   18 1    
    39   20   19 2    
    40   41   19 1    
    41   21   20 1    
    42   22   20 1    
    43   52   21 1    
    44   53   21 1    
    45   54   21 1    
    46   23   22 1    
    47   42   22 1    
    48   43   22 1    
    49   24   23 1    
    50   25   23 1    
    51   44   23 1    
    52   61   24 1    
    53   26   25 2    
    54   45   25 1    
    55   27   26 1    
    56   28   26 1    
    57   55   27 1    
    58   56   27 1    
    59   57   27 1    
    60   58   28 1    
    61   59   28 1    
    62   60   28 1    
@<TRIPOS>SUBSTRUCTURE
     1 AUI502      1 GROUP   
@<TRIPOS>SET

