#    Name: 4bua_91F_2_INTS_M
#    Modification time : Tue Mar 25 08:22:34 2014

@<TRIPOS>MOLECULE
4bua_91F_2_INTS_M
   50     0     9     0     0
SMALL
NO_CHARGES


@<TRIPOS>ATOM
      1 N          -7.2995   39.9510  -14.5620 N.am      2 SEC2        0.0000 
      2 N          -8.0850   41.1270  -14.2850 N.am      8 SEL2        0.0000 
      3 N          -6.5140   38.7750  -14.8390 N.am      5 SEP2        0.0000 
      4 N          -8.2050   40.5080  -13.0170 N.am      2 SEC2        0.0000 
      5 N          -8.3250   39.8890  -11.7490 N.am      5 SEP2        0.0000 
      6 O          -7.8530   40.6820  -16.8700 O.2       1 ALC1        0.0000 
      7 O          -8.4690   41.8640  -16.4080 O.2       7 ALL1        0.0000 
      8 O          -7.2370   39.5000  -17.3320 O.2       4 ALP1        0.0000 
      9 CA         -7.4830   40.0845  -21.3385 C.3       3 GLC5        0.0000 
     10 CA         -7.3850   42.0300  -20.5030 C.3       9 GLL5        0.0000 
     11 CA         -7.5810   38.1390  -22.1740 C.3       6 GLP5        0.0000 
     12 CA         -4.4280   43.7140  -22.8125 C.3       3 GLC5        0.0000 
     13 CA         -6.1360   43.0020  -23.1820 C.3       9 GLL5        0.0000 
     14 CA         -2.7200   44.4260  -22.4430 C.3       6 GLP5        0.0000 
     15 CA        -12.8285   43.4560  -12.9310 C.3       3 GLC5        0.0000 
     16 CA        -11.4900   44.8030  -13.6960 C.3       9 GLL5        0.0000 
     17 CA        -14.1670   42.1090  -12.1660 C.3       6 GLP5        0.0000 
     18 CA         -8.1425   43.8180  -12.3980 C.3       3 GLC5        0.0000 
     19 CA         -9.8860   43.0500  -13.1900 C.3       9 GLL5        0.0000 
     20 CA         -6.3990   44.5860  -11.6060 C.3       6 GLP5        0.0000 
     21 CA        -10.0185   40.8450  -12.9570 C.3       3 GLC5        0.0000 
     22 CA        -10.1510   38.6400  -12.7240 C.3       6 GLP5        0.0000 
     23 CA         -9.4902   40.8128  -18.3657 C.3       3 GLC5        0.0000 
     24 CA         -8.8730   42.6560  -18.7080 C.3       9 GLL5        0.0000 
     25 CA        -10.6930   39.2800  -17.8020 C.3       6 GLP5        0.0000 
     26 CA         -6.3602   40.5547  -19.6825 C.3       3 GLC5        0.0000 
     27 CA         -7.7020   42.0350  -19.1510 C.3       9 GLL5        0.0000 
     28 CA         -5.1770   39.0770  -19.5380 C.3       6 GLP5        0.0000 
     29 CA         -6.0290   41.8272  -24.2928 C.3       3 GLC5        0.0000 
     30 CA         -7.8180   42.6310  -23.0970 C.3       9 GLL5        0.0000 
     31 CA         -5.0810   40.8380  -25.4460 C.3       6 GLP5        0.0000 
     32 CA         -9.4108   44.9789  -20.0768 C.3       3 GLC5        0.0000 
     33 CA         -9.3680   43.2870  -20.9860 C.3       9 GLL5        0.0000 
     34 CA         -9.4980   46.8200  -20.0800 C.3       6 GLP5        0.0000 
     35 CA        -11.0683   42.9850  -21.4940 C.3       3 GLC5        0.0000 
     36 CA         -9.6850   43.3210  -19.6140 C.3       9 GLL5        0.0000 
     37 CA        -12.6100   42.6660  -22.6880 C.3       6 GLP5        0.0000 
     38 CA         -9.1805   44.8765  -15.1578 C.3       3 GLC5        0.0000 
     39 CA        -10.3520   43.7320  -15.5270 C.3       9 GLL5        0.0000 
     40 CA         -8.3730   46.4290  -15.2760 C.3       6 GLP5        0.0000 
     41 CA         -9.8830   45.5830  -14.8320 C.3       3 GLC5        0.0000 
     42 CA        -11.2960   44.6710  -15.0800 C.3       9 GLL5        0.0000 
     43 CA        -11.7927   45.1920  -11.3935 C.3       3 GLC5        0.0000 
     44 CA        -12.4340   45.9850   -9.5560 C.3       6 GLP5        0.0000 
     45 CA         -9.3613   44.9758  -14.1270 C.3       3 GLC5        0.0000 
     46 CA        -10.8130   43.9950  -12.7660 C.3       9 GLL5        0.0000 
     47 CA        -10.0478   42.8402  -11.2315 C.3       3 GLC5        0.0000 
     48 CA         -9.7460   42.1580   -9.4850 C.3       6 GLP5        0.0000 
     49 CA        -11.7007   42.7348  -12.0670 C.3       3 GLC5        0.0000 
     50 CA        -13.0520   41.9470  -11.1560 C.3       6 GLP5        0.0000 
@<TRIPOS>BOND
@<TRIPOS>SUBSTRUCTURE
     1 ALC1        6 GROUP        1 X    ALC  0     ROOT ALC X 1
     2 SEC2        1 GROUP        1 X    SEC  0     **** SEC X 2
     3 GLC5        9 GROUP        1 X    GLC  0     **** GLC X 6
     4 ALP1        8 GROUP        1 Y    ALP  0     ROOT ALP Y 8
     5 SEP2        3 GROUP        1 Y    SEP  0     **** SEP Y 9
     6 GLP5       11 GROUP        1 Y    GLP  0     **** GLP Y 13
     7 ALL1        7 GROUP        1 Z    ALL  0     ROOT ALL Z 15
     8 SEL2        2 GROUP        1 Z    SEL  0     **** SEL Z 16
     9 GLL5       10 GROUP        1 Z    GLL  0     **** GLL Z 20
@<TRIPOS>SET

