#    Name: 4bua_91F_2_ligand
#    Modification time : Tue Mar 25 08:22:35 2014

@<TRIPOS>MOLECULE
4bua_91F_2_ligand
   31    33     1     0     0
SMALL
NO_CHARGES


@<TRIPOS>ATOM
      1 O          -8.0850   41.1270  -14.2850 O.2       1 91F2163     0.0000 
      2 C14        -8.6780   41.8920  -15.0770 C.2       1 91F2163     0.0000 
      3 N1         -8.4690   41.8640  -16.4080 N.am      1 91F2163     0.0000 
      4 C7         -9.1600   42.6760  -17.2570 C.2       1 91F2163     0.0000 
      5 C4         -8.8730   42.6560  -18.7080 C.ar      1 91F2163     0.0000 
      6 C5         -7.7020   42.0350  -19.1510 C.ar      1 91F2163     0.0000 
      7 C6         -7.3850   42.0300  -20.5030 C.ar      1 91F2163     0.0000 
      8 C1         -8.2250   42.6500  -21.4170 C.ar      1 91F2163     0.0000 
      9 S          -7.8180   42.6310  -23.0970 S.3       1 91F2163     0.0000 
     10 C          -6.1360   43.0020  -23.1820 C.3       1 91F2163     0.0000 
     11 C2         -9.3680   43.2870  -20.9860 C.ar      1 91F2163     0.0000 
     12 C3         -9.6850   43.3210  -19.6140 C.ar      1 91F2163     0.0000 
     13 N         -10.0430   43.6140  -16.8480 N.2       1 91F2163     0.0000 
     14 C8        -10.3520   43.7320  -15.5270 C.ar      1 91F2163     0.0000 
     15 C13        -9.6240   42.9160  -14.5520 C.ar      1 91F2163     0.0000 
     16 C9        -11.2960   44.6710  -15.0800 C.ar      1 91F2163     0.0000 
     17 C10       -11.4900   44.8030  -13.6960 C.ar      1 91F2163     0.0000 
     18 C11       -10.8130   43.9950  -12.7660 C.ar      1 91F2163     0.0000 
     19 C12        -9.8860   43.0500  -13.1900 C.ar      1 91F2163     0.0000 
     20 H          -7.7570   41.2020  -16.8078 H         1 91F2163     0.0000 
     21 H          -7.0769   41.5823  -18.4718 H         1 91F2163     0.0000 
     22 H          -6.5251   41.5653  -20.8273 H         1 91F2163     0.0000 
     23 H         -10.0005   43.7431  -21.6570 H         1 91F2163     0.0000 
     24 H         -10.5107   43.8355  -19.2982 H         1 91F2163     0.0000 
     25 H         -11.8192   45.2340  -15.7348 H         1 91F2163     0.0000 
     26 H         -12.1550   45.5205  -13.3470 H         1 91F2163     0.0000 
     27 H         -11.0108   44.1097  -11.7611 H         1 91F2163     0.0000 
     28 H          -9.4008   42.4588  -12.5110 H         1 91F2163     0.0000 
     29 H          -5.5828   42.3343  -22.6839 H         1 91F2163     0.0000 
     30 H          -5.8050   43.0113  -24.1256 H         1 91F2163     0.0000 
     31 H          -5.9336   43.9001  -22.7915 H         1 91F2163     0.0000 
@<TRIPOS>BOND
     1    2    1 2    
     2    3    2 am   
     3   15    2 1    
     4    4    3 1    
     5   20    3 1    
     6    5    4 1    
     7   13    4 2    
     8    6    5 ar   
     9   12    5 ar   
    10    7    6 ar   
    11   21    6 1    
    12    8    7 ar   
    13   22    7 1    
    14    9    8 1    
    15   11    8 ar   
    16   10    9 1    
    17   29   10 1    
    18   30   10 1    
    19   31   10 1    
    20   12   11 ar   
    21   23   11 1    
    22   24   12 1    
    23   14   13 1    
    24   15   14 ar   
    25   16   14 ar   
    26   19   15 ar   
    27   17   16 ar   
    28   25   16 1    
    29   18   17 ar   
    30   26   17 1    
    31   19   18 ar   
    32   27   18 1    
    33   28   19 1    
@<TRIPOS>SUBSTRUCTURE
     1 91F2163     1 GROUP   
@<TRIPOS>SET

