#    Name: 4l31_F08_2_INTS_M
#    Modification time : Mon Apr  7 23:52:56 2014

@<TRIPOS>MOLECULE
4l31_F08_2_INTS_M
   49     0     6     0     0
SMALL
NO_CHARGES


@<TRIPOS>ATOM
      1 CA          8.8765  -45.7290  -23.0905 C.3       2 GLC5        0.0000 
      2 CA          8.7650  -44.2390  -24.7010 C.3       6 GLL5        0.0000 
      3 CA          8.9880  -47.2190  -21.4800 C.3       4 GLP5        0.0000 
      4 CA         10.7805  -43.9780  -24.3145 C.3       2 GLC5        0.0000 
      5 CA         12.7960  -43.7170  -23.9280 C.3       4 GLP5        0.0000 
      6 CA         11.0935  -43.0845  -21.8590 C.3       2 GLC5        0.0000 
      7 CA          9.2970  -43.6150  -20.7620 C.3       6 GLL5        0.0000 
      8 CA         12.8900  -42.5540  -22.9560 C.3       4 GLP5        0.0000 
      9 CA          7.7440  -39.6505  -21.4045 C.3       2 GLC5        0.0000 
     10 CA          7.8480  -41.7260  -20.6410 C.3       6 GLL5        0.0000 
     11 CA          7.6400  -37.5750  -22.1680 C.3       4 GLP5        0.0000 
     12 CA         10.5620  -41.4290  -17.3290 C.3       2 GLC5        0.0000 
     13 CA          9.2700  -42.4990  -17.1910 C.3       6 GLL5        0.0000 
     14 CA         11.8540  -40.3590  -17.4670 C.3       4 GLP5        0.0000 
     15 CA          8.2650  -43.6315  -12.3700 C.3       2 GLC5        0.0000 
     16 CA         10.0680  -42.8850  -13.1360 C.3       6 GLL5        0.0000 
     17 CA          6.4620  -44.3780  -11.6040 C.3       4 GLP5        0.0000 
     18 CA         10.1620  -40.6560  -12.9225 C.3       2 GLC5        0.0000 
     19 CA         10.2560  -38.4270  -12.7090 C.3       4 GLP5        0.0000 
     20 N           7.4920  -39.8125  -14.4650 N.am      1 SEC2        0.0000 
     21 N           8.3160  -41.0330  -14.0550 N.am      5 SEL2        0.0000 
     22 N           6.6680  -38.5920  -14.8750 N.am      3 SEP2        0.0000 
     23 N           8.3820  -40.3055  -12.8105 N.am      1 SEC2        0.0000 
     24 N           8.4480  -39.5780  -11.5660 N.am      3 SEP2        0.0000 
     25 CA          6.3565  -41.3475  -15.7940 C.3       2 GLC5        0.0000 
     26 CA          8.5230  -41.7370  -16.2510 C.3       6 GLL5        0.0000 
     27 CA          4.1900  -40.9580  -15.3370 C.3       4 GLP5        0.0000 
     28 CA          9.7095  -40.4815  -16.9750 C.3       2 GLC5        0.0000 
     29 CA         10.8960  -39.2260  -17.6990 C.3       4 GLP5        0.0000 
     30 CA          9.4384  -45.0853  -20.2006 C.3       2 GLC5        0.0000 
     31 CA          9.6640  -46.8240  -20.1620 C.3       4 GLP5        0.0000 
     32 CA          6.6612  -40.1835  -19.7580 C.3       2 GLC5        0.0000 
     33 CA          5.3450  -38.7050  -19.5600 C.3       4 GLP5        0.0000 
     34 CA          9.7175  -40.6418  -18.3165 C.3       2 GLC5        0.0000 
     35 CA          8.1070  -41.5980  -19.2710 C.3       6 GLL5        0.0000 
     36 CA          8.7088  -44.1105  -16.0175 C.3       2 GLC5        0.0000 
     37 CA          8.5210  -46.1030  -15.3140 C.3       4 GLP5        0.0000 
     38 CA          9.7560  -45.0508  -15.2662 C.3       2 GLC5        0.0000 
     39 CA         10.5230  -43.5270  -15.4340 C.3       6 GLL5        0.0000 
     40 CA          9.9343  -45.1632  -14.2473 C.3       2 GLC5        0.0000 
     41 CA         11.7060  -44.6160  -13.6370 C.3       6 GLL5        0.0000 
     42 CA         11.9462  -44.9552  -11.4902 C.3       2 GLC5        0.0000 
     43 CA         10.9890  -43.8310  -12.7240 C.3       6 GLL5        0.0000 
     44 CA         12.5450  -45.6870   -9.8000 C.3       4 GLP5        0.0000 
     45 CA         10.1943  -42.6580  -11.2790 C.3       2 GLC5        0.0000 
     46 CA          9.8600  -41.9580   -9.6280 C.3       4 GLP5        0.0000 
     47 CA          9.2338  -44.4470  -14.5658 C.3       2 GLC5        0.0000 
     48 CA         11.9799  -42.6391  -12.1471 C.3       2 GLC5        0.0000 
     49 CA         13.2520  -41.7240  -11.1360 C.3       4 GLP5        0.0000 
@<TRIPOS>BOND
@<TRIPOS>SUBSTRUCTURE
     1 SEC2       20 GROUP        1 X    SEC  0     ROOT SEC X 2
     2 GLC5        1 GROUP        1 X    GLC  0     **** GLC X 6
     3 SEP2       22 GROUP        1 Y    SEP  0     ROOT SEP Y 9
     4 GLP5        3 GROUP        1 Y    GLP  0     **** GLP Y 13
     5 SEL2       21 GROUP        1 Z    SEL  0     ROOT SEL Z 16
     6 GLL5        2 GROUP        1 Z    GLL  0     **** GLL Z 20
@<TRIPOS>SET

