#    Name: 4l31_F08_2_ligand
#    Modification time : Mon Apr  7 23:52:56 2014

@<TRIPOS>MOLECULE
4l31_F08_2_ligand
   33    35     1     0     0
SMALL
NO_CHARGES


@<TRIPOS>ATOM
      1 CAA         8.7650  -44.2390  -24.7010 C.3       1 F081202     0.0000 
      2 OAB         9.1770  -43.6010  -23.4830 O.3       1 F081202     0.0000 
      3 CAC         8.2090  -42.8950  -22.8230 C.2       1 F081202     0.0000 
      4 OAD         7.2190  -42.4000  -23.4010 O.2       1 F081202     0.0000 
      5 CAE         8.4320  -42.7490  -21.4270 C.ar      1 F081202     0.0000 
      6 CAJ         9.2970  -43.6150  -20.7620 C.ar      1 F081202     0.0000 
      7 CAI         9.5610  -43.5110  -19.3840 C.ar      1 F081202     0.0000 
      8 CAF         7.8480  -41.7260  -20.6410 C.ar      1 F081202     0.0000 
      9 CAG         8.1070  -41.5980  -19.2710 C.ar      1 F081202     0.0000 
     10 CAH         8.9710  -42.5170  -18.5970 C.ar      1 F081202     0.0000 
     11 CAK         9.2700  -42.4990  -17.1910 C.2       1 F081202     0.0000 
     12 OAU        10.2850  -43.4070  -16.7800 O.3       1 F081202     0.0000 
     13 CAT        10.5230  -43.5270  -15.4340 C.ar      1 F081202     0.0000 
     14 CAS        11.4590  -44.4700  -15.0030 C.ar      1 F081202     0.0000 
     15 CAR        11.7060  -44.6160  -13.6370 C.ar      1 F081202     0.0000 
     16 CAQ        10.9890  -43.8310  -12.7240 C.ar      1 F081202     0.0000 
     17 CAP        10.0680  -42.8850  -13.1360 C.ar      1 F081202     0.0000 
     18 CAO         9.8250  -42.6970  -14.4990 C.ar      1 F081202     0.0000 
     19 CAM         8.8640  -41.7670  -14.8900 C.2       1 F081202     0.0000 
     20 OAN         8.3160  -41.0330  -14.0550 O.2       1 F081202     0.0000 
     21 CAL         8.5230  -41.7370  -16.2510 C.2       1 F081202     0.0000 
     22 H           9.7704  -44.3721  -21.3016 H         1 F081202     0.0000 
     23 H          10.2091  -44.1894  -18.9448 H         1 F081202     0.0000 
     24 H           7.2074  -41.0518  -21.1022 H         1 F081202     0.0000 
     25 H           7.6768  -40.8379  -18.7310 H         1 F081202     0.0000 
     26 H          11.9585  -45.0479  -15.6824 H         1 F081202     0.0000 
     27 H          12.4000  -45.2858  -13.3045 H         1 F081202     0.0000 
     28 H          11.1605  -43.9701  -11.7059 H         1 F081202     0.0000 
     29 H           9.5599  -42.3181  -12.4456 H         1 F081202     0.0000 
     30 H           7.7379  -41.1691  -16.5754 H         1 F081202     0.0000 
     31 H           9.5181  -44.7344  -25.1339 H         1 F081202     0.0000 
     32 H           8.0311  -44.8999  -24.5442 H         1 F081202     0.0000 
     33 H           8.4260  -43.5779  -25.3703 H         1 F081202     0.0000 
@<TRIPOS>BOND
     1    2    1 1    
     2   31    1 1    
     3   32    1 1    
     4   33    1 1    
     5    3    2 1    
     6    4    3 2    
     7    5    3 1    
     8    6    5 ar   
     9    8    5 ar   
    10    7    6 ar   
    11   22    6 1    
    12   10    7 ar   
    13   23    7 1    
    14    9    8 ar   
    15   24    8 1    
    16   10    9 ar   
    17   25    9 1    
    18   11   10 1    
    19   12   11 1    
    20   21   11 2    
    21   13   12 1    
    22   14   13 ar   
    23   18   13 ar   
    24   15   14 ar   
    25   26   14 1    
    26   16   15 ar   
    27   27   15 1    
    28   17   16 ar   
    29   28   16 1    
    30   18   17 ar   
    31   29   17 1    
    32   19   18 1    
    33   20   19 2    
    34   21   19 1    
    35   30   21 1    
@<TRIPOS>SUBSTRUCTURE
     1 F081202     1 GROUP   
@<TRIPOS>SET

