#    Name: 3ene_NPZ_1_INTS_M
#    Modification time : Tue Mar 25 02:12:07 2014

@<TRIPOS>MOLECULE
3ene_NPZ_1_INTS_M
   51     0     9     0     0
SMALL
NO_CHARGES


@<TRIPOS>ATOM
      1 CA         48.5010    9.6885   30.6115 C.3       3 GLC5        0.0000 
      2 CA         47.1300   11.2400   30.4140 C.3       9 GLL5        0.0000 
      3 CA         49.8720    8.1370   30.8090 C.3       6 GLP5        0.0000 
      4 O          46.7400    8.8890   30.2110 O.2       1 ALC1        0.0000 
      5 O          46.2440   10.2420   30.3560 O.2       7 ALL1        0.0000 
      6 O          47.2360    7.5360   30.0660 O.2       4 ALP1        0.0000 
      7 N          49.2170   10.0225   29.2475 N.am      2 SEC2        0.0000 
      8 N          48.3650   11.0160   29.9180 N.am      8 SEL2        0.0000 
      9 N          50.0690    9.0290   28.5770 N.am      5 SEP2        0.0000 
     10 CA         50.6235   10.7065   30.7260 C.3       3 GLC5        0.0000 
     11 CA         49.3050   11.9760   29.9680 C.3       9 GLL5        0.0000 
     12 CA         51.9420    9.4370   31.4840 C.3       6 GLP5        0.0000 
     13 CA         49.9850   10.5920   28.6155 C.3       3 GLC5        0.0000 
     14 CA         50.6650    9.2080   27.2630 C.3       6 GLP5        0.0000 
     15 CA         48.5975   13.8560   29.1520 C.3       3 GLC5        0.0000 
     16 CA         47.8900   15.7360   28.3360 C.3       6 GLP5        0.0000 
     17 CA         47.8550   14.5985   29.6670 C.3       3 GLC5        0.0000 
     18 CA         47.8200   13.4610   30.9980 C.3       9 GLL5        0.0000 
     19 CA         47.8535   15.8220   30.1135 C.3       3 GLC5        0.0000 
     20 CA         47.8170   15.9080   31.8910 C.3       9 GLL5        0.0000 
     21 CA         39.2265   12.4015   32.2415 C.3       3 GLC5        0.0000 
     22 CA         40.1170   11.0120   33.5400 C.3       9 GLL5        0.0000 
     23 CA         38.3360   13.7910   30.9430 C.3       6 GLP5        0.0000 
     24 CA         46.7155   13.3722   29.2948 C.3       3 GLC5        0.0000 
     25 CA         46.8260   12.4910   30.9730 C.3       9 GLL5        0.0000 
     26 CA         46.4530   14.8790   27.8960 C.3       6 GLP5        0.0000 
     27 CA         47.0825   11.7661   32.5254 C.3       3 GLC5        0.0000 
     28 CA         46.7660   10.8690   34.2050 C.3       6 GLP5        0.0000 
     29 CA         45.3450   11.6755   33.2430 C.3       3 GLC5        0.0000 
     30 CA         44.3740   12.4690   31.7400 C.3       9 GLL5        0.0000 
     31 CA         43.6885    9.5667   30.9975 C.3       3 GLC5        0.0000 
     32 CA         44.0380   11.7740   30.5890 C.3       9 GLL5        0.0000 
     33 CA         43.9300    7.7100   31.4620 C.3       6 GLP5        0.0000 
     34 CA         43.3560   13.5685   30.5045 C.3       3 GLC5        0.0000 
     35 CA         42.7310   15.0090   29.5740 C.3       6 GLP5        0.0000 
     36 CA         42.0670   12.2007   29.4240 C.3       3 GLC5        0.0000 
     37 CA         42.8560   11.0730   30.4770 C.3       9 GLL5        0.0000 
     38 CA         41.7260   13.3280   27.8540 C.3       6 GLP5        0.0000 
     39 CA         42.0850    9.8908   33.1382 C.3       3 GLC5        0.0000 
     40 CA         41.9600   11.0740   31.5110 C.3       9 GLL5        0.0000 
     41 CA         42.0610    8.3580   34.1760 C.3       6 GLP5        0.0000 
     42 CA         41.1910    9.3502   33.0072 C.3       3 GLC5        0.0000 
     43 CA         40.7880   10.3530   31.3230 C.3       9 GLL5        0.0000 
     44 CA         39.1600   11.4967   30.9147 C.3       3 GLC5        0.0000 
     45 CA         39.8540   10.3320   32.3540 C.3       9 GLL5        0.0000 
     46 CA         37.9990   12.6510   29.9910 C.3       6 GLP5        0.0000 
     47 CA         39.0288    8.9940   33.4275 C.3       3 GLC5        0.0000 
     48 CA         38.0720    7.3160   33.9080 C.3       6 GLP5        0.0000 
     49 CA         39.8845   11.8778   35.0427 C.3       3 GLC5        0.0000 
     50 CA         39.0570   12.3810   36.4660 C.3       6 GLP5        0.0000 
     51 CA         41.3865    9.8663   33.8978 C.3       3 GLC5        0.0000 
@<TRIPOS>BOND
@<TRIPOS>SUBSTRUCTURE
     1 ALC1        4 GROUP        1 X    ALC  0     ROOT ALC X 1
     2 SEC2        7 GROUP        1 X    SEC  0     **** SEC X 2
     3 GLC5        1 GROUP        1 X    GLC  0     **** GLC X 6
     4 ALP1        6 GROUP        1 Y    ALP  0     ROOT ALP Y 8
     5 SEP2        9 GROUP        1 Y    SEP  0     **** SEP Y 9
     6 GLP5        3 GROUP        1 Y    GLP  0     **** GLP Y 13
     7 ALL1        5 GROUP        1 Z    ALL  0     ROOT ALL Z 15
     8 SEL2        8 GROUP        1 Z    SEL  0     **** SEL Z 16
     9 GLL5        2 GROUP        1 Z    GLL  0     **** GLL Z 20
@<TRIPOS>SET

