#    Name: 3ene_NPZ_1_ligand
#    Modification time : Tue Mar 25 02:12:07 2014

@<TRIPOS>MOLECULE
3ene_NPZ_1_ligand
   34    37     1     0     0
SMALL
NO_CHARGES


@<TRIPOS>ATOM
      1 C6         47.1300   11.2400   30.4140 C.ar      1 NPZ1        0.0000 
      2 NAF        46.2440   10.2420   30.3560 N.pl3     1 NPZ1        0.0000 
      3 C5         46.8260   12.4910   30.9730 C.ar      1 NPZ1        0.0000 
      4 N1         48.3650   11.0160   29.9180 N.ar      1 NPZ1        0.0000 
      5 C2         49.3050   11.9760   29.9680 C.ar      1 NPZ1        0.0000 
      6 N3         49.0430   13.1920   30.4670 N.ar      1 NPZ1        0.0000 
      7 C4         47.8200   13.4610   30.9980 C.ar      1 NPZ1        0.0000 
      8 NAT        47.2890   14.5400   31.5910 N.pl3     1 NPZ1        0.0000 
      9 CAU        47.8170   15.9080   31.8910 C.3       1 NPZ1        0.0000 
     10 NAP        45.9410   14.3720   31.9340 N.2       1 NPZ1        0.0000 
     11 CAO        45.6140   13.0980   31.6190 C.2       1 NPZ1        0.0000 
     12 CAG        44.3740   12.4690   31.7400 C.ar      1 NPZ1        0.0000 
     13 CAH        43.4740   12.4950   32.8220 C.ar      1 NPZ1        0.0000 
     14 CAA        44.0380   11.7740   30.5890 C.ar      1 NPZ1        0.0000 
     15 CAB        42.8560   11.0730   30.4770 C.ar      1 NPZ1        0.0000 
     16 CAC        41.9600   11.0740   31.5110 C.ar      1 NPZ1        0.0000 
     17 CAI        42.2580   11.7730   32.6900 C.ar      1 NPZ1        0.0000 
     18 CAD        40.7880   10.3530   31.3230 C.ar      1 NPZ1        0.0000 
     19 CAE        39.8540   10.3320   32.3540 C.ar      1 NPZ1        0.0000 
     20 CAK        40.1170   11.0120   33.5400 C.ar      1 NPZ1        0.0000 
     21 CAJ        41.3070   11.7370   33.6990 C.ar      1 NPZ1        0.0000 
     22 H          45.3507   10.4222   30.7677 H         1 NPZ1        0.0000 
     23 H          46.5536    9.4043   29.9061 H         1 NPZ1        0.0000 
     24 H          50.2734   11.7648   29.6046 H         1 NPZ1        0.0000 
     25 H          43.6796   13.0058   33.6627 H         1 NPZ1        0.0000 
     26 H          44.7031   11.7834   29.7828 H         1 NPZ1        0.0000 
     27 H          42.6512   10.5483   29.6101 H         1 NPZ1        0.0000 
     28 H          40.6159    9.8530   30.4548 H         1 NPZ1        0.0000 
     29 H          38.9734    9.8167   32.2409 H         1 NPZ1        0.0000 
     30 H          39.4338   10.9852   34.3109 H         1 NPZ1        0.0000 
     31 H          41.4709   12.2484   34.5813 H         1 NPZ1        0.0000 
     32 H          48.6231   15.8737   32.4817 H         1 NPZ1        0.0000 
     33 H          48.0840   16.3938   31.0587 H         1 NPZ1        0.0000 
     34 H          47.1369   16.4749   32.3559 H         1 NPZ1        0.0000 
@<TRIPOS>BOND
     1    2    1 1    
     2    3    1 ar   
     3    4    1 ar   
     4   22    2 1    
     5   23    2 1    
     6    7    3 ar   
     7   11    3 1    
     8    5    4 ar   
     9    6    5 ar   
    10   24    5 1    
    11    7    6 ar   
    12    8    7 1    
    13    9    8 1    
    14   10    8 1    
    15   32    9 1    
    16   33    9 1    
    17   34    9 1    
    18   11   10 2    
    19   12   11 1    
    20   13   12 ar   
    21   14   12 ar   
    22   17   13 ar   
    23   25   13 1    
    24   15   14 ar   
    25   26   14 1    
    26   16   15 ar   
    27   27   15 1    
    28   17   16 ar   
    29   18   16 ar   
    30   21   17 ar   
    31   19   18 ar   
    32   28   18 1    
    33   20   19 ar   
    34   29   19 1    
    35   21   20 ar   
    36   30   20 1    
    37   31   21 1    
@<TRIPOS>SUBSTRUCTURE
     1 NPZ1        1 GROUP   
@<TRIPOS>SET

