#    Name: 3kc1_2T6_3_INTS_M
#    Modification time : Mon Mar 24 19:11:16 2014

@<TRIPOS>MOLECULE
3kc1_2T6_3_INTS_M
   51     0    12     0     0
SMALL
NO_CHARGES


@<TRIPOS>ATOM
      1 CA          7.9115   54.7010   31.2395 C.3       4 GLC5        0.0000 
      2 CA          6.3650   55.9400   31.6310 C.3      12 GLL5        0.0000 
      3 CA          9.4580   53.4620   30.8480 C.3       8 GLP5        0.0000 
      4 CA          6.8290   57.1140   29.9250 C.3       4 GLC5        0.0000 
      5 CA          7.2930   58.2880   28.2190 C.3       8 GLP5        0.0000 
      6 CA          7.4375   54.9010   33.0840 C.3       4 GLC5        0.0000 
      7 CA          8.5100   53.8620   34.5370 C.3       8 GLP5        0.0000 
      8 CA          5.2870   55.1700   32.8935 C.3       4 GLC5        0.0000 
      9 CA          4.2090   54.4000   34.1560 C.3       8 GLP5        0.0000 
     10 CA          6.2380   62.2335   30.8965 C.3       4 GLC5        0.0000 
     11 CA          7.6770   62.5360   32.5420 C.3      12 GLL5        0.0000 
     12 CA          4.7990   61.9310   29.2510 C.3       8 GLP5        0.0000 
     13 N          11.1405   62.4805   30.4785 N.am      2 SEC2        0.0000 
     14 N           9.9780   62.3480   31.1010 N.am     10 SEL2        0.0000 
     15 N          12.3030   62.6130   29.8560 N.am      6 SEP2        0.0000 
     16 O          -0.1575   60.4655   34.4515 O.2       1 ALC1        0.0000 
     17 O           1.1510   60.7420   33.3770 O.2       9 ALL1        0.0000 
     18 O          -1.4660   60.1890   35.5260 O.2       5 ALP1        0.0000 
     19 NZ          9.6890   65.1550   33.6285 N.4       3 LYC4        0.0000 
     20 NZ          9.6940   64.3670   32.4550 N.4      11 LYL4        0.0000 
     21 NZ          9.6840   65.9430   34.8020 N.4       7 LYP4        0.0000 
     22 N          10.3955   64.7200   31.1885 N.am      2 SEC2        0.0000 
     23 N           9.6940   64.3670   32.4550 N.am     10 SEL2        0.0000 
     24 N          11.0970   65.0730   29.9220 N.am      6 SEP2        0.0000 
     25 N           9.6890   65.1550   33.6285 N.am      2 SEC2        0.0000 
     26 N           9.6840   65.9430   34.8020 N.am      6 SEP2        0.0000 
     27 NZ          9.9340   64.0850   34.1720 N.4       3 LYC4        0.0000 
     28 NZ         10.1840   62.2270   33.5420 N.4      11 LYL4        0.0000 
     29 N          10.9575   61.0030   33.7505 N.am      2 SEC2        0.0000 
     30 N          10.1840   62.2270   33.5420 N.am     10 SEL2        0.0000 
     31 N          11.7310   59.7790   33.9590 N.am      6 SEP2        0.0000 
     32 N           9.4975   62.1435   34.6260 N.am      2 SEC2        0.0000 
     33 N           8.8110   62.0600   35.7100 N.am      6 SEP2        0.0000 
     34 CA          4.9038   60.6645   30.8640 C.3       4 GLC5        0.0000 
     35 CA          5.6540   59.5890   32.3210 C.3      12 GLL5        0.0000 
     36 CA          5.1973   61.6585   30.9150 C.3       4 GLC5        0.0000 
     37 CA          6.0650   60.9000   32.3810 C.3      12 GLL5        0.0000 
     38 CA          6.3809   59.2975   33.9260 C.3       4 GLC5        0.0000 
     39 CA          7.2250   58.4460   35.4230 C.3       8 GLP5        0.0000 
     40 CA          4.2050   61.3760   31.1573 C.3       4 GLC5        0.0000 
     41 CA          3.4180   60.1470   33.0270 C.3      12 GLL5        0.0000 
     42 CA          3.8885   60.4560   35.1602 C.3       4 GLC5        0.0000 
     43 CA          3.8040   61.4950   33.1000 C.3      12 GLL5        0.0000 
     44 CA          4.1660   60.0910   37.2570 C.3       8 GLP5        0.0000 
     45 CA          4.5407   55.9588   33.2082 C.3       4 GLC5        0.0000 
     46 CA          5.5810   57.3630   32.0410 C.3      12 GLL5        0.0000 
     47 CA          5.0710   55.9267   30.2750 C.3       4 GLC5        0.0000 
     48 CA          4.1690   55.2020   28.7140 C.3       8 GLP5        0.0000 
     49 CA          6.6418   58.0862   30.1075 C.3       4 GLC5        0.0000 
     50 CA          6.4306   58.2039   33.7644 C.3       4 GLC5        0.0000 
     51 CA          6.4000   58.4060   31.9510 C.3      12 GLL5        0.0000 
@<TRIPOS>BOND
@<TRIPOS>SUBSTRUCTURE
     1 ALC1       16 GROUP        1 X    ALC  0     ROOT ALC X 1
     2 SEC2       13 GROUP        1 X    SEC  0     **** SEC X 2
     3 LYC4       19 GROUP        1 X    LYC  0     **** LYC X 4
     4 GLC5        1 GROUP        1 X    GLC  0     **** GLC X 6
     5 ALP1       18 GROUP        1 Y    ALP  0     ROOT ALP Y 8
     6 SEP2       15 GROUP        1 Y    SEP  0     **** SEP Y 9
     7 LYP4       21 GROUP        1 Y    LYP  0     **** LYP Y 11
     8 GLP5        3 GROUP        1 Y    GLP  0     **** GLP Y 13
     9 ALL1       17 GROUP        1 Z    ALL  0     ROOT ALL Z 15
    10 SEL2       14 GROUP        1 Z    SEL  0     **** SEL Z 16
    11 LYL4       20 GROUP        1 Z    LYL  0     **** LYL Z 18
    12 GLL5        2 GROUP        1 Z    GLL  0     **** GLL Z 20
@<TRIPOS>SET

