#    Name: 3kc1_2T6_3_ligand
#    Modification time : Mon Mar 24 19:11:16 2014

@<TRIPOS>MOLECULE
3kc1_2T6_3_ligand
   30    32     1     0     0
SMALL
NO_CHARGES


@<TRIPOS>ATOM
      1 C1          4.3630   59.2070   32.6330 C.ar      1 2T6401      0.0000 
      2 C2          5.6540   59.5890   32.3210 C.ar      1 2T6401      0.0000 
      3 C3          6.0650   60.9000   32.3810 C.ar      1 2T6401      0.0000 
      4 C4          5.1260   61.8720   32.7770 C.ar      1 2T6401      0.0000 
      5 C5          3.8040   61.4950   33.1000 C.ar      1 2T6401      0.0000 
      6 C6          3.4180   60.1470   33.0270 C.ar      1 2T6401      0.0000 
      7 C7          4.1640   57.6720   32.4800 C.3       1 2T6401      0.0000 
      8 C8          5.5810   57.3630   32.0410 C.2       1 2T6401      0.0000 
      9 C9          6.4000   58.4060   31.9510 C.2       1 2T6401      0.0000 
     10 S10         6.3650   55.9400   31.6310 S.3       1 2T6401      0.0000 
     11 C11         7.8260   56.7870   31.3350 C.2       1 2T6401      0.0000 
     12 N12         7.6990   58.1540   31.5530 N.2       1 2T6401      0.0000 
     13 O13         7.3760   61.2420   32.0550 O.3       1 2T6401      0.0000 
     14 C14         7.6770   62.5360   32.5420 C.3       1 2T6401      0.0000 
     15 O15         9.9780   62.3480   31.1010 O.co2     1 2T6401      0.0000 
     16 C16         2.0460   59.7380   33.3590 C.2       1 2T6401      0.0000 
     17 N17         1.1510   60.7420   33.3770 N.am      1 2T6401      0.0000 
     18 O18         1.7180   58.5850   33.6050 O.2       1 2T6401      0.0000 
     19 P19         9.4630   62.8860   32.4050 P.3       1 2T6401      0.0000 
     20 O20         9.6940   64.3670   32.4550 O.co2     1 2T6401      0.0000 
     21 O21        10.1840   62.2270   33.5420 O.co2     1 2T6401      0.0000 
     22 H           5.4013   62.8565   32.8315 H         1 2T6401      0.0000 
     23 H           3.1288   62.2082   33.3874 H         1 2T6401      0.0000 
     24 H           3.4960   57.4921   31.7147 H         1 2T6401      0.0000 
     25 H           3.9699   57.2621   33.4066 H         1 2T6401      0.0000 
     26 H           8.5302   56.2464   31.0657 H         1 2T6401      0.0000 
     27 H           7.5275   62.6994   33.6018 H         1 2T6401      0.0000 
     28 H           7.2720   63.3688   31.9811 H         1 2T6401      0.0000 
     29 H           0.2154   60.4930   33.6273 H         1 2T6401      0.0000 
     30 H           1.5011   61.6478   33.1385 H         1 2T6401      0.0000 
@<TRIPOS>BOND
     1    2    1 ar   
     2    6    1 ar   
     3    7    1 1    
     4    3    2 ar   
     5    9    2 1    
     6    4    3 ar   
     7   13    3 1    
     8    5    4 ar   
     9   22    4 1    
    10    6    5 ar   
    11   23    5 1    
    12   16    6 1    
    13    8    7 1    
    14   24    7 1    
    15   25    7 1    
    16    9    8 2    
    17   10    8 1    
    18   12    9 1    
    19   11   10 1    
    20   12   11 2    
    21   26   11 1    
    22   14   13 1    
    23   19   14 1    
    24   27   14 1    
    25   28   14 1    
    26   19   15 ar   
    27   17   16 am   
    28   18   16 2    
    29   29   17 1    
    30   30   17 1    
    31   20   19 ar   
    32   21   19 ar   
@<TRIPOS>SUBSTRUCTURE
     1 2T6401      1 GROUP   
@<TRIPOS>SET

