#    Name: 4nh8_2LC_1_INTS_M
#    Modification time : Tue Mar 25 13:09:14 2014

@<TRIPOS>MOLECULE
4nh8_2LC_1_INTS_M
   78     0     6     0     0
SMALL
NO_CHARGES


@<TRIPOS>ATOM
      1 CA          9.4625   -9.5355  -23.1120 C.3       2 GLC5        0.0000 
      2 CA          7.4470   -9.6830  -23.1330 C.3       6 GLL5        0.0000 
      3 CA         11.4780   -9.3880  -23.0910 C.3       4 GLP5        0.0000 
      4 CA          5.3900   -9.1200  -25.2190 C.3       2 GLC5        0.0000 
      5 CA          5.0080  -10.3310  -23.4230 C.3       6 GLL5        0.0000 
      6 CA          5.7720   -7.9090  -27.0150 C.3       4 GLP5        0.0000 
      7 CA          5.0530  -11.2620  -26.0720 C.3       2 GLC5        0.0000 
      8 CA          5.1330  -12.4000  -24.2770 C.3       6 GLL5        0.0000 
      9 CA          4.9730  -10.1240  -27.8670 C.3       4 GLP5        0.0000 
     10 N           9.4050  -13.4775  -23.6635 N.am      1 SEC2        0.0000 
     11 N           8.7060  -12.4950  -24.2430 N.am      5 SEL2        0.0000 
     12 N          10.1040  -14.4600  -23.0840 N.am      3 SEP2        0.0000 
     13 CA          8.5035  -14.3090  -23.2900 C.3       2 GLC5        0.0000 
     14 CA          7.2050  -14.2510  -24.8360 C.3       6 GLL5        0.0000 
     15 CA          9.8020  -14.3670  -21.7440 C.3       4 GLP5        0.0000 
     16 CA          7.6455  -16.4030  -24.7405 C.3       2 GLC5        0.0000 
     17 CA          8.0860  -18.5550  -24.6450 C.3       4 GLP5        0.0000 
     18 CA          4.1975  -12.9880  -27.5025 C.3       2 GLC5        0.0000 
     19 CA          6.1340  -13.6410  -27.0270 C.3       6 GLL5        0.0000 
     20 CA          2.2610  -12.3350  -27.9780 C.3       4 GLP5        0.0000 
     21 CA          6.4120  -14.0455  -28.9345 C.3       2 GLC5        0.0000 
     22 CA          6.6900  -14.4500  -30.8420 C.3       4 GLP5        0.0000 
     23 CA          5.5535  -11.8825  -27.4470 C.3       2 GLC5        0.0000 
     24 CA          4.8140  -15.8340  -27.8000 C.3       2 GLC5        0.0000 
     25 CA          5.5980  -15.8210  -25.9640 C.3       6 GLL5        0.0000 
     26 CA          4.0300  -15.8470  -29.6360 C.3       4 GLP5        0.0000 
     27 CA          5.1170  -16.2690  -23.9420 C.3       2 GLC5        0.0000 
     28 CA          4.6360  -16.7170  -21.9200 C.3       4 GLP5        0.0000 
     29 CA          3.9195  -16.9850  -25.2220 C.3       2 GLC5        0.0000 
     30 CA          2.2410  -18.1490  -24.4800 C.3       4 GLP5        0.0000 
     31 CA          6.5765  -17.2300  -25.9560 C.3       2 GLC5        0.0000 
     32 CA          7.5550  -18.6390  -25.9480 C.3       4 GLP5        0.0000 
     33 CA          3.5190  -13.0235  -26.4445 C.3       2 GLC5        0.0000 
     34 CA          4.7770  -13.7120  -24.9110 C.3       6 GLL5        0.0000 
     35 CA          4.7240  -13.8940  -22.9300 C.3       2 GLC5        0.0000 
     36 CA          4.6710  -14.0760  -20.9490 C.3       4 GLP5        0.0000 
     37 CA          3.6090  -10.1620  -26.2230 C.3       2 GLC5        0.0000 
     38 CA          2.2450  -10.2000  -24.5790 C.3       6 GLL5        0.0000 
     39 CA          1.5295   -9.6940  -28.2505 C.3       2 GLC5        0.0000 
     40 CA          1.4950   -7.8480  -27.0460 C.3       6 GLL5        0.0000 
     41 CA          1.5640  -11.5400  -29.4550 C.3       4 GLP5        0.0000 
     42 CA          3.2340   -8.9860  -27.4565 C.3       2 GLC5        0.0000 
     43 CA         -1.7635   -7.7825  -27.0935 C.3       2 GLC5        0.0000 
     44 CA          0.2750   -7.5190  -27.8950 C.3       6 GLL5        0.0000 
     45 CA         -3.8020   -8.0460  -26.2920 C.3       4 GLP5        0.0000 
     46 CA          0.1330   -5.4960  -27.7255 C.3       2 GLC5        0.0000 
     47 CA         -0.0090   -3.4730  -27.5560 C.3       4 GLP5        0.0000 
     48 CA         -1.2020   -7.2425  -29.0160 C.3       2 GLC5        0.0000 
     49 CA         -2.6790   -6.9660  -30.1370 C.3       4 GLP5        0.0000 
     50 CA         -0.9300   -5.4935  -24.3330 C.3       2 GLC5        0.0000 
     51 CA         -0.0390   -6.6070  -25.7430 C.3       6 GLL5        0.0000 
     52 CA         -1.8210   -4.3800  -22.9230 C.3       4 GLP5        0.0000 
     53 CA         -1.9930   -6.5770  -26.0200 C.3       2 GLC5        0.0000 
     54 CA         -3.9470   -6.5470  -26.2970 C.3       4 GLP5        0.0000 
     55 CA         -0.0240   -5.0400  -26.6495 C.3       2 GLC5        0.0000 
     56 CA         -0.5540  -14.9320  -23.1560 C.3       2 GLC5        0.0000 
     57 CA         -0.0210  -13.5650  -23.8740 C.3       6 GLL5        0.0000 
     58 CA         -1.0870  -16.2990  -22.4380 C.3       4 GLP5        0.0000 
     59 CA          7.0429  -10.4374  -25.5505 C.3       2 GLC5        0.0000 
     60 CA          6.4200  -11.9530  -24.0430 C.3       6 GLL5        0.0000 
     61 CA          7.4320   -9.8220  -27.4190 C.3       4 GLP5        0.0000 
     62 CA          6.2073  -15.1925  -23.4832 C.3       2 GLC5        0.0000 
     63 CA          5.8470  -16.0810  -21.7040 C.3       4 GLP5        0.0000 
     64 CA          3.5690  -12.2975  -22.1683 C.3       2 GLC5        0.0000 
     65 CA          2.8290  -11.3650  -24.0850 C.3       6 GLL5        0.0000 
     66 CA          4.6930  -12.6630  -20.3940 C.3       4 GLP5        0.0000 
     67 CA          0.6062   -9.8418  -22.9002 C.3       2 GLC5        0.0000 
     68 CA         -0.3420   -9.5100  -21.1120 C.3       4 GLP5        0.0000 
     69 CA          1.9808  -11.3999  -26.2715 C.3       2 GLC5        0.0000 
     70 CA          0.8640  -10.1470  -24.7980 C.3       6 GLL5        0.0000 
     71 CA          0.0255  -10.6928  -22.7035 C.3       2 GLC5        0.0000 
     72 CA          0.0690  -11.3080  -24.5330 C.3       6 GLL5        0.0000 
     73 CA         -0.8525  -14.0605  -25.0787 C.3       2 GLC5        0.0000 
     74 CA          0.7170  -12.4430  -24.0570 C.3       6 GLL5        0.0000 
     75 CA         -2.0530  -15.1170  -26.1920 C.3       4 GLP5        0.0000 
     76 CA          1.0473  -13.0548  -25.7656 C.3       2 GLC5        0.0000 
     77 CA          0.9710  -13.5000  -27.5890 C.3       4 GLP5        0.0000 
     78 CA          5.2076  -11.9947  -22.1035 C.3       2 GLC5        0.0000 
@<TRIPOS>BOND
@<TRIPOS>SUBSTRUCTURE
     1 SEC2       10 GROUP        1 X    SEC  0     ROOT SEC X 2
     2 GLC5        1 GROUP        1 X    GLC  0     **** GLC X 6
     3 SEP2       12 GROUP        1 Y    SEP  0     ROOT SEP Y 9
     4 GLP5        3 GROUP        1 Y    GLP  0     **** GLP Y 13
     5 SEL2       11 GROUP        1 Z    SEL  0     ROOT SEL Z 16
     6 GLL5        2 GROUP        1 Z    GLL  0     **** GLL Z 20
@<TRIPOS>SET

