#    Name: 4nh8_2LC_1_ligand
#    Modification time : Tue Mar 25 13:09:14 2014

@<TRIPOS>MOLECULE
4nh8_2LC_1_ligand
   55    58     1     0     0
SMALL
NO_CHARGES


@<TRIPOS>ATOM
      1 C1          7.4470   -9.6830  -23.1330 C.3       1 2LC301      0.0000 
      2 C2          6.3280  -10.6220  -23.5090 C.2       1 2LC301      0.0000 
      3 C3          5.0080  -10.3310  -23.4230 C.2       1 2LC301      0.0000 
      4 N4          4.2540  -11.4000  -23.8810 N.pl3     1 2LC301      0.0000 
      5 C5          5.1330  -12.4000  -24.2770 C.2       1 2LC301      0.0000 
      6 C6          6.4200  -11.9530  -24.0430 C.2       1 2LC301      0.0000 
      7 C7          7.5400  -12.8590  -24.3470 C.2       1 2LC301      0.0000 
      8 O8          8.7060  -12.4950  -24.2430 O.2       1 2LC301      0.0000 
      9 C9          7.2050  -14.2510  -24.8360 C.3       1 2LC301      0.0000 
     10 C10         5.9300  -14.3570  -25.6890 C.3       1 2LC301      0.0000 
     11 C11         6.1340  -13.6410  -27.0270 C.3       1 2LC301      0.0000 
     12 C12         5.5980  -15.8210  -25.9640 C.3       1 2LC301      0.0000 
     13 C13         4.7770  -13.7120  -24.9110 C.3       1 2LC301      0.0000 
     14 C14         2.8290  -11.3650  -24.0850 C.ar      1 2LC301      0.0000 
     15 C15         2.2450  -10.2000  -24.5790 C.ar      1 2LC301      0.0000 
     16 C16         0.8640  -10.1470  -24.7980 C.ar      1 2LC301      0.0000 
     17 N17         0.2810   -8.9720  -25.2250 N.pl3     1 2LC301      0.0000 
     18 C18         0.9560   -7.7370  -25.6140 C.3       1 2LC301      0.0000 
     19 C20         1.4950   -7.8480  -27.0460 C.3       1 2LC301      0.0000 
     20 C21         0.2750   -7.5190  -27.8950 C.3       1 2LC301      0.0000 
     21 O22        -0.6060   -6.7610  -27.0440 O.3       1 2LC301      0.0000 
     22 C23        -0.0390   -6.6070  -25.7430 C.3       1 2LC301      0.0000 
     23 C24         0.0690  -11.3080  -24.5330 C.ar      1 2LC301      0.0000 
     24 C25        -1.4170  -11.3160  -24.8180 C.2       1 2LC301      0.0000 
     25 N26        -1.7940  -10.6550  -25.8860 N.am      1 2LC301      0.0000 
     26 O27        -2.2230  -11.9490  -24.1040 O.2       1 2LC301      0.0000 
     27 C28         0.7170  -12.4430  -24.0570 C.ar      1 2LC301      0.0000 
     28 F29        -0.0210  -13.5650  -23.8740 F         1 2LC301      0.0000 
     29 C30         2.0610  -12.4990  -23.8000 C.ar      1 2LC301      0.0000 
     30 H           4.6290   -9.5031  -23.0927 H         1 2LC301      0.0000 
     31 H           7.0984  -14.9288  -23.9652 H         1 2LC301      0.0000 
     32 H           8.0546  -14.6444  -25.4297 H         1 2LC301      0.0000 
     33 H           3.9266  -13.5725  -25.6015 H         1 2LC301      0.0000 
     34 H           4.4419  -14.4215  -24.1340 H         1 2LC301      0.0000 
     35 H           2.8263   -9.3788  -24.7832 H         1 2LC301      0.0000 
     36 H          -0.7894   -8.9308  -25.2888 H         1 2LC301      0.0000 
     37 H           1.7311   -7.4545  -24.9797 H         1 2LC301      0.0000 
     38 H           1.8093   -8.8399  -27.2309 H         1 2LC301      0.0000 
     39 H           2.2494   -7.1237  -27.1983 H         1 2LC301      0.0000 
     40 H          -0.1773   -8.4453  -28.2162 H         1 2LC301      0.0000 
     41 H           0.5988   -6.9443  -28.7498 H         1 2LC301      0.0000 
     42 H           0.4881   -5.6713  -25.6398 H         1 2LC301      0.0000 
     43 H          -0.7789   -6.7099  -24.9646 H         1 2LC301      0.0000 
     44 H          -1.0626  -10.2437  -26.4299 H         1 2LC301      0.0000 
     45 H          -2.7784  -10.6227  -26.0588 H         1 2LC301      0.0000 
     46 H           2.4992  -13.3305  -23.4150 H         1 2LC301      0.0000 
     47 H           8.3450  -10.0983  -23.2785 H         1 2LC301      0.0000 
     48 H           7.4225   -8.8412  -23.6723 H         1 2LC301      0.0000 
     49 H           7.4001   -9.4159  -22.1705 H         1 2LC301      0.0000 
     50 H           6.3392  -12.6704  -26.9013 H         1 2LC301      0.0000 
     51 H           6.8911  -14.0356  -27.5477 H         1 2LC301      0.0000 
     52 H           5.3202  -13.6961  -27.6055 H         1 2LC301      0.0000 
     53 H           6.3368  -16.2837  -26.4540 H         1 2LC301      0.0000 
     54 H           5.4423  -16.3317  -25.1184 H         1 2LC301      0.0000 
     55 H           4.7725  -15.9165  -26.5203 H         1 2LC301      0.0000 
@<TRIPOS>BOND
     1    2    1 1    
     2   47    1 1    
     3   48    1 1    
     4   49    1 1    
     5    3    2 2    
     6    6    2 1    
     7    4    3 1    
     8   30    3 1    
     9    5    4 1    
    10   14    4 1    
    11    6    5 2    
    12   13    5 1    
    13    7    6 1    
    14    8    7 2    
    15    9    7 1    
    16   10    9 1    
    17   31    9 1    
    18   32    9 1    
    19   11   10 1    
    20   12   10 1    
    21   13   10 1    
    22   50   11 1    
    23   51   11 1    
    24   52   11 1    
    25   53   12 1    
    26   54   12 1    
    27   55   12 1    
    28   33   13 1    
    29   34   13 1    
    30   15   14 ar   
    31   29   14 ar   
    32   16   15 ar   
    33   35   15 1    
    34   17   16 1    
    35   23   16 ar   
    36   18   17 1    
    37   36   17 1    
    38   19   18 1    
    39   22   18 1    
    40   37   18 1    
    41   20   19 1    
    42   38   19 1    
    43   39   19 1    
    44   21   20 1    
    45   40   20 1    
    46   41   20 1    
    47   22   21 1    
    48   42   22 1    
    49   43   22 1    
    50   24   23 1    
    51   27   23 ar   
    52   25   24 am   
    53   26   24 2    
    54   44   25 1    
    55   45   25 1    
    56   28   27 1    
    57   29   27 ar   
    58   46   29 1    
@<TRIPOS>SUBSTRUCTURE
     1 2LC301      1 GROUP   
@<TRIPOS>SET

