#    Name: 1uy9_PU6_1_INTS_M
#    Modification time : Tue Mar 25 07:17:56 2014

@<TRIPOS>MOLECULE
1uy9_PU6_1_INTS_M
   53     0     6     0     0
SMALL
NO_CHARGES


@<TRIPOS>ATOM
      1 CA          5.5430    8.2055   25.7870 C.3       2 GLC5        0.0000 
      2 CA          4.9830    7.5760   23.7480 C.3       6 GLL5        0.0000 
      3 CA          6.1030    8.8350   27.8260 C.3       4 GLP5        0.0000 
      4 CA          4.6285    8.3580   26.6800 C.3       2 GLC5        0.0000 
      5 CA          3.1540    7.8810   25.5340 C.3       6 GLL5        0.0000 
      6 CA          2.8240   10.9450   26.8080 C.3       2 GLC5        0.0000 
      7 CA          3.2590    9.4030   25.7530 C.3       6 GLL5        0.0000 
      8 CA          2.3890   12.4870   27.8630 C.3       4 GLP5        0.0000 
      9 CA          4.4160   10.3405   26.7220 C.3       2 GLC5        0.0000 
     10 CA          5.5730   11.2780   27.6910 C.3       4 GLP5        0.0000 
     11 CA          1.6045   11.2650   26.7625 C.3       2 GLC5        0.0000 
     12 CA          0.8200   10.0430   25.6620 C.3       6 GLL5        0.0000 
     13 CA         -2.3400    8.7640   26.5895 C.3       2 GLC5        0.0000 
     14 CA         -0.9510    9.6980   27.1070 C.3       6 GLL5        0.0000 
     15 CA         -3.7290    7.8300   26.0720 C.3       4 GLP5        0.0000 
     16 CA         -1.7560    8.3385   28.5485 C.3       2 GLC5        0.0000 
     17 CA         -2.5610    6.9790   29.9900 C.3       4 GLP5        0.0000 
     18 CA         -1.9095   10.4865   28.9585 C.3       2 GLC5        0.0000 
     19 CA         -2.8680   11.2750   30.8100 C.3       4 GLP5        0.0000 
     20 CA          0.3055   10.6755   28.1725 C.3       2 GLC5        0.0000 
     21 CA          1.5620   11.6530   29.2380 C.3       4 GLP5        0.0000 
     22 CA         -0.2030   10.0955   22.8010 C.3       2 GLC5        0.0000 
     23 CA         -0.0120   10.7330   24.7930 C.3       6 GLL5        0.0000 
     24 CA         -0.3940    9.4580   20.8090 C.3       4 GLP5        0.0000 
     25 CA         -2.5365    9.3580   25.5790 C.3       2 GLC5        0.0000 
     26 CA         -1.3440   10.8860   25.0860 C.3       6 GLL5        0.0000 
     27 CA         -2.3070   12.5055   25.9250 C.3       2 GLC5        0.0000 
     28 CA         -3.2700   14.1250   26.7640 C.3       4 GLP5        0.0000 
     29 O          -3.6590   11.7735   24.2680 O.2       1 ALC1        0.0000 
     30 O          -2.2200   11.5340   24.2540 O.2       5 ALL1        0.0000 
     31 O          -5.0980   12.0130   24.2820 O.2       3 ALP1        0.0000 
     32 CA          4.8435   15.9120   27.5685 C.3       2 GLC5        0.0000 
     33 CA          5.3240   16.0030   25.6900 C.3       6 GLL5        0.0000 
     34 CA          4.3630   15.8210   29.4470 C.3       4 GLP5        0.0000 
     35 CA          4.9185   16.3775   23.7730 C.3       2 GLC5        0.0000 
     36 CA          4.5130   16.7520   21.8560 C.3       4 GLP5        0.0000 
     37 CA          3.6540   17.1370   25.0485 C.3       2 GLC5        0.0000 
     38 CA          1.9840   18.2710   24.4070 C.3       4 GLP5        0.0000 
     39 CA          6.2865   17.3640   25.7695 C.3       2 GLC5        0.0000 
     40 CA          7.2490   18.7250   25.8490 C.3       4 GLP5        0.0000 
     41 CA          0.1900   12.2257   26.1593 C.3       2 GLC5        0.0000 
     42 CA          1.0580   13.6420   27.3790 C.3       4 GLP5        0.0000 
     43 CA          4.6925   11.9333   25.8190 C.3       2 GLC5        0.0000 
     44 CA          4.1030   12.0040   23.6760 C.3       6 GLL5        0.0000 
     45 CA          3.1710   13.0703   26.1685 C.3       2 GLC5        0.0000 
     46 CA          3.5210   13.1730   24.2180 C.3       6 GLL5        0.0000 
     47 CA          4.1197   12.5249   22.0318 C.3       2 GLC5        0.0000 
     48 CA          4.6420   12.7360   20.2680 C.3       4 GLP5        0.0000 
     49 CA          5.3183   12.6650   26.2047 C.3       2 GLC5        0.0000 
     50 CA          4.3850   14.1340   24.7300 C.3       6 GLL5        0.0000 
     51 CA          5.7450   11.8068   25.8077 C.3       2 GLC5        0.0000 
     52 CA          6.3360   12.8310   24.1870 C.3       6 GLL5        0.0000 
     53 CA          5.2795   12.5358   22.0962 C.3       2 GLC5        0.0000 
@<TRIPOS>BOND
@<TRIPOS>SUBSTRUCTURE
     1 ALC1       29 GROUP        1 X    ALC  0     ROOT ALC X 1
     2 GLC5        1 GROUP        1 X    GLC  0     **** GLC X 6
     3 ALP1       31 GROUP        1 Y    ALP  0     ROOT ALP Y 8
     4 GLP5        3 GROUP        1 Y    GLP  0     **** GLP Y 13
     5 ALL1       30 GROUP        1 Z    ALL  0     ROOT ALL Z 15
     6 GLL5        2 GROUP        1 Z    GLL  0     **** GLL Z 20
@<TRIPOS>SET

