#    Name: 1uy9_PU6_1_ligand
#    Modification time : Tue Mar 25 07:17:56 2014

@<TRIPOS>MOLECULE
1uy9_PU6_1_ligand
   43    46     1     0     0
SMALL
NO_CHARGES


@<TRIPOS>ATOM
      1 C18         4.9830    7.5760   23.7480 C.3       1 PU61224     0.0000 
      2 C17         3.5060    7.4260   24.1100 C.3       1 PU61224     0.0000 
      3 C16         3.1540    7.8810   25.5340 C.3       1 PU61224     0.0000 
      4 C15         3.2590    9.4030   25.7530 C.3       1 PU61224     0.0000 
      5 N2          2.0760   10.0190   25.1410 N.pl3     1 PU61224     0.0000 
      6 C12         0.8200   10.0430   25.6620 C.ar      1 PU61224     0.0000 
      7 N4          0.3600    9.5230   26.8260 N.ar      1 PU61224     0.0000 
      8 C14        -0.9510    9.6980   27.1070 C.ar      1 PU61224     0.0000 
      9 N3         -1.7740   10.3570   26.2580 N.ar      1 PU61224     0.0000 
     10 C11        -0.0120   10.7330   24.7930 C.ar      1 PU61224     0.0000 
     11 C13        -1.3440   10.8860   25.0860 C.ar      1 PU61224     0.0000 
     12 N5         -2.2200   11.5340   24.2540 N.pl3     1 PU61224     0.0000 
     13 N1          0.7760   11.1190   23.7730 N.2       1 PU61224     0.0000 
     14 C10         2.0420   10.6920   23.9610 C.2       1 PU61224     0.0000 
     15 C9          3.2450   10.9050   23.0700 C.3       1 PU61224     0.0000 
     16 C1          4.1030   12.0040   23.6760 C.ar      1 PU61224     0.0000 
     17 C6          3.5210   13.1730   24.2180 C.ar      1 PU61224     0.0000 
     18 C5          4.3850   14.1340   24.7300 C.ar      1 PU61224     0.0000 
     19 C2          5.4980   11.8400   23.6620 C.ar      1 PU61224     0.0000 
     20 O3          4.0980   15.3560   25.3160 O.3       1 PU61224     0.0000 
     21 C3          6.3360   12.8310   24.1870 C.ar      1 PU61224     0.0000 
     22 C4          5.7420   13.9700   24.7070 C.ar      1 PU61224     0.0000 
     23 O1          6.3480   15.0850   25.2850 O.3       1 PU61224     0.0000 
     24 C7          5.3240   16.0030   25.6900 C.3       1 PU61224     0.0000 
     25 H           3.2135    6.3687   23.9942 H         1 PU61224     0.0000 
     26 H           2.9000    8.0060   23.3936 H         1 PU61224     0.0000 
     27 H           3.8232    7.3747   26.2464 H         1 PU61224     0.0000 
     28 H           2.1272    7.5605   25.7678 H         1 PU61224     0.0000 
     29 H           4.1685    9.7507   25.2845 H         1 PU61224     0.0000 
     30 H           3.2926    9.5907   26.8166 H         1 PU61224     0.0000 
     31 H          -1.3404    9.3141   28.0045 H         1 PU61224     0.0000 
     32 H          -3.1635   11.6049   24.5776 H         1 PU61224     0.0000 
     33 H          -1.8388   11.8791   23.3963 H         1 PU61224     0.0000 
     34 H           2.9203   11.2052   22.0833 H         1 PU61224     0.0000 
     35 H           3.8208    9.9918   23.0090 H         1 PU61224     0.0000 
     36 H           2.5234   13.2934   24.2274 H         1 PU61224     0.0000 
     37 H           5.9049   10.9845   23.2625 H         1 PU61224     0.0000 
     38 H           7.3411   12.7133   24.1838 H         1 PU61224     0.0000 
     39 H           5.3580   16.1677   26.7607 H         1 PU61224     0.0000 
     40 H           5.4302   16.9491   25.1720 H         1 PU61224     0.0000 
     41 H           5.5702    7.0386   24.3533 H         1 PU61224     0.0000 
     42 H           5.1691    7.2723   22.8136 H         1 PU61224     0.0000 
     43 H           5.2867    8.5265   23.8132 H         1 PU61224     0.0000 
@<TRIPOS>BOND
     1    2    1 1    
     2   41    1 1    
     3   42    1 1    
     4   43    1 1    
     5    3    2 1    
     6   25    2 1    
     7   26    2 1    
     8    4    3 1    
     9   27    3 1    
    10   28    3 1    
    11    5    4 1    
    12   29    4 1    
    13   30    4 1    
    14    6    5 1    
    15   14    5 1    
    16    7    6 ar   
    17   10    6 ar   
    18    8    7 ar   
    19    9    8 ar   
    20   31    8 1    
    21   11    9 ar   
    22   11   10 ar   
    23   13   10 1    
    24   12   11 1    
    25   32   12 1    
    26   33   12 1    
    27   14   13 2    
    28   15   14 1    
    29   16   15 1    
    30   34   15 1    
    31   35   15 1    
    32   17   16 ar   
    33   19   16 ar   
    34   18   17 ar   
    35   36   17 1    
    36   20   18 1    
    37   22   18 ar   
    38   21   19 ar   
    39   37   19 1    
    40   24   20 1    
    41   22   21 ar   
    42   38   21 1    
    43   23   22 1    
    44   24   23 1    
    45   39   24 1    
    46   40   24 1    
@<TRIPOS>SUBSTRUCTURE
     1 PU61224     1 GROUP   
@<TRIPOS>SET

