#    Name: 2ja3_ADP_5_INTS_M
#    Modification time : Tue Mar 25 19:47:46 2014

@<TRIPOS>MOLECULE
2ja3_ADP_5_INTS_M
   42     0     9     0     0
SMALL
NO_CHARGES


@<TRIPOS>ATOM
      1 N          16.8335   39.5340   66.0065 N.am      2 SEC2        0.0000 
      2 N          16.0550   39.7670   64.5380 N.am      8 SEL2        0.0000 
      3 N          17.6120   39.3010   67.4750 N.am      5 SEP2        0.0000 
      4 N          16.2570   38.7285   67.1325 N.am      2 SEC2        0.0000 
      5 N          14.9020   38.1560   66.7900 N.am      8 SEL2        0.0000 
      6 CA         17.1095   36.2080   66.8120 C.3       3 GLC5        0.0000 
      7 CA         15.2410   35.0760   66.5040 C.3       9 GLL5        0.0000 
      8 CA         18.9780   37.3400   67.1200 C.3       6 GLP5        0.0000 
      9 CA         16.0975   35.4410   71.3720 C.3       3 GLC5        0.0000 
     10 CA         16.3040   35.1200   69.2710 C.3       9 GLL5        0.0000 
     11 CA         15.8910   35.7620   73.4730 C.3       6 GLP5        0.0000 
     12 CA         18.1575   34.3975   69.9350 C.3       3 GLC5        0.0000 
     13 CA         20.0110   33.6750   70.5990 C.3       6 GLP5        0.0000 
     14 O          17.0660   37.0225   70.7910 O.2       1 ALC1        0.0000 
     15 O          16.7800   35.5550   70.5420 O.2       7 ALL1        0.0000 
     16 O          17.3520   38.4900   71.0400 O.2       4 ALP1        0.0000 
     17 CA         16.1830   34.1325   71.4950 C.3       3 GLC5        0.0000 
     18 CA         15.6170   33.7670   69.4080 C.3       9 GLL5        0.0000 
     19 CA         16.7490   34.4980   73.5820 C.3       6 GLP5        0.0000 
     20 CA         14.5420   32.2905   68.6275 C.3       3 GLC5        0.0000 
     21 CA         13.4670   30.8140   67.8470 C.3       6 GLP5        0.0000 
     22 CA         17.4370   27.4875   68.9515 C.3       3 GLC5        0.0000 
     23 CA         17.8860   29.4770   69.5190 C.3       9 GLL5        0.0000 
     24 CA         16.9880   25.4980   68.3840 C.3       6 GLP5        0.0000 
     25 O          19.2715   27.4785   68.5040 O.2       1 ALC1        0.0000 
     26 O          18.7890   28.7160   68.9070 O.2       7 ALL1        0.0000 
     27 O          19.7540   26.2410   68.1010 O.2       4 ALP1        0.0000 
     28 N          17.6675   27.5290   70.5705 N.am      2 SEC2        0.0000 
     29 N          17.2560   29.0340   70.6190 N.am      8 SEL2        0.0000 
     30 N          18.0790   26.0240   70.5220 N.am      5 SEP2        0.0000 
     31 CA         18.1585   29.8285   71.7175 C.3       3 GLC5        0.0000 
     32 CA         16.3560   29.7860   71.2350 C.3       9 GLL5        0.0000 
     33 CA         19.9610   29.8710   72.2000 C.3       6 GLP5        0.0000 
     34 CA         14.4827   33.0775   66.9065 C.3       3 GLC5        0.0000 
     35 CA         14.4640   35.0860   67.8360 C.3       9 GLL5        0.0000 
     36 CA         14.1130   31.0740   66.6430 C.3       6 GLP5        0.0000 
     37 CA         17.3507   36.4475   68.0908 C.3       3 GLC5        0.0000 
     38 CA         15.1430   35.9900   68.8520 C.3       9 GLL5        0.0000 
     39 CA         18.5602   32.3978   69.9822 C.3       3 GLC5        0.0000 
     40 CA         17.5820   30.7420   69.0310 C.3       9 GLL5        0.0000 
     41 CA         18.5732   30.3376   70.8438 C.3       3 GLC5        0.0000 
     42 CA         16.6370   31.4990   69.7000 C.3       9 GLL5        0.0000 
@<TRIPOS>BOND
@<TRIPOS>SUBSTRUCTURE
     1 ALC1       14 GROUP        1 X    ALC  0     ROOT ALC X 1
     2 SEC2        1 GROUP        1 X    SEC  0     **** SEC X 2
     3 GLC5        6 GROUP        1 X    GLC  0     **** GLC X 6
     4 ALP1       16 GROUP        1 Y    ALP  0     ROOT ALP Y 8
     5 SEP2        3 GROUP        1 Y    SEP  0     **** SEP Y 9
     6 GLP5        8 GROUP        1 Y    GLP  0     **** GLP Y 13
     7 ALL1       15 GROUP        1 Z    ALL  0     ROOT ALL Z 15
     8 SEL2        2 GROUP        1 Z    SEL  0     **** SEL Z 16
     9 GLL5        7 GROUP        1 Z    GLL  0     **** GLL Z 20
@<TRIPOS>SET

