#    Name: 2ja3_ADP_5_ligand
#    Modification time : Tue Mar 25 19:47:46 2014

@<TRIPOS>MOLECULE
2ja3_ADP_5_ligand
   39    41     1     0     0
SMALL
NO_CHARGES


@<TRIPOS>ATOM
      1 PB         15.4720   38.4210   63.8550 P.3       1 ADP1752     0.0000 
      2 O1B        16.0550   39.7670   64.5380 O.co2     1 ADP1752     0.0000 
      3 O2B        16.4420   37.2280   64.3600 O.co2     1 ADP1752     0.0000 
      4 O3B        15.4480   38.4900   62.3750 O.co2     1 ADP1752     0.0000 
      5 PA         14.0050   37.3970   65.8930 P.3       1 ADP1752     0.0000 
      6 O1A        14.9020   38.1560   66.7900 O.co2     1 ADP1752     0.0000 
      7 O2A        12.5930   37.1950   66.2690 O.co2     1 ADP1752     0.0000 
      8 O3A        14.0420   38.1440   64.5010 O.3       1 ADP1752     0.0000 
      9 O5'        14.6540   35.9420   65.5180 O.3       1 ADP1752     0.0000 
     10 C5'        15.2410   35.0760   66.5040 C.3       1 ADP1752     0.0000 
     11 C4'        14.4640   35.0860   67.8360 C.3       1 ADP1752     0.0000 
     12 O4'        14.5130   33.7820   68.4530 O.3       1 ADP1752     0.0000 
     13 C3'        15.1430   35.9900   68.8520 C.3       1 ADP1752     0.0000 
     14 O3'        14.2750   36.1730   69.9680 O.3       1 ADP1752     0.0000 
     15 C2'        16.3040   35.1200   69.2710 C.3       1 ADP1752     0.0000 
     16 O2'        16.7800   35.5550   70.5420 O.3       1 ADP1752     0.0000 
     17 C1'        15.6170   33.7670   69.4080 C.3       1 ADP1752     0.0000 
     18 N9         16.5250   32.6540   69.0460 N.pl3     1 ADP1752     0.0000 
     19 C8         17.3620   32.6240   68.0070 C.2       1 ADP1752     0.0000 
     20 N7         18.0100   31.4580   67.9960 N.2       1 ADP1752     0.0000 
     21 C5         17.5820   30.7420   69.0310 C.ar      1 ADP1752     0.0000 
     22 C6         17.8860   29.4770   69.5190 C.ar      1 ADP1752     0.0000 
     23 N6         18.7890   28.7160   68.9070 N.pl3     1 ADP1752     0.0000 
     24 N1         17.2560   29.0340   70.6190 N.ar      1 ADP1752     0.0000 
     25 C2         16.3560   29.7860   71.2350 C.ar      1 ADP1752     0.0000 
     26 N3         16.0430   30.9960   70.7950 N.ar      1 ADP1752     0.0000 
     27 C4         16.6370   31.4990   69.7000 C.ar      1 ADP1752     0.0000 
     28 H          16.2827   35.3682   66.7294 H         1 ADP1752     0.0000 
     29 H          15.2762   34.0289   66.1523 H         1 ADP1752     0.0000 
     30 H          13.4768   35.4096   67.6845 H         1 ADP1752     0.0000 
     31 H          15.4804   36.8417   68.3964 H         1 ADP1752     0.0000 
     32 H          17.0045   35.0802   68.5171 H         1 ADP1752     0.0000 
     33 H          15.2501   33.6597   70.3947 H         1 ADP1752     0.0000 
     34 H          17.4813   33.3434   67.3565 H         1 ADP1752     0.0000 
     35 H          19.5485   29.1988   68.4709 H         1 ADP1752     0.0000 
     36 H          18.6270   27.7297   68.9382 H         1 ADP1752     0.0000 
     37 H          15.8738   29.4102   72.1023 H         1 ADP1752     0.0000 
     38 H          14.8103   35.8849   70.7620 H         1 ADP1752     0.0000 
     39 H          16.9043   36.5427   70.4475 H         1 ADP1752     0.0000 
@<TRIPOS>BOND
     1    2    1 ar   
     2    3    1 ar   
     3    4    1 ar   
     4    8    1 1    
     5    6    5 ar   
     6    7    5 ar   
     7    8    5 1    
     8    9    5 1    
     9   10    9 1    
    10   11   10 1    
    11   28   10 1    
    12   29   10 1    
    13   12   11 1    
    14   13   11 1    
    15   30   11 1    
    16   17   12 1    
    17   14   13 1    
    18   15   13 1    
    19   31   13 1    
    20   38   14 1    
    21   16   15 1    
    22   17   15 1    
    23   32   15 1    
    24   39   16 1    
    25   18   17 1    
    26   33   17 1    
    27   19   18 1    
    28   27   18 1    
    29   20   19 2    
    30   34   19 1    
    31   21   20 1    
    32   22   21 ar   
    33   27   21 ar   
    34   23   22 1    
    35   24   22 ar   
    36   35   23 1    
    37   36   23 1    
    38   25   24 ar   
    39   26   25 ar   
    40   37   25 1    
    41   27   26 ar   
@<TRIPOS>SUBSTRUCTURE
     1 ADP1752     1 GROUP   
@<TRIPOS>SET

