#    Name: 2abs_ACP_1_INTS_M
#    Modification time : Mon Mar 24 18:58:29 2014

@<TRIPOS>MOLECULE
2abs_ACP_1_INTS_M
   64     0     9     0     0
SMALL
NO_CHARGES


@<TRIPOS>ATOM
      1 N           8.9405  -14.5750 -100.8820 N.am      2 SEC2        0.0000 
      2 N          10.0000  -14.1110 -100.8260 N.am      8 SEL2        0.0000 
      3 N           7.8810  -15.0390 -100.9380 N.am      5 SEP2        0.0000 
      4 N          13.3580  -16.3030 -105.4480 N.am      2 SEC2        0.0000 
      5 N          12.1220  -16.4050 -104.5760 N.am      8 SEL2        0.0000 
      6 N          14.5940  -16.2010 -106.3200 N.am      5 SEP2        0.0000 
      7 CA          9.0765  -16.2400 -101.3105 C.3       3 GLC5        0.0000 
      8 CA         10.7370  -16.2300 -102.2700 C.3       9 GLL5        0.0000 
      9 CA          7.4160  -16.2500 -100.3510 C.3       6 GLP5        0.0000 
     10 CA         10.1510  -18.0770 -101.2470 C.3       3 GLC5        0.0000 
     11 CA          9.5650  -19.9240 -100.2240 C.3       6 GLP5        0.0000 
     12 N           8.9480  -18.8295 -106.9755 N.am      2 SEC2        0.0000 
     13 N          10.0900  -18.3560 -106.1110 N.am      8 SEL2        0.0000 
     14 N           7.8060  -19.3030 -107.8400 N.am      5 SEP2        0.0000 
     15 N          10.5045  -17.8230 -107.3280 N.am      2 SEC2        0.0000 
     16 N          10.9190  -17.2900 -108.5450 N.am      5 SEP2        0.0000 
     17 N          12.3955  -20.4865 -106.1295 N.am      2 SEC2        0.0000 
     18 N          12.1260  -19.6480 -105.3080 N.am      8 SEL2        0.0000 
     19 N          12.6650  -21.3250 -106.9510 N.am      5 SEP2        0.0000 
     20 CA         11.8615  -21.5115 -102.7790 C.3       3 GLC5        0.0000 
     21 CA         10.2330  -21.4910 -103.9370 C.3       9 GLL5        0.0000 
     22 CA         13.4900  -21.5320 -101.6210 C.3       6 GLP5        0.0000 
     23 CA          8.6025  -23.2615 -101.9160 C.3       3 GLC5        0.0000 
     24 CA          9.0050  -22.3800 -103.6270 C.3       9 GLL5        0.0000 
     25 CA          8.2000  -24.1430 -100.2050 C.3       6 GLP5        0.0000 
     26 O           8.0115  -23.1065 -106.8850 O.2       1 ALC1        0.0000 
     27 O           8.6140  -23.5990 -105.6760 O.2       7 ALL1        0.0000 
     28 O           7.4090  -22.6140 -108.0940 O.2       4 ALP1        0.0000 
     29 CA          4.9915  -23.6505 -104.7370 C.3       3 GLC5        0.0000 
     30 CA          6.7700  -22.9160 -104.2030 C.3       9 GLL5        0.0000 
     31 CA          3.2130  -24.3850 -105.2710 C.3       6 GLP5        0.0000 
     32 O           7.0210  -25.4730 -104.5500 O.2       1 ALC1        0.0000 
     33 O           6.8060  -24.3030 -103.8360 O.2       7 ALL1        0.0000 
     34 O           7.2360  -26.6430 -105.2640 O.2       4 ALP1        0.0000 
     35 CA          8.1680  -20.9925 -101.5900 C.3       3 GLC5        0.0000 
     36 CA          6.7710  -22.0610 -102.9560 C.3       9 GLL5        0.0000 
     37 CA          5.5285  -19.0850 -105.1515 C.3       3 GLC5        0.0000 
     38 CA          4.3240  -19.4400 -103.2850 C.3       9 GLL5        0.0000 
     39 CA          6.7330  -18.7300 -107.0180 C.3       6 GLP5        0.0000 
     40 CA          5.1265  -17.9245 -101.9890 C.3       3 GLC5        0.0000 
     41 CA          5.9290  -16.4090 -100.6930 C.3       6 GLP5        0.0000 
     42 CA          2.4310  -19.1115 -105.1600 C.3       3 GLC5        0.0000 
     43 CA          2.9680  -19.1240 -103.2700 C.3       9 GLL5        0.0000 
     44 CA          1.8940  -19.0990 -107.0500 C.3       6 GLP5        0.0000 
     45 CA          1.9270  -18.2860 -101.8310 C.3       3 GLC5        0.0000 
     46 CA          0.8860  -17.4480 -100.3920 C.3       6 GLP5        0.0000 
     47 CA          2.8720  -20.6835 -105.1735 C.3       3 GLC5        0.0000 
     48 CA          2.5750  -21.4290 -103.1460 C.3       9 GLL5        0.0000 
     49 CA          3.1690  -19.9380 -107.2010 C.3       6 GLP5        0.0000 
     50 CA          2.8940  -22.9070 -104.2085 C.3       3 GLC5        0.0000 
     51 CA          1.4440  -22.2610 -101.9205 C.3       3 GLC5        0.0000 
     52 CA          0.3130  -23.0930 -100.6950 C.3       6 GLP5        0.0000 
     53 CA          3.1500  -20.8470 -101.3900 C.3       3 GLC5        0.0000 
     54 CA          3.7250  -20.2650  -99.6340 C.3       6 GLP5        0.0000 
     55 CA          3.9515  -22.5715 -104.2235 C.3       3 GLC5        0.0000 
     56 CA          4.6900  -20.7580 -103.1760 C.3       9 GLL5        0.0000 
     57 CA          9.5920  -20.9297 -102.0030 C.3       3 GLC5        0.0000 
     58 CA         10.8120  -23.5892 -103.0640 C.3       3 GLC5        0.0000 
     59 CA         12.0050  -25.2430 -102.3460 C.3       6 GLP5        0.0000 
     60 CA         10.2740  -22.2914 -105.7645 C.3       3 GLC5        0.0000 
     61 CA         11.6900  -22.3340 -107.2100 C.3       6 GLP5        0.0000 
     62 CA          7.4852  -23.3158 -101.8923 C.3       3 GLC5        0.0000 
     63 CA          3.8380  -20.0185 -105.2157 C.3       3 GLC5        0.0000 
     64 CA          3.9465  -20.1425 -101.4304 C.3       3 GLC5        0.0000 
@<TRIPOS>BOND
@<TRIPOS>SUBSTRUCTURE
     1 ALC1       26 GROUP        1 X    ALC  0     ROOT ALC X 1
     2 SEC2        1 GROUP        1 X    SEC  0     **** SEC X 2
     3 GLC5        7 GROUP        1 X    GLC  0     **** GLC X 6
     4 ALP1       28 GROUP        1 Y    ALP  0     ROOT ALP Y 8
     5 SEP2        3 GROUP        1 Y    SEP  0     **** SEP Y 9
     6 GLP5        9 GROUP        1 Y    GLP  0     **** GLP Y 13
     7 ALL1       27 GROUP        1 Z    ALL  0     ROOT ALL Z 15
     8 SEL2        2 GROUP        1 Z    SEL  0     **** SEL Z 16
     9 GLL5        8 GROUP        1 Z    GLL  0     **** GLL Z 20
@<TRIPOS>SET

