#    Name: 2abs_ACP_1_ligand
#    Modification time : Mon Mar 24 18:58:29 2014

@<TRIPOS>MOLECULE
2abs_ACP_1_ligand
   45    47     1     0     0
SMALL
NO_CHARGES


@<TRIPOS>ATOM
      1 PG         11.1440  -14.5120 -101.8700 P.3       1 ACP1001     0.0000 
      2 O1G        12.5310  -14.5170 -101.1270 O.co2     1 ACP1001     0.0000 
      3 O2G        11.0580  -13.6190 -103.0450 O.co2     1 ACP1001     0.0000 
      4 O3G        10.0000  -14.1110 -100.8260 O.co2     1 ACP1001     0.0000 
      5 PB         11.8520  -17.1600 -103.3380 P.3       1 ACP1001     0.0000 
      6 O1B        12.1220  -16.4050 -104.5760 O.co2     1 ACP1001     0.0000 
      7 O2B        12.9850  -17.7910 -102.6170 O.co2     1 ACP1001     0.0000 
      8 C3B        10.7370  -16.2300 -102.2700 C.3       1 ACP1001     0.0000 
      9 PA         10.7830  -19.1370 -105.0530 P.3       1 ACP1001     0.0000 
     10 O1A        10.0900  -18.3560 -106.1110 O.co2     1 ACP1001     0.0000 
     11 O2A        12.1260  -19.6480 -105.3080 O.co2     1 ACP1001     0.0000 
     12 O3A        10.7850  -18.3370 -103.6750 O.3       1 ACP1001     0.0000 
     13 O5'         9.7890  -20.3340 -104.6390 O.3       1 ACP1001     0.0000 
     14 C5'        10.2330  -21.4910 -103.9370 C.3       1 ACP1001     0.0000 
     15 C4'         9.0050  -22.3800 -103.6270 C.3       1 ACP1001     0.0000 
     16 O4'         8.1330  -21.6810 -102.6940 O.3       1 ACP1001     0.0000 
     17 C3'         8.0970  -22.5620 -104.8560 C.3       1 ACP1001     0.0000 
     18 O3'         8.6140  -23.5990 -105.6760 O.3       1 ACP1001     0.0000 
     19 C2'         6.7700  -22.9160 -104.2030 C.3       1 ACP1001     0.0000 
     20 O2'         6.8060  -24.3030 -103.8360 O.3       1 ACP1001     0.0000 
     21 C1'         6.7710  -22.0610 -102.9560 C.3       1 ACP1001     0.0000 
     22 N9          6.0410  -20.7920 -103.1440 N.pl3     1 ACP1001     0.0000 
     23 C8          6.4710  -19.5370 -103.2410 C.2       1 ACP1001     0.0000 
     24 N7          5.4290  -18.7010 -103.3380 N.2       1 ACP1001     0.0000 
     25 C5          4.3240  -19.4400 -103.2850 C.ar      1 ACP1001     0.0000 
     26 C6          2.9680  -19.1240 -103.2700 C.ar      1 ACP1001     0.0000 
     27 N6          2.5420  -17.8630 -103.2710 N.pl3     1 ACP1001     0.0000 
     28 N1          2.1500  -20.1690 -103.2050 N.ar      1 ACP1001     0.0000 
     29 C2          2.5750  -21.4290 -103.1460 C.ar      1 ACP1001     0.0000 
     30 N3          3.8190  -21.7770 -103.0880 N.ar      1 ACP1001     0.0000 
     31 C4          4.6900  -20.7580 -103.1760 C.ar      1 ACP1001     0.0000 
     32 H           9.7880  -16.2087 -102.7612 H         1 ACP1001     0.0000 
     33 H          10.6944  -16.7544 -101.3397 H         1 ACP1001     0.0000 
     34 H          10.7026  -21.2427 -102.9853 H         1 ACP1001     0.0000 
     35 H          10.9277  -22.0905 -104.5250 H         1 ACP1001     0.0000 
     36 H           9.2924  -23.3104 -103.2611 H         1 ACP1001     0.0000 
     37 H           8.0090  -21.6237 -105.3256 H         1 ACP1001     0.0000 
     38 H           5.9916  -22.6490 -104.8241 H         1 ACP1001     0.0000 
     39 H           6.3721  -22.6060 -102.1405 H         1 ACP1001     0.0000 
     40 H           7.4125  -19.2589 -103.2419 H         1 ACP1001     0.0000 
     41 H           1.5510  -17.7333 -103.2373 H         1 ACP1001     0.0000 
     42 H           3.2513  -17.1590 -103.3053 H         1 ACP1001     0.0000 
     43 H           1.8165  -22.2027 -103.1475 H         1 ACP1001     0.0000 
     44 H           8.2902  -23.3856 -106.5978 H         1 ACP1001     0.0000 
     45 H           7.2193  -24.7672 -104.6194 H         1 ACP1001     0.0000 
@<TRIPOS>BOND
     1    2    1 ar   
     2    3    1 ar   
     3    4    1 ar   
     4    8    1 1    
     5    6    5 ar   
     6    7    5 ar   
     7    8    5 1    
     8   12    5 1    
     9   32    8 1    
    10   33    8 1    
    11   10    9 ar   
    12   11    9 ar   
    13   12    9 1    
    14   13    9 1    
    15   14   13 1    
    16   15   14 1    
    17   34   14 1    
    18   35   14 1    
    19   16   15 1    
    20   17   15 1    
    21   36   15 1    
    22   21   16 1    
    23   18   17 1    
    24   19   17 1    
    25   37   17 1    
    26   44   18 1    
    27   20   19 1    
    28   21   19 1    
    29   38   19 1    
    30   45   20 1    
    31   22   21 1    
    32   39   21 1    
    33   23   22 1    
    34   31   22 1    
    35   24   23 2    
    36   40   23 1    
    37   25   24 1    
    38   26   25 ar   
    39   31   25 ar   
    40   27   26 1    
    41   28   26 ar   
    42   41   27 1    
    43   42   27 1    
    44   29   28 ar   
    45   30   29 ar   
    46   43   29 1    
    47   31   30 ar   
@<TRIPOS>SUBSTRUCTURE
     1 ACP1001     1 GROUP   
@<TRIPOS>SET

