#    Name: 3r71_X86_1_INTS_M
#    Modification time : Tue Mar 25 11:06:33 2014

@<TRIPOS>MOLECULE
3r71_X86_1_INTS_M
   56     0     9     0     0
SMALL
NO_CHARGES


@<TRIPOS>ATOM
      1 O          63.0445   47.2025  -12.8755 O.2       1 ALC1        0.0000 
      2 O          63.8720   46.2490  -12.0820 O.2       7 ALL1        0.0000 
      3 O          62.2170   48.1560  -13.6690 O.2       4 ALP1        0.0000 
      4 O          67.1380   46.8180  -15.9965 O.2       1 ALC1        0.0000 
      5 O          67.1370   46.2470  -14.6060 O.2       7 ALL1        0.0000 
      6 O          67.1390   47.3890  -17.3870 O.2       4 ALP1        0.0000 
      7 CA         61.9965   44.1705  -10.4980 C.3       3 GLC5        0.0000 
      8 CA         62.5670   46.1400  -11.3430 C.3       9 GLL5        0.0000 
      9 CA         61.4260   42.2010   -9.6530 C.3       6 GLP5        0.0000 
     10 CA         63.0325   44.3415  -11.9920 C.3       3 GLC5        0.0000 
     11 CA         63.4980   42.5430  -12.6410 C.3       6 GLP5        0.0000 
     12 CA         64.7775   48.9475  -10.2520 C.3       3 GLC5        0.0000 
     13 CA         62.7140   48.5030  -10.3430 C.3       9 GLL5        0.0000 
     14 CA         66.8410   49.3920  -10.1610 C.3       6 GLP5        0.0000 
     15 CA         61.1910   48.7795  -11.7735 C.3       3 GLC5        0.0000 
     16 CA         59.6680   49.0560  -13.2040 C.3       6 GLP5        0.0000 
     17 CA         65.8555   45.7240   -7.7785 C.3       3 GLC5        0.0000 
     18 CA         65.2490   43.8610   -7.8040 C.3       9 GLL5        0.0000 
     19 CA         66.4620   47.5870   -7.7530 C.3       6 GLP5        0.0000 
     20 CA         65.1190   40.8410   -6.8290 C.3       3 GLC5        0.0000 
     21 CA         65.6100   42.8740   -6.6970 C.3       9 GLL5        0.0000 
     22 CA         64.6280   38.8080   -6.9610 C.3       6 GLP5        0.0000 
     23 CA         67.5470   46.1335   -6.7675 C.3       3 GLC5        0.0000 
     24 CA         68.6320   44.6800   -5.7820 C.3       9 GLL5        0.0000 
     25 CA         68.7060   46.0795   -4.7120 C.3       3 GLC5        0.0000 
     26 CA         68.7800   47.4790   -3.6420 C.3       6 GLP5        0.0000 
     27 CA         70.1920   44.9580   -4.3595 C.3       3 GLC5        0.0000 
     28 CA         71.7520   45.2360   -2.9370 C.3       6 GLP5        0.0000 
     29 CA         70.3680   43.6575   -5.7290 C.3       3 GLC5        0.0000 
     30 CA         72.1040   42.6350   -5.6760 C.3       6 GLP5        0.0000 
     31 CA         70.1225   45.3840   -7.0540 C.3       3 GLC5        0.0000 
     32 CA         71.6130   46.0880   -8.3260 C.3       6 GLP5        0.0000 
     33 N          64.3295   47.7695  -14.9945 N.am      2 SEC2        0.0000 
     34 N          65.3170   47.3730  -13.9760 N.am      8 SEL2        0.0000 
     35 N          63.3420   48.1660  -16.0130 N.am      5 SEP2        0.0000 
     36 N          70.5675   43.6955  -11.7320 N.am      2 SEC2        0.0000 
     37 N          69.7560   44.5240  -10.9670 N.am      8 SEL2        0.0000 
     38 N          71.3790   42.8670  -12.4970 N.am      5 SEP2        0.0000 
     39 CA         68.9835   46.4237  -10.5740 C.3       3 GLC5        0.0000 
     40 CA         67.4470   45.4530  -11.9220 C.3       9 GLL5        0.0000 
     41 CA         70.4760   47.7240   -9.8640 C.3       6 GLP5        0.0000 
     42 CA         67.9550   47.1913  -13.1182 C.3       3 GLC5        0.0000 
     43 CA         69.0840   48.6800  -14.0600 C.3       6 GLP5        0.0000 
     44 CA         66.3820   47.5701  -11.0351 C.3       3 GLC5        0.0000 
     45 CA         65.0200   45.7940  -11.6420 C.3       9 GLL5        0.0000 
     46 CA         65.3265   44.6726  -13.2326 C.3       3 GLC5        0.0000 
     47 CA         64.7300   43.5970  -14.5560 C.3       6 GLP5        0.0000 
     48 CA         64.6167   43.7085  -11.3780 C.3       3 GLC5        0.0000 
     49 CA         66.3530   44.6250   -9.8660 C.3       9 GLL5        0.0000 
     50 CA         66.5486   46.2105   -9.0668 C.3       3 GLC5        0.0000 
     51 CA         65.1180   45.1230  -10.3640 C.3       9 GLL5        0.0000 
     52 CA         64.3268   47.9090   -7.8438 C.3       3 GLC5        0.0000 
     53 CA         62.0650   47.5520   -7.8050 C.3       9 GLL5        0.0000 
     54 CA         60.6149   46.2852  -10.5311 C.3       3 GLC5        0.0000 
     55 CA         62.1500   46.6560   -8.8850 C.3       9 GLL5        0.0000 
     56 CA         58.8940   45.9280  -11.2390 C.3       6 GLP5        0.0000 
@<TRIPOS>BOND
@<TRIPOS>SUBSTRUCTURE
     1 ALC1        1 GROUP        1 X    ALC  0     ROOT ALC X 1
     2 SEC2       33 GROUP        1 X    SEC  0     **** SEC X 2
     3 GLC5        7 GROUP        1 X    GLC  0     **** GLC X 6
     4 ALP1        3 GROUP        1 Y    ALP  0     ROOT ALP Y 8
     5 SEP2       35 GROUP        1 Y    SEP  0     **** SEP Y 9
     6 GLP5        9 GROUP        1 Y    GLP  0     **** GLP Y 13
     7 ALL1        2 GROUP        1 Z    ALL  0     ROOT ALL Z 15
     8 SEL2       34 GROUP        1 Z    SEL  0     **** SEL Z 16
     9 GLL5        8 GROUP        1 Z    GLL  0     **** GLL Z 20
@<TRIPOS>SET

