#    Name: 3r71_X86_1_ligand
#    Modification time : Tue Mar 25 11:06:33 2014

@<TRIPOS>MOLECULE
3r71_X86_1_ligand
   47    48     1     0     0
SMALL
NO_CHARGES


@<TRIPOS>ATOM
      1 N01        63.8720   46.2490  -12.0820 N.pl3     1 X86800      0.0000 
      2 N02        67.1370   46.2470  -14.6060 N.am      1 X86800      0.0000 
      3 N03        62.6390   49.3940   -9.3040 N.ar      1 X86800      0.0000 
      4 N04        66.4190   44.0230   -8.7130 N.pl3     1 X86800      0.0000 
      5 N05        68.6770   44.3680  -10.2290 N.pl3     1 X86800      0.0000 
      6 C06        67.4470   45.4530  -11.9220 C.ar      1 X86800      0.0000 
      7 C07        66.2050   45.9520  -12.4310 C.ar      1 X86800      0.0000 
      8 C08        65.0200   45.7940  -11.6420 C.ar      1 X86800      0.0000 
      9 C09        65.1180   45.1230  -10.3640 C.ar      1 X86800      0.0000 
     10 C10        66.3530   44.6250   -9.8660 C.ar      1 X86800      0.0000 
     11 C11        67.5350   44.7940  -10.6460 C.ar      1 X86800      0.0000 
     12 C12        66.1850   46.5670  -13.6730 C.2       1 X86800      0.0000 
     13 C13        62.5670   46.1400  -11.3430 C.3       1 X86800      0.0000 
     14 C14        62.4760   47.1180  -10.1800 C.ar      1 X86800      0.0000 
     15 C15        62.7140   48.5030  -10.3430 C.ar      1 X86800      0.0000 
     16 C16        62.3180   48.9100   -8.0640 C.ar      1 X86800      0.0000 
     17 C17        62.0650   47.5520   -7.8050 C.ar      1 X86800      0.0000 
     18 C18        62.1500   46.6560   -8.8850 C.ar      1 X86800      0.0000 
     19 C19        65.2490   43.8610   -7.8040 C.3       1 X86800      0.0000 
     20 C20        65.6100   42.8740   -6.6970 C.3       1 X86800      0.0000 
     21 C21        66.4760   43.5820   -5.6610 C.3       1 X86800      0.0000 
     22 C22        68.6320   44.6800   -5.7820 C.3       1 X86800      0.0000 
     23 O23        65.3170   47.3730  -13.9760 O.2       1 X86800      0.0000 
     24 O24        68.8160   43.8060   -9.0580 O.2       1 X86800      0.0000 
     25 O25        69.7560   44.5240  -10.9670 O.2       1 X86800      0.0000 
     26 O26        67.7970   43.6110   -6.1170 O.3       1 X86800      0.0000 
     27 H          63.7768   46.7405  -13.0164 H         1 X86800      0.0000 
     28 H          67.8293   45.5849  -14.3190 H         1 X86800      0.0000 
     29 H          67.0559   46.7037  -15.4919 H         1 X86800      0.0000 
     30 H          67.3082   43.6034   -8.3344 H         1 X86800      0.0000 
     31 H          68.3006   45.5673  -12.4813 H         1 X86800      0.0000 
     32 H          64.2614   45.0078   -9.8061 H         1 X86800      0.0000 
     33 H          62.4463   45.1182  -10.9576 H         1 X86800      0.0000 
     34 H          61.7351   46.3326  -12.0344 H         1 X86800      0.0000 
     35 H          62.9558   48.8429  -11.3029 H         1 X86800      0.0000 
     36 H          62.2536   49.5783   -7.2522 H         1 X86800      0.0000 
     37 H          61.8314   47.2323   -6.8798 H         1 X86800      0.0000 
     38 H          61.9741   45.6559   -8.7346 H         1 X86800      0.0000 
     39 H          64.3953   43.4756   -8.3533 H         1 X86800      0.0000 
     40 H          64.9870   44.8135   -7.3534 H         1 X86800      0.0000 
     41 H          66.1599   42.0440   -7.1205 H         1 X86800      0.0000 
     42 H          64.7046   42.5151   -6.2259 H         1 X86800      0.0000 
     43 H          66.3692   43.0360   -4.7153 H         1 X86800      0.0000 
     44 H          66.0589   44.5863   -5.5155 H         1 X86800      0.0000 
     45 H          69.5455   44.5751   -6.1751 H         1 X86800      0.0000 
     46 H          68.2695   45.5518   -6.1115 H         1 X86800      0.0000 
     47 H          68.7468   44.7656   -4.7923 H         1 X86800      0.0000 
@<TRIPOS>BOND
     1    8    1 1    
     2   13    1 1    
     3   27    1 1    
     4   12    2 am   
     5   28    2 1    
     6   29    2 1    
     7   15    3 ar   
     8   16    3 ar   
     9   10    4 1    
    10   19    4 1    
    11   30    4 1    
    12   11    5 1    
    13   24    5 2    
    14   25    5 2    
    15    7    6 ar   
    16   11    6 ar   
    17   31    6 1    
    18    8    7 ar   
    19   12    7 1    
    20    9    8 ar   
    21   10    9 ar   
    22   32    9 1    
    23   11   10 ar   
    24   23   12 2    
    25   14   13 1    
    26   33   13 1    
    27   34   13 1    
    28   15   14 ar   
    29   18   14 ar   
    30   35   15 1    
    31   17   16 ar   
    32   36   16 1    
    33   18   17 ar   
    34   37   17 1    
    35   38   18 1    
    36   20   19 1    
    37   39   19 1    
    38   40   19 1    
    39   21   20 1    
    40   41   20 1    
    41   42   20 1    
    42   26   21 1    
    43   43   21 1    
    44   44   21 1    
    45   26   22 1    
    46   45   22 1    
    47   46   22 1    
    48   47   22 1    
@<TRIPOS>SUBSTRUCTURE
     1 X86800      1 GROUP   
@<TRIPOS>SET

