#    Name: 3mpt_1GK_1_INTS_M
#    Modification time : Mon Mar 24 23:36:03 2014

@<TRIPOS>MOLECULE
3mpt_1GK_1_INTS_M
   59     0     9     0     0
SMALL
NO_CHARGES


@<TRIPOS>ATOM
      1 CA         40.0635   30.3450   35.0205 C.3       3 GLC5        0.0000 
      2 CA         40.6540   29.2610   33.2960 C.3       9 GLL5        0.0000 
      3 CA         39.4730   31.4290   36.7450 C.3       6 GLP5        0.0000 
      4 CA         42.1575   29.2850   34.8945 C.3       3 GLC5        0.0000 
      5 CA         43.6610   29.3090   36.4930 C.3       6 GLP5        0.0000 
      6 CA         41.3685   31.1570   28.0715 C.3       3 GLC5        0.0000 
      7 CA         40.1770   30.8330   29.9130 C.3       9 GLL5        0.0000 
      8 CA         42.5600   31.4810   26.2300 C.3       6 GLP5        0.0000 
      9 CA         40.9600   32.6105   29.2475 C.3       3 GLC5        0.0000 
     10 CA         41.7430   34.3880   28.5820 C.3       6 GLP5        0.0000 
     11 CA         39.5840   28.7365   30.1440 C.3       3 GLC5        0.0000 
     12 CA         40.7810   30.3050   31.0370 C.3       9 GLL5        0.0000 
     13 CA         38.3870   27.1680   29.2510 C.3       6 GLP5        0.0000 
     14 CA         41.3570   33.0600   33.9220 C.3       3 GLC5        0.0000 
     15 CA         42.3190   32.5620   32.0190 C.3       9 GLL5        0.0000 
     16 CA         40.3950   33.5580   35.8250 C.3       6 GLP5        0.0000 
     17 CA         40.3670   33.4930   32.3345 C.3       3 GLC5        0.0000 
     18 CA         38.4150   34.4240   32.6500 C.3       6 GLP5        0.0000 
     19 O          42.6565   34.8200   32.4200 O.2       1 ALC1        0.0000 
     20 O          43.2650   33.4670   32.3960 O.2       7 ALL1        0.0000 
     21 O          42.0480   36.1730   32.4440 O.2       4 ALP1        0.0000 
     22 CA         45.0120   34.2660   30.7485 C.3       3 GLC5        0.0000 
     23 CA         44.5190   32.9630   32.2500 C.3       9 GLL5        0.0000 
     24 CA         45.5050   35.5690   29.2470 C.3       6 GLP5        0.0000 
     25 CA         44.1765   32.3610   34.0480 C.3       3 GLC5        0.0000 
     26 CA         43.8340   31.7590   35.8460 C.3       6 GLP5        0.0000 
     27 CA         44.9700   30.9085   33.4995 C.3       3 GLC5        0.0000 
     28 CA         44.3440   31.6830   31.7500 C.3       9 GLL5        0.0000 
     29 CA         45.5960   30.1340   35.2490 C.3       6 GLP5        0.0000 
     30 N          45.7515   36.2950   32.7200 N.am      2 SEC2        0.0000 
     31 N          45.6320   34.9020   32.9760 N.am      8 SEL2        0.0000 
     32 N          45.8710   37.6880   32.4640 N.am      5 SEP2        0.0000 
     33 CA         47.5825   35.7405   33.7220 C.3       3 GLC5        0.0000 
     34 CA         48.0690   33.7370   32.8450 C.3       9 GLL5        0.0000 
     35 CA         47.0960   37.7440   34.5990 C.3       6 GLP5        0.0000 
     36 CA         47.3395   33.9600   34.6130 C.3       3 GLC5        0.0000 
     37 CA         46.6100   34.1830   36.3810 C.3       6 GLP5        0.0000 
     38 CA         38.3613   31.5733   32.3732 C.3       3 GLC5        0.0000 
     39 CA         38.6270   29.9010   32.0040 C.3       9 GLL5        0.0000 
     40 CA         37.4050   33.2760   32.7030 C.3       6 GLP5        0.0000 
     41 CA         36.7492   29.5703   32.4975 C.3       3 GLC5        0.0000 
     42 CA         35.1750   28.9720   33.5470 C.3       6 GLP5        0.0000 
     43 CA         38.5279   28.6606   30.3594 C.3       3 GLC5        0.0000 
     44 CA         38.0200   30.4360   30.8920 C.3       9 GLL5        0.0000 
     45 CA         36.4982   30.4093   29.8115 C.3       3 GLC5        0.0000 
     46 CA         34.5880   30.1530   29.2500 C.3       6 GLP5        0.0000 
     47 CA         37.9068   31.9708   31.5380 C.3       3 GLC5        0.0000 
     48 CA         38.9700   30.0030   28.3982 C.3       3 GLC5        0.0000 
     49 CA         38.7970   30.8950   29.8540 C.3       9 GLL5        0.0000 
     50 CA         38.4530   29.1420   26.9130 C.3       6 GLP5        0.0000 
     51 CA         42.1895   33.1895   30.1968 C.3       3 GLC5        0.0000 
     52 CA         42.9530   31.4200   31.6040 C.3       9 GLL5        0.0000 
     53 CA         43.2350   31.8750   33.8287 C.3       3 GLC5        0.0000 
     54 CA         50.1490   34.7880   32.5935 C.3       3 GLC5        0.0000 
     55 CA         51.8370   35.7230   32.9430 C.3       6 GLP5        0.0000 
     56 CA         47.3960   35.0380   29.8359 C.3       3 GLC5        0.0000 
     57 CA         49.7860   34.5940   29.7220 C.3       9 GLL5        0.0000 
     58 CA         50.8519   34.9286   31.5817 C.3       3 GLC5        0.0000 
     59 CA         48.7230   34.8710   30.6120 C.3       9 GLL5        0.0000 
@<TRIPOS>BOND
@<TRIPOS>SUBSTRUCTURE
     1 ALC1       19 GROUP        1 X    ALC  0     ROOT ALC X 1
     2 SEC2       30 GROUP        1 X    SEC  0     **** SEC X 2
     3 GLC5        1 GROUP        1 X    GLC  0     **** GLC X 6
     4 ALP1       21 GROUP        1 Y    ALP  0     ROOT ALP Y 8
     5 SEP2       32 GROUP        1 Y    SEP  0     **** SEP Y 9
     6 GLP5        3 GROUP        1 Y    GLP  0     **** GLP Y 13
     7 ALL1       20 GROUP        1 Z    ALL  0     ROOT ALL Z 15
     8 SEL2       31 GROUP        1 Z    SEL  0     **** SEL Z 16
     9 GLL5        2 GROUP        1 Z    GLL  0     **** GLL Z 20
@<TRIPOS>SET

