#    Name: 3mpt_1GK_1_ligand
#    Modification time : Mon Mar 24 23:36:03 2014

@<TRIPOS>MOLECULE
3mpt_1GK_1_ligand
   39    41     1     0     0
SMALL
NO_CHARGES


@<TRIPOS>ATOM
      1 C1         40.6540   29.2610   33.2960 C.3       1 1GK361      0.0000 
      2 C2         40.0080   29.8400   32.0830 C.ar      1 1GK361      0.0000 
      3 C3         38.6270   29.9010   32.0040 C.ar      1 1GK361      0.0000 
      4 C4         38.0200   30.4360   30.8920 C.ar      1 1GK361      0.0000 
      5 C5         38.7970   30.8950   29.8540 C.ar      1 1GK361      0.0000 
      6 C6         40.1770   30.8330   29.9130 C.ar      1 1GK361      0.0000 
      7 C7         40.7810   30.3050   31.0370 C.ar      1 1GK361      0.0000 
      8 C8         42.2630   30.2400   31.1380 C.2       1 1GK361      0.0000 
      9 O9         42.8540   29.2080   30.8740 O.2       1 1GK361      0.0000 
     10 C10        42.9530   31.4200   31.6040 C.2       1 1GK361      0.0000 
     11 C11        42.3190   32.5620   32.0190 C.2       1 1GK361      0.0000 
     12 N12        43.2650   33.4670   32.3960 N.pl3     1 1GK361      0.0000 
     13 C13        44.5190   32.9630   32.2500 C.2       1 1GK361      0.0000 
     14 C14        44.3440   31.6830   31.7500 C.2       1 1GK361      0.0000 
     15 C15        45.6790   33.7360   32.5930 C.2       1 1GK361      0.0000 
     16 O16        45.6320   34.9020   32.9760 O.2       1 1GK361      0.0000 
     17 N17        46.8520   33.0540   32.4920 N.am      1 1GK361      0.0000 
     18 C18        48.0690   33.7370   32.8450 C.3       1 1GK361      0.0000 
     19 C19        48.8530   33.9690   31.6430 C.2       1 1GK361      0.0000 
     20 C20        48.7230   34.8710   30.6120 C.2       1 1GK361      0.0000 
     21 C21        49.7860   34.5940   29.7220 C.2       1 1GK361      0.0000 
     22 C22        50.4790   33.5360   30.2740 C.2       1 1GK361      0.0000 
     23 O23        49.9170   33.1410   31.4540 O.3       1 1GK361      0.0000 
     24 H          38.0540   29.5421   32.7856 H         1 1GK361      0.0000 
     25 H          36.9939   30.4925   30.8369 H         1 1GK361      0.0000 
     26 H          38.3419   31.2959   29.0093 H         1 1GK361      0.0000 
     27 H          40.7450   31.1755   29.1304 H         1 1GK361      0.0000 
     28 H          41.3696   32.6966   32.0389 H         1 1GK361      0.0000 
     29 H          43.0651   34.3669   32.7299 H         1 1GK361      0.0000 
     30 H          45.0303   31.0623   31.5322 H         1 1GK361      0.0000 
     31 H          46.9062   32.0913   32.1808 H         1 1GK361      0.0000 
     32 H          48.6516   33.1369   33.5598 H         1 1GK361      0.0000 
     33 H          47.8420   34.6967   33.3328 H         1 1GK361      0.0000 
     34 H          48.0783   35.5336   30.5023 H         1 1GK361      0.0000 
     35 H          49.9653   35.0465   28.9276 H         1 1GK361      0.0000 
     36 H          51.2661   33.1293   29.8682 H         1 1GK361      0.0000 
     37 H          41.6515   29.2726   33.2269 H         1 1GK361      0.0000 
     38 H          40.4116   29.7675   34.1235 H         1 1GK361      0.0000 
     39 H          40.3815   28.3103   33.4439 H         1 1GK361      0.0000 
@<TRIPOS>BOND
     1    2    1 1    
     2   37    1 1    
     3   38    1 1    
     4   39    1 1    
     5    3    2 ar   
     6    7    2 ar   
     7    4    3 ar   
     8   24    3 1    
     9    5    4 ar   
    10   25    4 1    
    11    6    5 ar   
    12   26    5 1    
    13    7    6 ar   
    14   27    6 1    
    15    8    7 1    
    16    9    8 2    
    17   10    8 1    
    18   11   10 2    
    19   14   10 1    
    20   12   11 1    
    21   28   11 1    
    22   13   12 1    
    23   29   12 1    
    24   14   13 2    
    25   15   13 1    
    26   30   14 1    
    27   16   15 2    
    28   17   15 am   
    29   18   17 1    
    30   31   17 1    
    31   19   18 1    
    32   32   18 1    
    33   33   18 1    
    34   20   19 2    
    35   23   19 1    
    36   21   20 1    
    37   34   20 1    
    38   22   21 2    
    39   35   21 1    
    40   23   22 1    
    41   36   22 1    
@<TRIPOS>SUBSTRUCTURE
     1 1GK361      1 GROUP   
@<TRIPOS>SET

