#    Name: 2AI3_2_CAVITY_N1_6.mol2
#    Modification time : Tue Mar 11 01:55:02 2014

@<TRIPOS>MOLECULE
2AI3_2_CAVITY_N1_6.mol2
   91     0     6     0     0
SMALL
NO_CHARGES


@<TRIPOS>ATOM
      1 CA         68.7331  -52.0632   99.1483 C.3       5 GLY6        0.0000 
      2 CA         70.0791  -52.2706   98.5196 C.3       5 GLY6        0.0000 
      3 CZ         68.0923  -52.8290   98.0290 C.ar      4 PHE5        0.0000 
      4 N          69.4383  -53.0364   97.4003 N.2       2 ALA2        0.0000 
      5 CA         67.0924  -47.1049  104.7361 C.3       5 GLY6        0.0000 
      6 CZ         65.1056  -47.6632  104.2455 C.ar      4 PHE5        0.0000 
      7 CZ         66.4516  -47.8706  103.6167 C.ar      4 PHE5        0.0000 
      8 N          64.4647  -48.4290  103.1261 N.2       2 ALA2        0.0000 
      9 CZ         68.5670  -50.7902   98.3726 C.ar      4 PHE5        0.0000 
     10 O          69.9129  -50.9976   97.7438 O.2       2 ALA2        0.0000 
     11 NZ         67.9261  -51.5559   97.2532 N.2       3 LYS4        0.0000 
     12 CA         69.2721  -51.7634   96.6245 C.3       5 GLY6        0.0000 
     13 O          65.5802  -45.6244  104.5890 O.2       2 ALA2        0.0000 
     14 N          63.5934  -46.1828  104.0984 N.2       2 ALA2        0.0000 
     15 DU         64.9394  -46.3902  103.4697 H         6 CUB7        0.0000 
     16 CZ         66.2854  -46.5976  102.8410 C.ar      4 PHE5        0.0000 
     17 CZ         67.6314  -46.8050  102.2123 C.ar      4 PHE5        0.0000 
     18 N          64.2985  -47.1559  102.3504 N.2       2 ALA2        0.0000 
     19 CZ         65.6445  -47.3634  101.7216 C.ar      4 PHE5        0.0000 
     20 CZ         69.0416  -48.7514   98.7161 C.ar      4 PHE5        0.0000 
     21 CZ         68.4008  -49.5171   97.5968 C.ar      4 PHE5        0.0000 
     22 O          69.7468  -49.7246   96.9681 O.2       2 ALA2        0.0000 
     23 NZ         66.4139  -50.0755   97.1062 N.2       3 LYS4        0.0000 
     24 NZ         67.7599  -50.2829   96.4775 N.2       3 LYS4        0.0000 
     25 CA         69.1059  -50.4903   95.8487 C.3       5 GLY6        0.0000 
     26 NZ         67.1191  -51.0487   95.3581 N.2       3 LYS4        0.0000 
     27 O          66.0549  -43.5857  104.9326 O.2       2 ALA2        0.0000 
     28 O          65.4141  -44.3514  103.8133 O.2       2 ALA2        0.0000 
     29 OG         63.4272  -44.9097  103.3227 O.2       1 SER1        0.0000 
     30 OG         64.7732  -45.1172  102.6940 O.2       1 SER1        0.0000 
     31 O          66.1192  -45.3246  102.0652 O.2       2 ALA2        0.0000 
     32 O          67.4652  -45.5320  101.4365 O.2       2 ALA2        0.0000 
     33 CA         68.8112  -45.7394  100.8078 C.3       5 GLY6        0.0000 
     34 CA         64.1324  -45.8829  101.5746 C.3       5 GLY6        0.0000 
     35 CA         65.4783  -46.0903  100.9459 C.3       5 GLY6        0.0000 
     36 CZ         66.8243  -46.2978  100.3172 C.ar      4 PHE5        0.0000 
     37 CZ         68.1703  -46.5052   99.6885 C.ar      4 PHE5        0.0000 
     38 CA         69.5163  -46.7126   99.0597 C.3       5 GLY6        0.0000 
     39 CZ         66.1835  -47.0635   99.1978 C.ar      4 PHE5        0.0000 
     40 CZ         67.5295  -47.2709   98.5691 C.ar      4 PHE5        0.0000 
     41 CZ         68.8755  -47.4784   97.9404 C.ar      4 PHE5        0.0000 
     42 O          70.2214  -47.6858   97.3117 O.2       2 ALA2        0.0000 
     43 CA         65.5426  -47.8293   98.0785 C.3       5 GLY6        0.0000 
     44 CZ         66.8886  -48.0367   97.4498 C.ar      4 PHE5        0.0000 
     45 N          68.2346  -48.2441   96.8211 N.2       2 ALA2        0.0000 
     46 N          66.2477  -48.8025   96.3304 N.2       2 ALA2        0.0000 
     47 N          67.5937  -49.0099   95.7017 N.2       2 ALA2        0.0000 
     48 OG         65.2479  -43.0784  103.0375 O.2       1 SER1        0.0000 
     49 O          66.5939  -43.2858  102.4088 O.2       2 ALA2        0.0000 
     50 O          67.9399  -43.4932  101.7801 O.2       2 ALA2        0.0000 
     51 OG         64.6070  -43.8441  101.9182 O.2       1 SER1        0.0000 
     52 OG         65.9530  -44.0516  101.2895 O.2       1 SER1        0.0000 
     53 OG         67.2990  -44.2590  100.6608 O.2       1 SER1        0.0000 
     54 CA         68.6450  -44.4664  100.0320 C.3       5 GLY6        0.0000 
     55 CA         63.9662  -44.6099  100.7989 C.3       5 GLY6        0.0000 
     56 CA         65.3122  -44.8173  100.1701 C.3       5 GLY6        0.0000 
     57 DU         66.6581  -45.0247   99.5414 H         6 CUB7        0.0000 
     58 DU         68.0041  -45.2322   98.9127 H         6 CUB7        0.0000 
     59 CA         69.3501  -45.4396   98.2840 C.3       5 GLY6        0.0000 
     60 CA         66.0173  -45.7905   98.4221 C.3       5 GLY6        0.0000 
     61 N          67.3633  -45.9979   97.7934 N.2       2 ALA2        0.0000 
     62 N          68.7093  -46.2053   97.1646 N.2       2 ALA2        0.0000 
     63 CA         65.3764  -46.5563   97.3027 C.3       5 GLY6        0.0000 
     64 CA         66.7224  -46.7637   96.6740 C.3       5 GLY6        0.0000 
     65 N          68.0684  -46.9711   96.0453 N.2       2 ALA2        0.0000 
     66 OG         65.7226  -41.0396  103.3811 O.2       1 SER1        0.0000 
     67 OG         67.0685  -41.2470  102.7524 O.2       1 SER1        0.0000 
     68 OG         66.4277  -42.0128  101.6331 O.2       1 SER1        0.0000 
     69 OG         65.7868  -42.7785  100.5137 O.2       1 SER1        0.0000 
     70 OG         67.1328  -42.9860   99.8850 O.2       1 SER1        0.0000 
     71 OG         68.4788  -43.1934   99.2563 O.2       1 SER1        0.0000 
     72 CZ         63.8000  -43.3369  100.0231 C.ar      4 PHE5        0.0000 
     73 OG         65.1460  -43.5443   99.3944 O.2       1 SER1        0.0000 
     74 DU         66.4920  -43.7517   98.7657 H         6 CUB7        0.0000 
     75 N          67.8380  -43.9591   98.1369 N.2       2 ALA2        0.0000 
     76 CA         64.5051  -44.3101   98.2750 C.3       5 GLY6        0.0000 
     77 O          65.8511  -44.5175   97.6463 O.2       2 ALA2        0.0000 
     78 N          67.1971  -44.7249   97.0176 N.2       2 ALA2        0.0000 
     79 CA         66.5562  -45.4907   95.8983 C.3       5 GLY6        0.0000 
     80 N          65.6206  -41.5055   99.7380 N.2       2 ALA2        0.0000 
     81 OG         68.3126  -41.9204   98.4805 O.2       1 SER1        0.0000 
     82 N          64.9798  -42.2713   98.6186 N.2       2 ALA2        0.0000 
     83 OG         66.3258  -42.4787   97.9899 O.2       1 SER1        0.0000 
     84 N          67.6718  -42.6861   97.3612 N.2       2 ALA2        0.0000 
     85 CA         64.3389  -43.0370   97.4993 C.3       5 GLY6        0.0000 
     86 O          65.6849  -43.2444   96.8706 O.2       2 ALA2        0.0000 
     87 OG         66.8005  -40.4399   98.3335 O.2       1 SER1        0.0000 
     88 O          68.1464  -40.6473   97.7048 O.2       2 ALA2        0.0000 
     89 OG         66.1596  -41.2057   97.2142 O.2       1 SER1        0.0000 
     90 O          67.5056  -41.4131   96.5854 O.2       2 ALA2        0.0000 
     91 OG         65.5187  -41.9714   96.0948 O.2       1 SER1        0.0000 
@<TRIPOS>BOND
@<TRIPOS>SUBSTRUCTURE
     1 SER1       29 GROUP   
     2 ALA2        4 GROUP   
     3 LYS4       11 GROUP   
     4 PHE5        3 GROUP   
     5 GLY6        1 GROUP   
     6 CUB7       15 GROUP   
@<TRIPOS>SET

