#    Name: 2ai3_P2G_2_INTS_M
#    Modification time : Mon Mar 24 19:20:42 2014

@<TRIPOS>MOLECULE
2ai3_P2G_2_INTS_M
   43     0     9     0     0
SMALL
NO_CHARGES


@<TRIPOS>ATOM
      1 O          65.9360  -51.4685   96.1440 O.2       1 ALC1        0.0000 
      2 O          66.6150  -50.3310   96.2080 O.2       7 ALL1        0.0000 
      3 O          65.2570  -52.6060   96.0800 O.2       4 ALP1        0.0000 
      4 O          63.9425  -50.3620   96.0745 O.2       1 ALC1        0.0000 
      5 O          64.5760  -49.1170   96.1050 O.2       7 ALL1        0.0000 
      6 O          63.3090  -51.6070   96.0440 O.2       4 ALP1        0.0000 
      7 CA         69.7885  -49.4450   95.3580 C.3       3 GLC5        0.0000 
      8 CA         68.6670  -49.1950   96.8450 C.3       9 GLL5        0.0000 
      9 CA         70.9100  -49.6950   93.8710 C.3       6 GLP5        0.0000 
     10 N          71.2805  -49.3365   97.4245 N.am      2 SEC2        0.0000 
     11 N          69.9320  -48.8540   97.0690 N.am      8 SEL2        0.0000 
     12 N          72.6290  -49.8190   97.7800 N.am      5 SEP2        0.0000 
     13 CA         69.8635  -44.2520   97.5730 C.3       3 GLC5        0.0000 
     14 CA         68.3870  -45.8100   98.1390 C.3       9 GLL5        0.0000 
     15 CA         71.3400  -42.6940   97.0070 C.3       6 GLP5        0.0000 
     16 CA         70.1145  -46.2160   99.2245 C.3       3 GLC5        0.0000 
     17 CA         71.8420  -46.6220  100.3100 C.3       6 GLP5        0.0000 
     18 CA         68.3605  -41.5120   99.2710 C.3       3 GLC5        0.0000 
     19 CA         67.1630  -42.6180   98.1600 C.3       9 GLL5        0.0000 
     20 CA         69.5580  -40.4060  100.3820 C.3       6 GLP5        0.0000 
     21 CA         69.2515  -42.6560   97.5835 C.3       3 GLC5        0.0000 
     22 N          67.0330  -40.2795   99.4780 N.am      2 SEC2        0.0000 
     23 N          65.9040  -40.0670   98.3390 N.am      8 SEL2        0.0000 
     24 N          68.1620  -40.4920  100.6170 N.am      5 SEP2        0.0000 
     25 N          64.6710  -39.9260   98.7130 N.am      2 SEC2        0.0000 
     26 N          63.4380  -39.7850   99.0870 N.am      5 SEP2        0.0000 
     27 N          65.0130  -40.8285   95.3140 N.am      2 SEC2        0.0000 
     28 N          65.6800  -41.4870   96.1730 N.am      8 SEL2        0.0000 
     29 N          64.3460  -40.1700   94.4550 N.am      5 SEP2        0.0000 
     30 N          68.6875  -39.3790   97.8875 N.am      2 SEC2        0.0000 
     31 N          67.9010  -40.3590   96.8160 N.am      8 SEL2        0.0000 
     32 N          69.4740  -38.3990   98.9590 N.am      5 SEP2        0.0000 
     33 N          69.1030  -40.9295   95.9765 N.am      2 SEC2        0.0000 
     34 N          70.3050  -41.5000   95.1370 N.am      5 SEP2        0.0000 
     35 CA         64.5185  -45.6125   99.0405 C.3       3 GLC5        0.0000 
     36 CA         66.4030  -44.6900   98.9360 C.3       9 GLL5        0.0000 
     37 CA         62.6340  -46.5350   99.1450 C.3       6 GLP5        0.0000 
     38 CA         67.0230  -47.4785  101.5705 C.3       3 GLC5        0.0000 
     39 CA         66.6500  -45.5160  101.3500 C.3       9 GLL5        0.0000 
     40 CA         67.3960  -49.4410  101.7910 C.3       6 GLP5        0.0000 
     41 O          68.1590  -45.2140  103.4030 O.2       1 ALC1        0.0000 
     42 O          67.6290  -46.0420  102.2500 O.2       7 ALL1        0.0000 
     43 O          68.6890  -44.3860  104.5560 O.2       4 ALP1        0.0000 
@<TRIPOS>BOND
@<TRIPOS>SUBSTRUCTURE
     1 ALC1        1 GROUP        1 X    ALC  0     ROOT ALC X 1
     2 SEC2       10 GROUP        1 X    SEC  0     **** SEC X 2
     3 GLC5        7 GROUP        1 X    GLC  0     **** GLC X 6
     4 ALP1        3 GROUP        1 Y    ALP  0     ROOT ALP Y 8
     5 SEP2       12 GROUP        1 Y    SEP  0     **** SEP Y 9
     6 GLP5        9 GROUP        1 Y    GLP  0     **** GLP Y 13
     7 ALL1        2 GROUP        1 Z    ALL  0     ROOT ALL Z 15
     8 SEL2       11 GROUP        1 Z    SEL  0     **** SEL Z 16
     9 GLL5        8 GROUP        1 Z    GLL  0     **** GLL Z 20
@<TRIPOS>SET

