#    Name: 2ai3_P2G_2_ligand
#    Modification time : Mon Mar 24 19:20:42 2014

@<TRIPOS>MOLECULE
2ai3_P2G_2_ligand
   37    40     1     0     0
SMALL
NO_CHARGES


@<TRIPOS>ATOM
      1 O6         68.6130  -51.4110   96.2550 O.2       1 P2G293      0.0000 
      2 C6         68.0080  -50.3530   96.4240 C.2       1 P2G293      0.0000 
      3 N1         66.6150  -50.3310   96.2080 N.am      1 P2G293      0.0000 
      4 C2         65.8650  -49.1570   96.4180 C.2       1 P2G293      0.0000 
      5 N2         64.5760  -49.1170   96.1050 N.pl3     1 P2G293      0.0000 
      6 N3         66.5390  -48.0690   96.8490 N.2       1 P2G293      0.0000 
      7 C4         67.8740  -48.0610   97.0570 C.2       1 P2G293      0.0000 
      8 C5         68.6670  -49.1950   96.8450 C.2       1 P2G293      0.0000 
      9 N7         69.9320  -48.8540   97.0690 N.2       1 P2G293      0.0000 
     10 C8         69.9360  -47.5670   97.4090 C.2       1 P2G293      0.0000 
     11 N9         68.6970  -47.0770   97.4280 N.pl3     1 P2G293      0.0000 
     12 C1'        68.3870  -45.8100   98.1390 C.3       1 P2G293      0.0000 
     13 O4'        68.0770  -46.2050   99.4870 O.3       1 P2G293      0.0000 
     14 C2'        67.2320  -44.9170   97.6850 C.3       1 P2G293      0.0000 
     15 O2'        67.6080  -43.6100   97.2090 O.3       1 P2G293      0.0000 
     16 C1         67.1630  -42.6180   98.1600 C.3       1 P2G293      0.0000 
     17 P          66.6930  -41.0430   97.3390 P.3       1 P2G293      0.0000 
     18 O3         65.9040  -40.0670   98.3390 O.co2     1 P2G293      0.0000 
     19 O4         65.6800  -41.4870   96.1730 O.co2     1 P2G293      0.0000 
     20 O2         67.9010  -40.3590   96.8160 O.co2     1 P2G293      0.0000 
     21 O3'        66.0780  -43.2890   98.8290 O.3       1 P2G293      0.0000 
     22 C3'        66.4030  -44.6900   98.9360 C.3       1 P2G293      0.0000 
     23 C4'        67.3550  -45.1030  100.0550 C.3       1 P2G293      0.0000 
     24 C5'        66.6500  -45.5160  101.3500 C.3       1 P2G293      0.0000 
     25 O5'        67.6290  -46.0420  102.2500 O.3       1 P2G293      0.0000 
     26 H          66.1384  -51.1871   95.8916 H         1 P2G293      0.0000 
     27 H          64.1787  -49.9700   95.7664 H         1 P2G293      0.0000 
     28 H          64.1185  -48.2375   96.2360 H         1 P2G293      0.0000 
     29 H          70.7480  -47.0446   97.6191 H         1 P2G293      0.0000 
     30 H          69.2965  -45.1922   98.1911 H         1 P2G293      0.0000 
     31 H          66.6235  -45.4500   96.9938 H         1 P2G293      0.0000 
     32 H          67.9404  -42.3222   98.8214 H         1 P2G293      0.0000 
     33 H          65.5788  -45.3245   98.8855 H         1 P2G293      0.0000 
     34 H          68.0210  -44.2833  100.2451 H         1 P2G293      0.0000 
     35 H          65.8914  -46.2564  101.0956 H         1 P2G293      0.0000 
     36 H          66.1553  -44.6338  101.7568 H         1 P2G293      0.0000 
     37 H          67.9944  -45.2443  102.7298 H         1 P2G293      0.0000 
@<TRIPOS>BOND
     1    2    1 2    
     2    3    2 am   
     3    8    2 1    
     4    4    3 1    
     5   26    3 1    
     6    5    4 1    
     7    6    4 2    
     8   27    5 1    
     9   28    5 1    
    10    7    6 1    
    11    8    7 2    
    12   11    7 1    
    13    9    8 1    
    14   10    9 2    
    15   11   10 1    
    16   29   10 1    
    17   12   11 1    
    18   13   12 1    
    19   14   12 1    
    20   30   12 1    
    21   23   13 1    
    22   15   14 1    
    23   22   14 1    
    24   31   14 1    
    25   16   15 1    
    26   17   16 1    
    27   21   16 1    
    28   32   16 1    
    29   18   17 ar   
    30   19   17 ar   
    31   20   17 ar   
    32   22   21 1    
    33   23   22 1    
    34   33   22 1    
    35   24   23 1    
    36   34   23 1    
    37   25   24 1    
    38   35   24 1    
    39   36   24 1    
    40   37   25 1    
@<TRIPOS>SUBSTRUCTURE
     1 P2G293      1 GROUP   
@<TRIPOS>SET

