#    Name: 2bhe_BRY_1_INTS_M
#    Modification time : Mon Mar 24 20:58:28 2014

@<TRIPOS>MOLECULE
2bhe_BRY_1_INTS_M
   48     0     9     0     0
SMALL
NO_CHARGES


@<TRIPOS>ATOM
      1 CA         24.6650    7.7385    6.0135 C.3       3 GLC5        0.0000 
      2 CA         23.1420    7.5900    7.4370 C.3       9 GLL5        0.0000 
      3 CA         26.1880    7.8870    4.5900 C.3       6 GLP5        0.0000 
      4 O          22.7955    5.4225    6.6495 O.2       1 ALC1        0.0000 
      5 O          23.7920    6.3500    7.3510 O.2       7 ALL1        0.0000 
      6 O          21.7990    4.4950    5.9480 O.2       4 ALP1        0.0000 
      7 CA         20.6210    6.4175    5.8815 C.3       3 GLC5        0.0000 
      8 CA         21.8820    7.9210    6.8340 C.3       9 GLL5        0.0000 
      9 CA         19.3600    4.9140    4.9290 C.3       6 GLP5        0.0000 
     10 CA         23.8645    5.9080    9.4820 C.3       3 GLC5        0.0000 
     11 CA         24.9960    6.4190    8.0720 C.3       9 GLL5        0.0000 
     12 CA         22.7330    5.3970   10.8920 C.3       6 GLP5        0.0000 
     13 O          26.7630    1.8975    7.2785 O.2       1 ALC1        0.0000 
     14 O          26.5940    3.2470    7.8890 O.2       7 ALL1        0.0000 
     15 O          26.9320    0.5480    6.6680 O.2       4 ALP1        0.0000 
     16 N          23.7870    2.9450    6.3570 N.am      2 SEC2        0.0000 
     17 N          24.5650    3.7780    6.8700 N.am      8 SEL2        0.0000 
     18 N          23.0090    2.1120    5.8440 N.am      5 SEP2        0.0000 
     19 CA         30.6890    7.8635    9.9290 C.3       3 GLC5        0.0000 
     20 CA         30.2820    6.6250   11.1640 C.3       9 GLL5        0.0000 
     21 CA         31.0960    9.1020    8.6940 C.3       6 GLP5        0.0000 
     22 CA         32.1195    6.6915   10.8655 C.3       3 GLC5        0.0000 
     23 CA         33.9570    6.7580   10.5670 C.3       6 GLP5        0.0000 
     24 CA         23.1163    6.7257    9.3495 C.3       3 GLC5        0.0000 
     25 CA         23.8570    8.5190    8.1770 C.3       9 GLL5        0.0000 
     26 CA         20.0008    7.6585    7.5075 C.3       3 GLC5        0.0000 
     27 CA         18.3410    6.7330    8.0820 C.3       6 GLP5        0.0000 
     28 CA         24.1774    9.9821    6.5137 C.3       3 GLC5        0.0000 
     29 CA         22.1900   10.1710    7.7960 C.3       9 GLL5        0.0000 
     30 CA         25.4370   10.2940    4.9920 C.3       6 GLP5        0.0000 
     31 CA         25.8000    6.9012    6.3565 C.3       3 GLC5        0.0000 
     32 CA         27.4593    4.7178    6.9417 C.3       3 GLC5        0.0000 
     33 CA         25.8280    5.4120    8.1740 C.3       9 GLL5        0.0000 
     34 CA         28.4310    4.1010    5.3530 C.3       6 GLP5        0.0000 
     35 CA         28.2785    3.8805    7.1288 C.3       3 GLC5        0.0000 
     36 CA         27.5640    3.9300    8.6440 C.3       9 GLL5        0.0000 
     37 CA         27.7095    1.7590    9.5027 C.3       3 GLC5        0.0000 
     38 CA         27.2930   -0.1420   10.1010 C.3       6 GLP5        0.0000 
     39 CA         25.6004    4.0246    9.4776 C.3       3 GLC5        0.0000 
     40 CA         24.1750    3.4170   10.3680 C.3       6 GLP5        0.0000 
     41 CA         29.5263    2.4393    8.5164 C.3       3 GLC5        0.0000 
     42 CA         29.5170    4.2150    9.9410 C.3       9 GLL5        0.0000 
     43 CA         30.2310    0.9410    7.6100 C.3       6 GLP5        0.0000 
     44 CA         29.1421    6.6954    8.3358 C.3       3 GLC5        0.0000 
     45 CA         29.1610    5.5580   10.1660 C.3       9 GLL5        0.0000 
     46 CA         29.9280    7.7710    6.9500 C.3       6 GLP5        0.0000 
     47 CA         29.9078    5.7607   12.5850 C.3       3 GLC5        0.0000 
     48 CA         30.0940    5.4300   14.5050 C.3       6 GLP5        0.0000 
@<TRIPOS>BOND
@<TRIPOS>SUBSTRUCTURE
     1 ALC1        4 GROUP        1 X    ALC  0     ROOT ALC X 1
     2 SEC2       16 GROUP        1 X    SEC  0     **** SEC X 2
     3 GLC5        1 GROUP        1 X    GLC  0     **** GLC X 6
     4 ALP1        6 GROUP        1 Y    ALP  0     ROOT ALP Y 8
     5 SEP2       18 GROUP        1 Y    SEP  0     **** SEP Y 9
     6 GLP5        3 GROUP        1 Y    GLP  0     **** GLP Y 13
     7 ALL1        5 GROUP        1 Z    ALL  0     ROOT ALL Z 15
     8 SEL2       17 GROUP        1 Z    SEL  0     **** SEL Z 16
     9 GLL5        2 GROUP        1 Z    GLL  0     **** GLL Z 20
@<TRIPOS>SET

