#    Name: 2bhe_BRY_1_ligand
#    Modification time : Mon Mar 24 20:58:28 2014

@<TRIPOS>MOLECULE
2bhe_BRY_1_ligand
   30    33     1     0     0
SMALL
NO_CHARGES


@<TRIPOS>ATOM
      1 C1         23.8570    8.5190    8.1770 C.ar      1 BRY1299     0.0000 
      2 C2         25.0860    7.8340    8.6340 C.2       1 BRY1299     0.0000 
      3 C3         23.1420    7.5900    7.4370 C.ar      1 BRY1299     0.0000 
      4 N4         23.7920    6.3500    7.3510 N.pl3     1 BRY1299     0.0000 
      5 C5         21.8820    7.9210    6.8340 C.ar      1 BRY1299     0.0000 
      6 C7         21.4390    9.2470    7.0320 C.ar      1 BRY1299     0.0000 
      7 C9         22.1900   10.1710    7.7960 C.ar      1 BRY1299     0.0000 
      8 C11        23.4340    9.8200    8.3730 C.ar      1 BRY1299     0.0000 
      9 C13        24.9960    6.4190    8.0720 C.2       1 BRY1299     0.0000 
     10 C14        25.8280    5.4120    8.1740 C.2       1 BRY1299     0.0000 
     11 C15        25.6010    4.1160    7.4880 C.2       1 BRY1299     0.0000 
     12 N16        26.5940    3.2470    7.8890 N.am      1 BRY1299     0.0000 
     13 C17        27.5640    3.9300    8.6440 C.ar      1 BRY1299     0.0000 
     14 C18        27.1470    5.2570    8.8870 C.ar      1 BRY1299     0.0000 
     15 C19        28.6880    3.3900    9.1650 C.ar      1 BRY1299     0.0000 
     16 C20        29.5170    4.2150    9.9410 C.ar      1 BRY1299     0.0000 
     17 C21        29.1610    5.5580   10.1660 C.ar      1 BRY1299     0.0000 
     18 C22        27.9560    6.1060    9.6670 C.ar      1 BRY1299     0.0000 
     19 O23        24.5650    3.7780    6.8700 O.2       1 BRY1299     0.0000 
     20 O1         25.9790    8.2830    9.3220 O.2       1 BRY1299     0.0000 
     21 BR1        30.2820    6.6250   11.1640 Br        1 BRY1299     0.0000 
     22 H          23.4730    5.5904    6.8842 H         1 BRY1299     0.0000 
     23 H          21.3676    7.2568    6.3169 H         1 BRY1299     0.0000 
     24 H          20.5477    9.5500    6.6105 H         1 BRY1299     0.0000 
     25 H          21.8220   11.1248    7.9363 H         1 BRY1299     0.0000 
     26 H          23.9663   10.4896    8.8920 H         1 BRY1299     0.0000 
     27 H          26.6313    2.3075    7.6890 H         1 BRY1299     0.0000 
     28 H          28.9474    2.4162    9.0133 H         1 BRY1299     0.0000 
     29 H          30.3804    3.8418   10.3438 H         1 BRY1299     0.0000 
     30 H          27.6941    7.0503    9.8603 H         1 BRY1299     0.0000 
@<TRIPOS>BOND
     1    2    1 1    
     2    3    1 ar   
     3    8    1 ar   
     4    9    2 1    
     5   20    2 2    
     6    4    3 1    
     7    5    3 ar   
     8    9    4 1    
     9   22    4 1    
    10    6    5 ar   
    11   23    5 1    
    12    7    6 ar   
    13   24    6 1    
    14    8    7 ar   
    15   25    7 1    
    16   26    8 1    
    17   10    9 2    
    18   11   10 1    
    19   14   10 1    
    20   12   11 am   
    21   19   11 2    
    22   13   12 1    
    23   27   12 1    
    24   14   13 ar   
    25   15   13 ar   
    26   18   14 ar   
    27   16   15 ar   
    28   28   15 1    
    29   17   16 ar   
    30   29   16 1    
    31   18   17 ar   
    32   21   17 1    
    33   30   18 1    
@<TRIPOS>SUBSTRUCTURE
     1 BRY1299     1 GROUP   
@<TRIPOS>SET

