#    Name: 1u0y_PA7_1_INTS_M
#    Modification time : Tue Mar 25 05:53:06 2014

@<TRIPOS>MOLECULE
1u0y_PA7_1_INTS_M
   45     0     9     0     0
SMALL
NO_CHARGES


@<TRIPOS>ATOM
      1 CA         29.0710   12.4020   20.3015 C.3       3 GLC5        0.0000 
      2 CA         26.9600   12.6140   20.7220 C.3       9 GLL5        0.0000 
      3 CA         31.1820   12.1900   19.8810 C.3       6 GLP5        0.0000 
      4 CA         26.7570    8.8665   19.1925 C.3       3 GLC5        0.0000 
      5 CA         26.9560   10.1710   20.4520 C.3       9 GLL5        0.0000 
      6 CA         26.5580    7.5620   17.9330 C.3       6 GLP5        0.0000 
      7 CA         23.3675   14.8995   22.2230 C.3       3 GLC5        0.0000 
      8 CA         25.3600   15.3660   21.6430 C.3       9 GLL5        0.0000 
      9 CA         21.3750   14.4330   22.8030 C.3       6 GLP5        0.0000 
     10 CA         25.3615   14.8465   23.7240 C.3       3 GLC5        0.0000 
     11 CA         25.3630   14.3270   25.8050 C.3       6 GLP5        0.0000 
     12 N          21.8990   16.6700   20.8920 N.am      2 SEC2        0.0000 
     13 N          23.1890   17.1260   20.4340 N.am      8 SEL2        0.0000 
     14 N          20.6090   16.2140   21.3500 N.am      5 SEP2        0.0000 
     15 CA         23.3340   17.8360   23.9720 C.3       3 GLC5        0.0000 
     16 CA         24.3980   17.3090   22.6020 C.3       9 GLL5        0.0000 
     17 CA         22.2700   18.3630   25.3420 C.3       6 GLP5        0.0000 
     18 CA         22.8865   15.8710   22.7025 C.3       3 GLC5        0.0000 
     19 CA         24.8805   15.8180   24.2035 C.3       3 GLC5        0.0000 
     20 CA         28.2495   20.0410   23.1925 C.3       3 GLC5        0.0000 
     21 CA         26.2770   20.0800   24.0270 C.3       9 GLL5        0.0000 
     22 CA         30.2220   20.0020   22.3580 C.3       6 GLP5        0.0000 
     23 CA         26.0835   23.0230   22.9560 C.3       3 GLC5        0.0000 
     24 CA         26.3090   21.4970   24.2450 C.3       9 GLL5        0.0000 
     25 CA         25.8580   24.5490   21.6670 C.3       6 GLP5        0.0000 
     26 CA         25.7045   22.5430   26.0080 C.3       3 GLC5        0.0000 
     27 CA         25.1000   23.5890   27.7710 C.3       6 GLP5        0.0000 
     28 O          27.5430   23.5130   25.2420 O.2       1 ALC1        0.0000 
     29 O          27.3070   22.1020   24.9020 O.2       7 ALL1        0.0000 
     30 O          27.7790   24.9240   25.5820 O.2       4 ALP1        0.0000 
     31 CA         25.0555   23.1095   22.3860 C.3       3 GLC5        0.0000 
     32 CA         24.2530   21.6700   23.1050 C.3       9 GLL5        0.0000 
     33 CA         22.9290   23.0120   22.0185 C.3       3 GLC5        0.0000 
     34 CA         21.6050   24.3540   20.9320 C.3       6 GLP5        0.0000 
     35 CA         22.7175   20.7130   23.9850 C.3       3 GLC5        0.0000 
     36 CA         21.1820   19.7560   24.8650 C.3       6 GLP5        0.0000 
     37 CA         27.6962    8.8812   21.0398 C.3       3 GLC5        0.0000 
     38 CA         27.7490   11.3540   20.9970 C.3       9 GLL5        0.0000 
     39 CA         28.0400    7.0000   21.3550 C.3       6 GLP5        0.0000 
     40 CA         28.7272   10.6077   19.5688 C.3       3 GLC5        0.0000 
     41 CA         30.1020   10.4530   18.4130 C.3       6 GLP5        0.0000 
     42 CA         28.0222   10.1753   22.2282 C.3       3 GLC5        0.0000 
     43 CA         28.6920    9.5880   23.7320 C.3       6 GLP5        0.0000 
     44 CA         24.5935   19.7134   25.0295 C.3       3 GLC5        0.0000 
     45 CA         23.4550   19.2300   26.3280 C.3       6 GLP5        0.0000 
@<TRIPOS>BOND
@<TRIPOS>SUBSTRUCTURE
     1 ALC1       28 GROUP        1 X    ALC  0     ROOT ALC X 1
     2 SEC2       12 GROUP        1 X    SEC  0     **** SEC X 2
     3 GLC5        1 GROUP        1 X    GLC  0     **** GLC X 6
     4 ALP1       30 GROUP        1 Y    ALP  0     ROOT ALP Y 8
     5 SEP2       14 GROUP        1 Y    SEP  0     **** SEP Y 9
     6 GLP5        3 GROUP        1 Y    GLP  0     **** GLP Y 13
     7 ALL1       29 GROUP        1 Z    ALL  0     ROOT ALL Z 15
     8 SEL2       13 GROUP        1 Z    SEL  0     **** SEL Z 16
     9 GLL5        2 GROUP        1 Z    GLL  0     **** GLL Z 20
@<TRIPOS>SET

