#    Name: 1u0y_PA7_1_ligand
#    Modification time : Tue Mar 25 05:53:06 2014

@<TRIPOS>MOLECULE
1u0y_PA7_1_ligand
   41    43     1     0     0
SMALL
NO_CHARGES


@<TRIPOS>ATOM
      1 C5'        26.6380   14.6810   22.0110 C.2       1 PA7338      0.0000 
      2 O5'        27.7790   15.4080   22.3970 O.2       1 PA7338      0.0000 
      3 N5'        26.6660   13.2550   21.9770 N.am      1 PA7338      0.0000 
      4 C51        26.9600   12.6140   20.7220 C.3       1 PA7338      0.0000 
      5 C52        27.7490   11.3540   20.9970 C.3       1 PA7338      0.0000 
      6 C53        26.9560   10.1710   20.4520 C.3       1 PA7338      0.0000 
      7 C4'        25.3600   15.3660   21.6430 C.3       1 PA7338      0.0000 
      8 O4'        24.7330   15.9370   22.7780 O.3       1 PA7338      0.0000 
      9 C3'        25.5080   16.4900   20.6260 C.3       1 PA7338      0.0000 
     10 O3'        25.4210   16.0580   19.2870 O.3       1 PA7338      0.0000 
     11 C2'        24.4230   17.4670   21.0610 C.3       1 PA7338      0.0000 
     12 O2'        23.1890   17.1260   20.4340 O.3       1 PA7338      0.0000 
     13 C1'        24.3980   17.3090   22.6020 C.3       1 PA7338      0.0000 
     14 N9         25.3600   18.2440   23.2480 N.pl3     1 PA7338      0.0000 
     15 C8         26.5500   17.9600   23.9020 C.2       1 PA7338      0.0000 
     16 N7         27.1370   19.0360   24.3740 N.2       1 PA7338      0.0000 
     17 C5         26.2770   20.0800   24.0270 C.ar      1 PA7338      0.0000 
     18 C6         26.3090   21.4970   24.2450 C.ar      1 PA7338      0.0000 
     19 N6         27.3070   22.1020   24.9020 N.pl3     1 PA7338      0.0000 
     20 N1         25.2700   22.2640   23.7690 N.ar      1 PA7338      0.0000 
     21 C2         24.2530   21.6700   23.1050 C.ar      1 PA7338      0.0000 
     22 N3         24.1100   20.3580   22.8330 N.ar      1 PA7338      0.0000 
     23 C4         25.1710   19.6050   23.3260 C.ar      1 PA7338      0.0000 
     24 H          26.4875   12.7116   22.7972 H         1 PA7338      0.0000 
     25 H          27.5561   13.2604   20.0751 H         1 PA7338      0.0000 
     26 H          26.0462   12.3403   20.1914 H         1 PA7338      0.0000 
     27 H          27.8867   11.2323   22.0606 H         1 PA7338      0.0000 
     28 H          28.7049   11.4037   20.4982 H         1 PA7338      0.0000 
     29 H          24.6776   14.6241   21.1944 H         1 PA7338      0.0000 
     30 H          26.4638   16.9760   20.8568 H         1 PA7338      0.0000 
     31 H          24.7646   18.4496   20.8390 H         1 PA7338      0.0000 
     32 H          23.3939   17.5050   22.9123 H         1 PA7338      0.0000 
     33 H          26.8883   17.0297   23.9835 H         1 PA7338      0.0000 
     34 H          28.0431   21.5085   25.2274 H         1 PA7338      0.0000 
     35 H          27.2267   23.0931   25.0083 H         1 PA7338      0.0000 
     36 H          23.4579   22.3299   22.7494 H         1 PA7338      0.0000 
     37 H          26.8025   10.2490   19.4669 H         1 PA7338      0.0000 
     38 H          27.4290    9.3037   20.6072 H         1 PA7338      0.0000 
     39 H          26.0571   10.0960   20.8837 H         1 PA7338      0.0000 
     40 H          26.1603   16.5358   18.8125 H         1 PA7338      0.0000 
     41 H          23.4170   16.3887   19.7981 H         1 PA7338      0.0000 
@<TRIPOS>BOND
     1    2    1 2    
     2    3    1 am   
     3    7    1 1    
     4    4    3 1    
     5   24    3 1    
     6    5    4 1    
     7   25    4 1    
     8   26    4 1    
     9    6    5 1    
    10   27    5 1    
    11   28    5 1    
    12   37    6 1    
    13   38    6 1    
    14   39    6 1    
    15    8    7 1    
    16    9    7 1    
    17   29    7 1    
    18   13    8 1    
    19   10    9 1    
    20   11    9 1    
    21   30    9 1    
    22   40   10 1    
    23   12   11 1    
    24   13   11 1    
    25   31   11 1    
    26   41   12 1    
    27   14   13 1    
    28   32   13 1    
    29   15   14 1    
    30   23   14 1    
    31   16   15 2    
    32   33   15 1    
    33   17   16 1    
    34   18   17 ar   
    35   23   17 ar   
    36   19   18 1    
    37   20   18 ar   
    38   34   19 1    
    39   35   19 1    
    40   21   20 ar   
    41   22   21 ar   
    42   36   21 1    
    43   23   22 ar   
@<TRIPOS>SUBSTRUCTURE
     1 PA7338      1 GROUP   
@<TRIPOS>SET

