#    Name: 4em9_TCE_1_INTS_M
#    Modification time : Mon Mar 24 18:16:07 2014

@<TRIPOS>MOLECULE
4em9_TCE_1_INTS_M
   37     0     6     0     0
SMALL
NO_CHARGES


@<TRIPOS>ATOM
      1 N          45.1295  -21.0980   45.2855 N.am      1 SEC2        0.0000 
      2 N          44.4070  -20.2970   46.5240 N.am      5 SEL2        0.0000 
      3 N          45.8520  -21.8990   44.0470 N.am      3 SEP2        0.0000 
      4 CA         43.0475  -18.8775   44.5825 C.3       2 GLC5        0.0000 
      5 CA         42.6660  -20.7880   44.9860 C.3       6 GLL5        0.0000 
      6 CA         43.4290  -16.9670   44.1790 C.3       4 GLP5        0.0000 
      7 CA         43.1615  -20.8660   43.0600 C.3       2 GLC5        0.0000 
      8 CA         43.6570  -20.9440   41.1340 C.3       4 GLP5        0.0000 
      9 CA         39.9665  -22.1340   46.4105 C.3       2 GLC5        0.0000 
     10 CA         41.1510  -21.0500   45.1100 C.3       6 GLL5        0.0000 
     11 CA         38.7820  -23.2180   47.7110 C.3       4 GLP5        0.0000 
     12 CA         40.2585  -20.1135   46.5420 C.3       2 GLC5        0.0000 
     13 CA         39.3660  -19.1770   47.9740 C.3       4 GLP5        0.0000 
     14 CA         39.8085  -20.6235   41.0725 C.3       2 GLC5        0.0000 
     15 CA         39.0420  -21.3450   42.9170 C.3       6 GLL5        0.0000 
     16 CA         40.5750  -19.9020   39.2280 C.3       4 GLP5        0.0000 
     17 CA         37.7660  -21.9250   44.3075 C.3       2 GLC5        0.0000 
     18 CA         36.4900  -22.5050   45.6980 C.3       4 GLP5        0.0000 
     19 CA         40.0625  -18.1390   43.8875 C.3       2 GLC5        0.0000 
     20 CA         39.1000  -19.8240   43.0600 C.3       6 GLL5        0.0000 
     21 CA         41.0250  -16.4540   44.7150 C.3       4 GLP5        0.0000 
     22 CA         39.4585  -19.2025   41.1540 C.3       2 GLC5        0.0000 
     23 CA         39.8170  -18.5810   39.2480 C.3       4 GLP5        0.0000 
     24 CA         41.2635  -24.2535   45.7235 C.3       2 GLC5        0.0000 
     25 CA         40.1980  -23.8550   44.2590 C.3       6 GLL5        0.0000 
     26 CA         42.3290  -24.6520   47.1880 C.3       4 GLP5        0.0000 
     27 CA         39.7315  -24.6525   40.8320 C.3       2 GLC5        0.0000 
     28 CA         40.0210  -24.7980   43.0360 C.3       6 GLL5        0.0000 
     29 CA         39.4420  -24.5070   38.6280 C.3       4 GLP5        0.0000 
     30 N          37.9345  -26.0630   43.5025 N.am      1 SEC2        0.0000 
     31 N          37.9220  -25.5450   42.1930 N.am      5 SEL2        0.0000 
     32 N          37.9470  -26.5810   44.8120 N.am      3 SEP2        0.0000 
     33 CA         42.1188  -22.7855   46.1180 C.3       2 GLC5        0.0000 
     34 CA         38.6352  -24.0957   44.7463 C.3       2 GLC5        0.0000 
     35 CA         37.1610  -23.8650   45.8450 C.3       4 GLP5        0.0000 
     36 CA         39.4428  -26.0492   44.3028 C.3       2 GLC5        0.0000 
     37 CA         38.7760  -27.7720   44.9580 C.3       4 GLP5        0.0000 
@<TRIPOS>BOND
@<TRIPOS>SUBSTRUCTURE
     1 SEC2        1 GROUP        1 X    SEC  0     ROOT SEC X 2
     2 GLC5        4 GROUP        1 X    GLC  0     **** GLC X 6
     3 SEP2        3 GROUP        1 Y    SEP  0     ROOT SEP Y 9
     4 GLP5        6 GROUP        1 Y    GLP  0     **** GLP Y 13
     5 SEL2        2 GROUP        1 Z    SEL  0     ROOT SEL Z 16
     6 GLL5        5 GROUP        1 Z    GLL  0     **** GLL Z 20
@<TRIPOS>SET

