#    Name: 4em9_TCE_1_ligand
#    Modification time : Mon Mar 24 18:16:07 2014

@<TRIPOS>MOLECULE
4em9_TCE_1_ligand
   28    27     1     0     0
SMALL
NO_CHARGES


@<TRIPOS>ATOM
      1 O16        44.4070  -20.2970   46.5240 O.co2     1 TCE502      0.0000 
      2 C14        43.3020  -20.7300   46.3890 C.2       1 TCE502      0.0000 
      3 O15        42.6890  -21.4220   47.4480 O.co2     1 TCE502      0.0000 
      4 C5         42.6660  -20.7880   44.9860 C.3       1 TCE502      0.0000 
      5 C2         41.1510  -21.0500   45.1100 C.3       1 TCE502      0.0000 
      6 P          40.5800  -22.1030   43.6610 P.3       1 TCE502      0.0000 
      7 C3         39.0420  -21.3450   42.9170 C.3       1 TCE502      0.0000 
      8 C6         39.1000  -19.8240   43.0600 C.3       1 TCE502      0.0000 
      9 C8         38.2180  -19.1750   41.9840 C.2       1 TCE502      0.0000 
     10 O10        37.0800  -19.5000   41.8680 O.co2     1 TCE502      0.0000 
     11 O9         38.7840  -18.2710   41.0770 O.co2     1 TCE502      0.0000 
     12 C1         40.1980  -23.8550   44.2590 C.3       1 TCE502      0.0000 
     13 C4         40.0210  -24.7980   43.0360 C.3       1 TCE502      0.0000 
     14 C11        38.6120  -24.6010   42.4290 C.2       1 TCE502      0.0000 
     15 O12        37.9220  -25.5450   42.1930 O.co2     1 TCE502      0.0000 
     16 O13        38.1780  -23.3050   42.0800 O.co2     1 TCE502      0.0000 
     17 H          43.1209  -21.5897   44.4210 H         1 TCE502      0.0000 
     18 H          42.8241  -19.8439   44.4833 H         1 TCE502      0.0000 
     19 H          40.5509  -20.1940   44.9868 H         1 TCE502      0.0000 
     20 H          40.8814  -21.6617   45.9231 H         1 TCE502      0.0000 
     21 H          38.2873  -21.8106   43.4907 H         1 TCE502      0.0000 
     22 H          39.1034  -21.6943   41.9221 H         1 TCE502      0.0000 
     23 H          40.1209  -19.4883   42.9341 H         1 TCE502      0.0000 
     24 H          38.7361  -19.5393   44.0385 H         1 TCE502      0.0000 
     25 H          39.3166  -23.6919   44.8087 H         1 TCE502      0.0000 
     26 H          41.0499  -24.0588   44.8408 H         1 TCE502      0.0000 
     27 H          40.1300  -25.8204   43.3614 H         1 TCE502      0.0000 
     28 H          40.7663  -24.5565   42.2948 H         1 TCE502      0.0000 
@<TRIPOS>BOND
     1    2    1 ar   
     2    3    2 ar   
     3    4    2 1    
     4    5    4 1    
     5   17    4 1    
     6   18    4 1    
     7    6    5 1    
     8   19    5 1    
     9   20    5 1    
    10    7    6 1    
    11   12    6 1    
    12    8    7 1    
    13   21    7 1    
    14   22    7 1    
    15    9    8 1    
    16   23    8 1    
    17   24    8 1    
    18   10    9 ar   
    19   11    9 ar   
    20   13   12 1    
    21   25   12 1    
    22   26   12 1    
    23   14   13 1    
    24   27   13 1    
    25   28   13 1    
    26   15   14 ar   
    27   16   14 ar   
@<TRIPOS>SUBSTRUCTURE
     1 TCE502      1 GROUP   
@<TRIPOS>SET

