#    Name: 3dh7_FMN_2_INTS_M
#    Modification time : Mon Mar 24 23:22:05 2014

@<TRIPOS>MOLECULE
3dh7_FMN_2_INTS_M
   65     0     9     0     0
SMALL
NO_CHARGES


@<TRIPOS>ATOM
      1 N          50.2520  -42.7560  -39.6795 N.am      2 SEC2        0.0000 
      2 N          51.0570  -43.8800  -39.4050 N.am      8 SEL2        0.0000 
      3 N          49.4470  -41.6320  -39.9540 N.am      5 SEP2        0.0000 
      4 O          51.9275  -45.3875  -41.0420 O.2       1 ALC1        0.0000 
      5 O          50.8930  -46.0030  -39.9260 O.2       7 ALL1        0.0000 
      6 O          52.9620  -44.7720  -42.1580 O.2       4 ALP1        0.0000 
      7 N          51.4895  -48.2560  -42.0095 N.am      2 SEC2        0.0000 
      8 N          50.7350  -48.1850  -40.4950 N.am      8 SEL2        0.0000 
      9 N          52.2440  -48.3270  -43.5240 N.am      5 SEP2        0.0000 
     10 CA         43.9480  -52.4310  -40.0080 C.3       3 GLC5        0.0000 
     11 CA         44.4000  -50.8280  -39.0760 C.3       9 GLL5        0.0000 
     12 CA         43.4960  -54.0340  -40.9400 C.3       6 GLP5        0.0000 
     13 CA         45.3455  -50.2095  -37.2300 C.3       3 GLC5        0.0000 
     14 CA         46.2910  -49.5910  -35.3840 C.3       6 GLP5        0.0000 
     15 CA         42.5090  -50.9445  -39.3005 C.3       3 GLC5        0.0000 
     16 CA         40.6180  -51.0610  -39.5250 C.3       6 GLP5        0.0000 
     17 CA         44.3870  -48.3305  -36.7870 C.3       3 GLC5        0.0000 
     18 CA         42.9880  -48.2990  -37.9090 C.3       9 GLL5        0.0000 
     19 CA         45.7860  -48.3620  -35.6650 C.3       6 GLP5        0.0000 
     20 CA         41.4085  -47.3610  -37.4985 C.3       3 GLC5        0.0000 
     21 CA         39.8290  -46.4230  -37.0880 C.3       6 GLP5        0.0000 
     22 CA         41.8030  -49.6800  -38.7170 C.3       3 GLC5        0.0000 
     23 CA         46.2105  -46.0150  -36.4145 C.3       3 GLC5        0.0000 
     24 CA         46.2410  -44.7370  -37.9800 C.3       9 GLL5        0.0000 
     25 CA         46.1800  -47.2930  -34.8490 C.3       6 GLP5        0.0000 
     26 N          48.1175  -42.2705  -39.8315 N.am      2 SEC2        0.0000 
     27 N          46.7880  -42.9090  -39.7090 N.am      8 SEL2        0.0000 
     28 CA         47.4590  -42.0205  -36.3330 C.3       3 GLC5        0.0000 
     29 CA         45.7740  -42.2660  -37.6460 C.3       9 GLL5        0.0000 
     30 CA         49.1440  -41.7750  -35.0200 C.3       6 GLP5        0.0000 
     31 CA         42.3035  -44.1070  -35.4120 C.3       3 GLC5        0.0000 
     32 CA         43.7050  -43.2320  -36.3040 C.3       9 GLL5        0.0000 
     33 CA         40.9020  -44.9820  -34.5200 C.3       6 GLP5        0.0000 
     34 CA         45.1000  -44.2645  -35.0870 C.3       3 GLC5        0.0000 
     35 CA         46.4950  -45.2970  -33.8700 C.3       6 GLP5        0.0000 
     36 CA         43.2020  -43.5590  -38.3350 C.3       3 GLC5        0.0000 
     37 CA         42.6990  -43.8860  -40.3660 C.3       6 GLP5        0.0000 
     38 N          41.0630  -42.4930  -33.9910 N.am      2 SEC2        0.0000 
     39 N          41.1510  -42.0010  -35.3880 N.am      8 SEL2        0.0000 
     40 N          40.9750  -42.9850  -32.5940 N.am      5 SEP2        0.0000 
     41 N          40.4985  -40.5345  -35.3585 N.am      2 SEC2        0.0000 
     42 N          39.8460  -39.0680  -35.3290 N.am      5 SEP2        0.0000 
     43 N          39.9415  -42.3650  -35.1375 N.am      2 SEC2        0.0000 
     44 N          38.7320  -42.7290  -34.8870 N.am      5 SEP2        0.0000 
     45 N          40.2695  -43.6795  -38.3255 N.am      2 SEC2        0.0000 
     46 N          40.0700  -42.2720  -37.5460 N.am      8 SEL2        0.0000 
     47 N          40.4690  -45.0870  -39.1050 N.am      5 SEP2        0.0000 
     48 N          39.4010  -42.5005  -36.2165 N.am      2 SEC2        0.0000 
     49 N          40.4500  -42.3545  -39.1375 N.am      2 SEC2        0.0000 
     50 N          40.8300  -42.4370  -40.7290 N.am      5 SEP2        0.0000 
     51 CA         46.3215  -48.8483  -40.9435 C.3       3 GLC5        0.0000 
     52 CA         46.8750  -48.3580  -39.2080 C.3       9 GLL5        0.0000 
     53 CA         46.1110  -48.8070  -42.6460 C.3       6 GLP5        0.0000 
     54 CA         43.7390  -50.4605  -37.2408 C.3       3 GLC5        0.0000 
     55 CA         44.9820  -49.4440  -38.8890 C.3       9 GLL5        0.0000 
     56 CA         42.7870  -50.7850  -35.4990 C.3       6 GLP5        0.0000 
     57 CA         44.2335  -49.1630  -40.4193 C.3       3 GLC5        0.0000 
     58 CA         43.7760  -48.1900  -41.8560 C.3       6 GLP5        0.0000 
     59 CA         43.2405  -49.5570  -36.8295 C.3       3 GLC5        0.0000 
     60 CA         44.4000  -48.3590  -38.4110 C.3       9 GLL5        0.0000 
     61 CA         43.7350  -48.2595  -40.0080 C.3       3 GLC5        0.0000 
     62 CA         44.6998  -47.6840  -40.1695 C.3       3 GLC5        0.0000 
     63 CA         45.0130  -47.2300  -38.3040 C.3       9 GLL5        0.0000 
     64 CA         44.3847  -43.9772  -39.3525 C.3       3 GLC5        0.0000 
     65 CA         43.8702  -43.0235  -38.8753 C.3       3 GLC5        0.0000 
@<TRIPOS>BOND
@<TRIPOS>SUBSTRUCTURE
     1 ALC1        4 GROUP        1 X    ALC  0     ROOT ALC X 1
     2 SEC2        1 GROUP        1 X    SEC  0     **** SEC X 2
     3 GLC5       10 GROUP        1 X    GLC  0     **** GLC X 6
     4 ALP1        6 GROUP        1 Y    ALP  0     ROOT ALP Y 8
     5 SEP2        3 GROUP        1 Y    SEP  0     **** SEP Y 9
     6 GLP5       12 GROUP        1 Y    GLP  0     **** GLP Y 13
     7 ALL1        5 GROUP        1 Z    ALL  0     ROOT ALL Z 15
     8 SEL2        2 GROUP        1 Z    SEL  0     **** SEL Z 16
     9 GLL5       11 GROUP        1 Z    GLL  0     **** GLL Z 20
@<TRIPOS>SET

