#    Name: 3dh7_FMN_2_ligand
#    Modification time : Mon Mar 24 23:22:05 2014

@<TRIPOS>MOLECULE
3dh7_FMN_2_ligand
   50    52     1     0     0
SMALL
NO_CHARGES


@<TRIPOS>ATOM
      1 N1         49.0390  -44.8260  -38.9460 N.2       1 FMN502      0.0000 
      2 C2         50.3310  -44.8880  -39.4200 C.2       1 FMN502      0.0000 
      3 O2         51.0570  -43.8800  -39.4050 O.2       1 FMN502      0.0000 
      4 N3         50.8930  -46.0030  -39.9260 N.am      1 FMN502      0.0000 
      5 C4         50.1900  -47.1480  -40.0100 C.2       1 FMN502      0.0000 
      6 O4         50.7350  -48.1850  -40.4950 O.2       1 FMN502      0.0000 
      7 C4A        48.8560  -47.1740  -39.5570 C.2       1 FMN502      0.0000 
      8 N5         48.1570  -48.3290  -39.6300 N.2       1 FMN502      0.0000 
      9 C5A        46.8750  -48.3580  -39.2080 C.ar      1 FMN502      0.0000 
     10 C6         46.1890  -49.4210  -39.2740 C.ar      1 FMN502      0.0000 
     11 C7         44.9820  -49.4440  -38.8890 C.ar      1 FMN502      0.0000 
     12 C7M        44.4000  -50.8280  -39.0760 C.3       1 FMN502      0.0000 
     13 C8         44.4000  -48.3590  -38.4110 C.ar      1 FMN502      0.0000 
     14 C8M        42.9880  -48.2990  -37.9090 C.3       1 FMN502      0.0000 
     15 C9         45.0130  -47.2300  -38.3040 C.ar      1 FMN502      0.0000 
     16 C9A        46.2340  -47.1260  -38.6620 C.ar      1 FMN502      0.0000 
     17 N10        46.9120  -45.9310  -38.5680 N.pl3     1 FMN502      0.0000 
     18 C10        48.2260  -45.9230  -38.9820 C.2       1 FMN502      0.0000 
     19 C1'        46.2410  -44.7370  -37.9800 C.3       1 FMN502      0.0000 
     20 C2'        45.9000  -43.4000  -38.6980 C.3       1 FMN502      0.0000 
     21 O2'        46.7880  -42.9090  -39.7090 O.3       1 FMN502      0.0000 
     22 C3'        45.7740  -42.2660  -37.6460 C.3       1 FMN502      0.0000 
     23 O3'        46.7230  -42.4220  -36.5700 O.3       1 FMN502      0.0000 
     24 C4'        44.3090  -42.0560  -37.1230 C.3       1 FMN502      0.0000 
     25 O4'        44.0620  -40.7390  -36.5520 O.3       1 FMN502      0.0000 
     26 C5'        43.7050  -43.2320  -36.3040 C.3       1 FMN502      0.0000 
     27 O5'        42.2980  -43.3210  -36.6530 O.3       1 FMN502      0.0000 
     28 P          41.3800  -41.9850  -36.8330 P.3       1 FMN502      0.0000 
     29 O1P        42.3070  -41.1340  -37.6640 O.co2     1 FMN502      0.0000 
     30 O2P        41.1510  -42.0010  -35.3880 O.co2     1 FMN502      0.0000 
     31 O3P        40.0700  -42.2720  -37.5460 O.co2     1 FMN502      0.0000 
     32 H          51.8862  -45.9783  -40.2570 H         1 FMN502      0.0000 
     33 H          46.6380  -50.3181  -39.6629 H         1 FMN502      0.0000 
     34 H          44.4942  -46.3847  -37.9150 H         1 FMN502      0.0000 
     35 H          46.8228  -44.4356  -37.0138 H         1 FMN502      0.0000 
     36 H          45.2450  -45.0906  -37.4842 H         1 FMN502      0.0000 
     37 H          44.8724  -43.5024  -39.1107 H         1 FMN502      0.0000 
     38 H          46.0252  -41.3143  -38.2005 H         1 FMN502      0.0000 
     39 H          43.6763  -42.0780  -38.1203 H         1 FMN502      0.0000 
     40 H          43.8465  -43.0096  -35.2566 H         1 FMN502      0.0000 
     41 H          44.2435  -44.1292  -36.5715 H         1 FMN502      0.0000 
     42 H          44.4190  -51.1125  -40.0345 H         1 FMN502      0.0000 
     43 H          44.9051  -51.5167  -38.5558 H         1 FMN502      0.0000 
     44 H          43.4474  -50.8740  -38.7754 H         1 FMN502      0.0000 
     45 H          42.8400  -48.9224  -37.1413 H         1 FMN502      0.0000 
     46 H          42.7448  -47.3819  -37.5930 H         1 FMN502      0.0000 
     47 H          42.3302  -48.5481  -38.6198 H         1 FMN502      0.0000 
     48 H          47.4891  -43.6158  -39.8030 H         1 FMN502      0.0000 
     49 H          47.5943  -42.6179  -37.0199 H         1 FMN502      0.0000 
     50 H          43.0721  -40.6971  -36.4170 H         1 FMN502      0.0000 
@<TRIPOS>BOND
     1    2    1 1    
     2   18    1 2    
     3    3    2 2    
     4    4    2 am   
     5    5    4 am   
     6   32    4 1    
     7    6    5 2    
     8    7    5 1    
     9    8    7 2    
    10   18    7 1    
    11    9    8 1    
    12   10    9 ar   
    13   16    9 ar   
    14   11   10 ar   
    15   33   10 1    
    16   12   11 1    
    17   13   11 ar   
    18   42   12 1    
    19   43   12 1    
    20   44   12 1    
    21   14   13 1    
    22   15   13 ar   
    23   45   14 1    
    24   46   14 1    
    25   47   14 1    
    26   16   15 ar   
    27   34   15 1    
    28   17   16 1    
    29   18   17 1    
    30   19   17 1    
    31   20   19 1    
    32   35   19 1    
    33   36   19 1    
    34   21   20 1    
    35   22   20 1    
    36   37   20 1    
    37   48   21 1    
    38   23   22 1    
    39   24   22 1    
    40   38   22 1    
    41   49   23 1    
    42   25   24 1    
    43   26   24 1    
    44   39   24 1    
    45   50   25 1    
    46   27   26 1    
    47   40   26 1    
    48   41   26 1    
    49   28   27 1    
    50   29   28 ar   
    51   30   28 ar   
    52   31   28 ar   
@<TRIPOS>SUBSTRUCTURE
     1 FMN502      1 GROUP   
@<TRIPOS>SET

