#    Name: 3unj_0BX_1_INTS_M
#    Modification time : Mon Mar 24 23:06:36 2014

@<TRIPOS>MOLECULE
3unj_0BX_1_INTS_M
   69     0    12     0     0
SMALL
NO_CHARGES


@<TRIPOS>ATOM
      1 CA         77.6655   65.6410   65.4045 C.3       4 GLC5        0.0000 
      2 CA         75.8620   66.2870   64.8170 C.3      12 GLL5        0.0000 
      3 CA         79.4690   64.9950   65.9920 C.3       8 GLP5        0.0000 
      4 O          75.6210   68.4425   65.4790 O.2       1 ALC1        0.0000 
      5 O          76.5070   67.5640   64.8520 O.2       9 ALL1        0.0000 
      6 O          74.7350   69.3210   66.1060 O.2       5 ALP1        0.0000 
      7 CA         78.5210   66.4870   64.9950 C.3       4 GLC5        0.0000 
      8 CA         77.5730   67.9790   63.9980 C.3      12 GLL5        0.0000 
      9 CA         79.5255   68.3430   64.7040 C.3       4 GLC5        0.0000 
     10 CA         81.4780   68.7070   65.4100 C.3       8 GLP5        0.0000 
     11 CA         76.2635   69.7060   64.4795 C.3       4 GLC5        0.0000 
     12 CA         74.9540   71.4330   64.9610 C.3       8 GLP5        0.0000 
     13 CA         76.7855   67.8350   62.3115 C.3       4 GLC5        0.0000 
     14 CA         75.9980   67.6910   60.6250 C.3       8 GLP5        0.0000 
     15 N          77.1510   70.3145   64.6790 N.am      2 SEC2        0.0000 
     16 N          77.9400   69.2650   63.9980 N.am     10 SEL2        0.0000 
     17 N          76.3620   71.3640   65.3600 N.am      6 SEP2        0.0000 
     18 CA         79.4985   71.4680   62.1685 C.3       4 GLC5        0.0000 
     19 CA         78.9360   69.7050   63.2090 C.3      12 GLL5        0.0000 
     20 CA         80.0610   73.2310   61.1280 C.3       8 GLP5        0.0000 
     21 CA         78.5855   70.7535   65.0315 C.3       4 GLC5        0.0000 
     22 CA         78.2350   71.8020   66.8540 C.3       8 GLP5        0.0000 
     23 CA         79.3200   66.2200   64.1915 C.3       4 GLC5        0.0000 
     24 CA         79.1710   67.4450   62.3910 C.3      12 GLL5        0.0000 
     25 CA         77.5845   67.5680   61.5080 C.3       4 GLC5        0.0000 
     26 CA         81.7765   67.9350   63.3325 C.3       4 GLC5        0.0000 
     27 CA         82.0750   67.1630   61.2550 C.3      12 GLL5        0.0000 
     28 CA         85.1555   66.7595   61.3110 C.3       4 GLC5        0.0000 
     29 CA         83.2110   67.3280   60.4710 C.3      12 GLL5        0.0000 
     30 CA         87.1000   66.1910   62.1510 C.3       8 GLP5        0.0000 
     31 CA         85.2550   66.3765   59.4120 C.3       4 GLC5        0.0000 
     32 CA         83.1990   66.9070   59.1460 C.3      12 GLL5        0.0000 
     33 CA         87.3110   65.8460   59.6780 C.3       8 GLP5        0.0000 
     34 CA         82.2485   64.8290   60.5860 C.3       4 GLC5        0.0000 
     35 CA         80.8930   66.1780   59.4140 C.3      12 GLL5        0.0000 
     36 CA         83.6040   63.4800   61.7580 C.3       8 GLP5        0.0000 
     37 NZ         72.1400   61.1570   65.8970 N.4       3 LYC4        0.0000 
     38 NZ         72.7780   62.5650   65.9450 N.4      11 LYL4        0.0000 
     39 NZ         71.5020   59.7490   65.8490 N.4       7 LYP4        0.0000 
     40 N          72.1400   61.1570   65.8970 N.am      2 SEC2        0.0000 
     41 N          72.7780   62.5650   65.9450 N.am     10 SEL2        0.0000 
     42 N          71.5020   59.7490   65.8490 N.am      6 SEP2        0.0000 
     43 N          71.8255   63.5060   66.1305 N.am      2 SEC2        0.0000 
     44 N          70.8730   64.4470   66.3160 N.am      6 SEP2        0.0000 
     45 NZ         72.7780   60.6545   65.1600 N.4       3 LYC4        0.0000 
     46 NZ         74.0540   61.5600   64.4710 N.4      11 LYL4        0.0000 
     47 CA         73.1565   65.3975   64.4977 C.3       4 GLC5        0.0000 
     48 CA         74.5060   63.8680   64.9580 C.3      12 GLL5        0.0000 
     49 CA         71.8690   66.4590   63.5340 C.3       8 GLP5        0.0000 
     50 CA         73.6623   66.3035   64.4465 C.3       4 GLC5        0.0000 
     51 CA         75.0490   66.0090   65.9010 C.3      12 GLL5        0.0000 
     52 CA         75.9645   66.7553   62.4633 C.3       4 GLC5        0.0000 
     53 CA         77.0558   63.8125   63.9829 C.3       4 GLC5        0.0000 
     54 CA         76.0000   65.3520   63.7860 C.3      12 GLL5        0.0000 
     55 CA         78.6560   62.9490   63.8700 C.3       8 GLP5        0.0000 
     56 CA         73.7635   65.6005   63.6767 C.3       4 GLC5        0.0000 
     57 CA         75.3160   64.1320   63.8530 C.3      12 GLL5        0.0000 
     58 CA         75.0360   64.7620   61.7938 C.3       4 GLC5        0.0000 
     59 CA         74.4140   64.7820   59.7680 C.3       8 GLP5        0.0000 
     60 CA         77.8547   69.1702   61.5315 C.3       4 GLC5        0.0000 
     61 CA         76.4560   69.0960   60.2720 C.3       8 GLP5        0.0000 
     62 CA         80.3451   68.5259   64.0005 C.3       4 GLC5        0.0000 
     63 CA         79.5710   68.7840   62.3730 C.3      12 GLL5        0.0000 
     64 CA         82.0265   65.7548   62.3683 C.3       4 GLC5        0.0000 
     65 CA         82.5590   64.6240   63.7420 C.3       8 GLP5        0.0000 
     66 CA         83.4045   65.2987   60.7832 C.3       4 GLC5        0.0000 
     67 CA         83.4383   67.6301   57.7609 C.3       4 GLC5        0.0000 
     68 CA         82.0380   66.3310   58.6370 C.3      12 GLL5        0.0000 
     69 CA         84.2550   68.5360   56.2990 C.3       8 GLP5        0.0000 
@<TRIPOS>BOND
@<TRIPOS>SUBSTRUCTURE
     1 ALC1        4 GROUP        1 X    ALC  0     ROOT ALC X 1
     2 SEC2       15 GROUP        1 X    SEC  0     **** SEC X 2
     3 LYC4       37 GROUP        1 X    LYC  0     **** LYC X 4
     4 GLC5        1 GROUP        1 X    GLC  0     **** GLC X 6
     5 ALP1        6 GROUP        1 Y    ALP  0     ROOT ALP Y 8
     6 SEP2       17 GROUP        1 Y    SEP  0     **** SEP Y 9
     7 LYP4       39 GROUP        1 Y    LYP  0     **** LYP Y 11
     8 GLP5        3 GROUP        1 Y    GLP  0     **** GLP Y 13
     9 ALL1        5 GROUP        1 Z    ALL  0     ROOT ALL Z 15
    10 SEL2       16 GROUP        1 Z    SEL  0     **** SEL Z 16
    11 LYL4       38 GROUP        1 Z    LYL  0     **** LYL Z 18
    12 GLL5        2 GROUP        1 Z    GLL  0     **** GLL Z 20
@<TRIPOS>SET

