#    Name: 3unj_0BX_1_ligand
#    Modification time : Mon Mar 24 23:06:36 2014

@<TRIPOS>MOLECULE
3unj_0BX_1_ligand
   36    38     1     0     0
SMALL
NO_CHARGES


@<TRIPOS>ATOM
      1 C06        74.5060   63.8680   64.9580 C.ar      1 0BX299      0.0000 
      2 C11        73.7440   62.5950   65.1230 C.2       1 0BX299      0.0000 
      3 C05        74.3820   64.8040   65.9650 C.ar      1 0BX299      0.0000 
      4 C10        75.0490   66.0090   65.9010 C.ar      1 0BX299      0.0000 
      5 C09        75.8620   66.2870   64.8170 C.ar      1 0BX299      0.0000 
      6 C08        76.0000   65.3520   63.7860 C.ar      1 0BX299      0.0000 
      7 C07        75.3160   64.1320   63.8530 C.ar      1 0BX299      0.0000 
      8 N01        76.5070   67.5640   64.8520 N.pl3     1 0BX299      0.0000 
      9 C12        77.5730   67.9790   63.9980 C.ar      1 0BX299      0.0000 
     10 N03        77.9400   69.2650   63.9980 N.ar      1 0BX299      0.0000 
     11 C15        78.9360   69.7050   63.2090 C.ar      1 0BX299      0.0000 
     12 C14        79.5710   68.7840   62.3730 C.ar      1 0BX299      0.0000 
     13 C13        79.1710   67.4450   62.3910 C.ar      1 0BX299      0.0000 
     14 N02        78.1770   67.0820   63.2180 N.ar      1 0BX299      0.0000 
     15 N04        79.7560   66.4340   61.5580 N.pl3     1 0BX299      0.0000 
     16 C16        80.9130   66.6080   60.7340 C.ar      1 0BX299      0.0000 
     17 C17        82.0750   67.1630   61.2550 C.ar      1 0BX299      0.0000 
     18 C18        83.2110   67.3280   60.4710 C.ar      1 0BX299      0.0000 
     19 C19        83.1990   66.9070   59.1460 C.ar      1 0BX299      0.0000 
     20 C20        82.0380   66.3310   58.6370 C.ar      1 0BX299      0.0000 
     21 C21        80.8930   66.1780   59.4140 C.ar      1 0BX299      0.0000 
     22 O22        72.7780   62.5650   65.9450 O.co2     1 0BX299      0.0000 
     23 O23        74.0540   61.5600   64.4710 O.co2     1 0BX299      0.0000 
     24 H          73.7765   64.5966   66.7835 H         1 0BX299      0.0000 
     25 H          74.9436   66.7009   66.6564 H         1 0BX299      0.0000 
     26 H          76.6009   65.5589   62.9820 H         1 0BX299      0.0000 
     27 H          75.4101   63.4474   63.1034 H         1 0BX299      0.0000 
     28 H          76.1644   68.2571   65.5710 H         1 0BX299      0.0000 
     29 H          79.2381   70.6820   63.2034 H         1 0BX299      0.0000 
     30 H          80.3247   69.0873   61.7508 H         1 0BX299      0.0000 
     31 H          79.2953   65.4869   61.5535 H         1 0BX299      0.0000 
     32 H          82.0959   67.4604   62.2490 H         1 0BX299      0.0000 
     33 H          84.0536   67.7580   60.8678 H         1 0BX299      0.0000 
     34 H          84.0239   67.0175   58.5576 H         1 0BX299      0.0000 
     35 H          82.0259   66.0060   57.6486 H         1 0BX299      0.0000 
     36 H          80.0519   65.7556   59.0174 H         1 0BX299      0.0000 
@<TRIPOS>BOND
     1    2    1 1    
     2    3    1 ar   
     3    7    1 ar   
     4   22    2 ar   
     5   23    2 ar   
     6    4    3 ar   
     7   24    3 1    
     8    5    4 ar   
     9   25    4 1    
    10    6    5 ar   
    11    8    5 1    
    12    7    6 ar   
    13   26    6 1    
    14   27    7 1    
    15    9    8 1    
    16   28    8 1    
    17   10    9 ar   
    18   14    9 ar   
    19   11   10 ar   
    20   12   11 ar   
    21   29   11 1    
    22   13   12 ar   
    23   30   12 1    
    24   14   13 ar   
    25   15   13 1    
    26   16   15 1    
    27   31   15 1    
    28   17   16 ar   
    29   21   16 ar   
    30   18   17 ar   
    31   32   17 1    
    32   19   18 ar   
    33   33   18 1    
    34   20   19 ar   
    35   34   19 1    
    36   21   20 ar   
    37   35   20 1    
    38   36   21 1    
@<TRIPOS>SUBSTRUCTURE
     1 0BX299      1 GROUP   
@<TRIPOS>SET

