#    Name: 3b6c_SDN_2_INTS_M
#    Modification time : Mon Mar 24 18:57:14 2014

@<TRIPOS>MOLECULE
3b6c_SDN_2_INTS_M
   45     0     3     0     0
SMALL
NO_CHARGES


@<TRIPOS>ATOM
      1 CA        -24.4125   -9.7710   -8.0740 C.3       1 GLC5        0.0000 
      2 CA        -26.3160   -9.4310   -8.8240 C.3       3 GLL5        0.0000 
      3 CA        -22.5090  -10.1110   -7.3240 C.3       2 GLP5        0.0000 
      4 CA        -24.0975   -7.8790   -8.1045 C.3       1 GLC5        0.0000 
      5 CA        -25.7720   -8.1070   -9.2190 C.3       3 GLL5        0.0000 
      6 CA        -22.4230   -7.6510   -6.9900 C.3       2 GLP5        0.0000 
      7 CA        -24.4885   -8.5555  -10.8805 C.3       1 GLC5        0.0000 
      8 CA        -23.2050   -9.0040  -12.5420 C.3       2 GLP5        0.0000 
      9 CA        -24.6150   -7.0920   -9.6780 C.3       1 GLC5        0.0000 
     10 CA        -23.4580   -6.0770  -10.1370 C.3       2 GLP5        0.0000 
     11 CA        -31.4880   -8.5200   -4.2355 C.3       1 GLC5        0.0000 
     12 CA        -29.4630   -7.7510   -3.8440 C.3       3 GLL5        0.0000 
     13 CA        -33.5130   -9.2890   -4.6270 C.3       2 GLP5        0.0000 
     14 CA        -28.8720  -10.5630   -2.6675 C.3       1 GLC5        0.0000 
     15 CA        -29.8390  -10.0610   -4.4870 C.3       3 GLL5        0.0000 
     16 CA        -27.9050  -11.0650   -0.8480 C.3       2 GLP5        0.0000 
     17 CA        -29.4155  -11.5510   -8.1255 C.3       1 GLC5        0.0000 
     18 CA        -27.6410  -11.9560   -8.4620 C.3       3 GLL5        0.0000 
     19 CA        -31.1900  -11.1460   -7.7890 C.3       2 GLP5        0.0000 
     20 CA        -27.5820  -10.5170  -12.7730 C.3       1 GLC5        0.0000 
     21 CA        -27.3940  -11.5340  -10.9410 C.3       3 GLL5        0.0000 
     22 CA        -27.7700   -9.5000  -14.6050 C.3       2 GLP5        0.0000 
     23 CA        -29.2770  -11.3195  -11.9440 C.3       1 GLC5        0.0000 
     24 CA        -31.1600  -11.1050  -12.9470 C.3       2 GLP5        0.0000 
     25 CA        -27.4083   -8.4527   -9.5511 C.3       1 GLC5        0.0000 
     26 CA        -27.2620   -9.5770   -7.7270 C.3       3 GLL5        0.0000 
     27 CA        -28.5360   -8.1000  -10.3550 C.3       2 GLP5        0.0000 
     28 CA        -28.7640   -8.4690   -2.1695 C.3       1 GLC5        0.0000 
     29 CA        -27.7570   -8.5700   -0.6140 C.3       2 GLP5        0.0000 
     30 CA        -28.9130  -11.1790   -4.1597 C.3       1 GLC5        0.0000 
     31 CA        -30.0790   -8.9850   -3.6060 C.3       3 GLL5        0.0000 
     32 CA        -27.8670  -12.8350   -4.2730 C.3       2 GLP5        0.0000 
     33 CA        -30.2264  -10.4076   -6.4387 C.3       1 GLC5        0.0000 
     34 CA        -31.1107  -10.2048   -4.3084 C.3       1 GLC5        0.0000 
     35 CA        -28.9960   -9.8940   -5.5770 C.3       3 GLL5        0.0000 
     36 CA        -32.7440  -10.7010   -3.8050 C.3       2 GLP5        0.0000 
     37 CA        -28.2914  -11.4724   -5.1743 C.3       1 GLC5        0.0000 
     38 CA        -29.6740  -10.8541   -7.4185 C.3       1 GLC5        0.0000 
     39 CA        -28.7450  -10.9420   -6.4610 C.3       3 GLL5        0.0000 
     40 CA        -28.1482   -9.7360   -9.1788 C.3       1 GLC5        0.0000 
     41 CA        -27.8800  -10.7880   -7.5430 C.3       3 GLL5        0.0000 
     42 CA        -27.1340  -12.0521   -6.6043 C.3       1 GLC5        0.0000 
     43 CA        -26.6620  -13.0350   -5.1600 C.3       2 GLP5        0.0000 
     44 CA        -27.7852   -9.8660  -10.3170 C.3       1 GLC5        0.0000 
     45 CA        -26.6750  -11.7300   -9.6170 C.3       3 GLL5        0.0000 
@<TRIPOS>BOND
@<TRIPOS>SUBSTRUCTURE
     1 GLC5        1 GROUP        1 X    GLC  0     ROOT GLC X 6
     2 GLP5        3 GROUP        1 Y    GLP  0     ROOT GLP Y 13
     3 GLL5        2 GROUP        1 Z    GLL  0     ROOT GLL Z 20
@<TRIPOS>SET

