#    Name: 3b6c_SDN_2_ligand
#    Modification time : Mon Mar 24 18:57:14 2014

@<TRIPOS>MOLECULE
3b6c_SDN_2_ligand
   34    36     1     0     0
SMALL
NO_CHARGES


@<TRIPOS>ATOM
      1 O4        -28.0730   -6.5390   -5.1470 O.3       1 SDN302      0.0000 
      2 C11       -28.6190   -7.6020   -4.9370 C.ar      1 SDN302      0.0000 
      3 C12       -28.3770   -8.6610   -5.8030 C.ar      1 SDN302      0.0000 
      4 C13       -27.5270   -8.5150   -6.8690 C.2       1 SDN302      0.0000 
      5 O5        -26.9840   -7.4020   -7.0310 O.2       1 SDN302      0.0000 
      6 C14       -27.2620   -9.5770   -7.7270 C.2       1 SDN302      0.0000 
      7 C15       -26.3160   -9.4310   -8.8240 C.2       1 SDN302      0.0000 
      8 O3        -25.7710  -10.6550   -9.4250 O.3       1 SDN302      0.0000 
      9 C16       -25.7720   -8.1070   -9.2190 C.3       1 SDN302      0.0000 
     10 C10       -29.4630   -7.7510   -3.8440 C.ar      1 SDN302      0.0000 
     11 C9        -30.0790   -8.9850   -3.6060 C.ar      1 SDN302      0.0000 
     12 C8        -29.8390  -10.0610   -4.4870 C.ar      1 SDN302      0.0000 
     13 C7        -28.9960   -9.8940   -5.5770 C.ar      1 SDN302      0.0000 
     14 C6        -28.7450  -10.9420   -6.4610 C.2       1 SDN302      0.0000 
     15 C5        -27.8800  -10.7880   -7.5430 C.2       1 SDN302      0.0000 
     16 C4        -27.6410  -11.9560   -8.4620 C.3       1 SDN302      0.0000 
     17 C3        -26.6750  -11.7300   -9.6170 C.3       1 SDN302      0.0000 
     18 C2        -27.3940  -11.5340  -10.9410 C.3       1 SDN302      0.0000 
     19 C1        -26.6120  -12.2300  -12.0340 C.2       1 SDN302      0.0000 
     20 O2        -27.0430  -13.2880  -12.5280 O.co2     1 SDN302      0.0000 
     21 O1        -25.5560  -11.7150  -12.4170 O.co2     1 SDN302      0.0000 
     22 H         -29.6371   -6.9633   -3.2114 H         1 SDN302      0.0000 
     23 H         -30.6964   -9.1107   -2.8048 H         1 SDN302      0.0000 
     24 H         -30.2934  -10.9644   -4.3126 H         1 SDN302      0.0000 
     25 H         -29.2118  -11.8558   -6.3105 H         1 SDN302      0.0000 
     26 H         -28.6195  -12.2936   -8.8833 H         1 SDN302      0.0000 
     27 H         -27.2727  -12.8228   -7.8605 H         1 SDN302      0.0000 
     28 H         -26.0884  -12.6793   -9.7355 H         1 SDN302      0.0000 
     29 H         -27.4630  -10.4750  -11.1601 H         1 SDN302      0.0000 
     30 H         -28.3886  -11.9593  -10.8772 H         1 SDN302      0.0000 
     31 H         -25.2758   -7.6705   -8.4685 H         1 SDN302      0.0000 
     32 H         -25.1359   -8.1810   -9.9871 H         1 SDN302      0.0000 
     33 H         -26.4961   -7.4761   -9.4978 H         1 SDN302      0.0000 
     34 H         -27.2019   -6.7761   -5.5771 H         1 SDN302      0.0000 
@<TRIPOS>BOND
     1    2    1 1    
     2   34    1 1    
     3    3    2 ar   
     4   10    2 ar   
     5    4    3 1    
     6   13    3 ar   
     7    5    4 2    
     8    6    4 1    
     9    7    6 2    
    10   15    6 1    
    11    8    7 1    
    12    9    7 1    
    13   17    8 1    
    14   31    9 1    
    15   32    9 1    
    16   33    9 1    
    17   11   10 ar   
    18   22   10 1    
    19   12   11 ar   
    20   23   11 1    
    21   13   12 ar   
    22   24   12 1    
    23   14   13 1    
    24   15   14 2    
    25   25   14 1    
    26   16   15 1    
    27   17   16 1    
    28   26   16 1    
    29   27   16 1    
    30   18   17 1    
    31   28   17 1    
    32   19   18 1    
    33   29   18 1    
    34   30   18 1    
    35   20   19 ar   
    36   21   19 ar   
@<TRIPOS>SUBSTRUCTURE
     1 SDN302      1 GROUP   
@<TRIPOS>SET

