#    Name: 2iw6_QQ2_2_INTS_M
#    Modification time : Tue Mar 25 18:48:35 2014

@<TRIPOS>MOLECULE
2iw6_QQ2_2_INTS_M
   77     0     9     0     0
SMALL
NO_CHARGES


@<TRIPOS>ATOM
      1 CA         36.7025   87.9190   42.9330 C.3       3 GLC5        0.0000 
      2 CA         34.6000   87.7050   42.9530 C.3       9 GLL5        0.0000 
      3 CA         38.8050   88.1330   42.9130 C.3       6 GLP5        0.0000 
      4 CA         31.6430   82.0535   45.7100 C.3       3 GLC5        0.0000 
      5 CA         33.3880   82.2430   46.2270 C.3       9 GLL5        0.0000 
      6 CA         29.8980   81.8640   45.1930 C.3       6 GLP5        0.0000 
      7 CA         34.5790   80.6500   47.1350 C.3       3 GLC5        0.0000 
      8 CA         35.7700   79.0570   48.0430 C.3       6 GLP5        0.0000 
      9 CA         32.4765   80.2815   46.4155 C.3       3 GLC5        0.0000 
     10 CA         31.5650   78.3200   46.6040 C.3       6 GLP5        0.0000 
     11 CA         32.1065   82.8725   47.8750 C.3       3 GLC5        0.0000 
     12 CA         30.8250   83.5020   49.5230 C.3       6 GLP5        0.0000 
     13 CA         35.0920   82.5685   46.2305 C.3       3 GLC5        0.0000 
     14 CA         36.7960   82.8940   46.2340 C.3       6 GLP5        0.0000 
     15 CA         35.0460   83.6410   45.7890 C.3       3 GLC5        0.0000 
     16 CA         33.2960   84.3880   45.3440 C.3       9 GLL5        0.0000 
     17 CA         35.4065   84.4070   44.4705 C.3       3 GLC5        0.0000 
     18 CA         33.5090   83.8700   44.0530 C.3       9 GLL5        0.0000 
     19 CA         37.3040   84.9440   44.8880 C.3       6 GLP5        0.0000 
     20 CA         35.2265   82.6895   45.0740 C.3       3 GLC5        0.0000 
     21 CA         33.6570   82.4850   43.9140 C.3       9 GLL5        0.0000 
     22 CA         36.7330   79.8970   43.9515 C.3       3 GLC5        0.0000 
     23 CA         34.7020   79.5270   43.1380 C.3       9 GLL5        0.0000 
     24 CA         38.7640   80.2670   44.7650 C.3       6 GLP5        0.0000 
     25 CA         31.7855   81.2465   41.9905 C.3       3 GLC5        0.0000 
     26 CA         33.5900   80.4040   42.6760 C.3       9 GLL5        0.0000 
     27 CA         29.9810   82.0890   41.3050 C.3       6 GLP5        0.0000 
     28 CA         36.5725   83.7385   43.1375 C.3       3 GLC5        0.0000 
     29 CA         35.8410   82.5330   41.3870 C.3       9 GLL5        0.0000 
     30 N          33.0915   84.1530   47.9250 N.am      2 SEC2        0.0000 
     31 N          33.2430   83.5550   46.3920 N.am      8 SEL2        0.0000 
     32 N          32.9400   84.7510   49.4580 N.am      5 SEP2        0.0000 
     33 N          37.1250   78.5735   42.9105 N.am      2 SEC2        0.0000 
     34 N          35.5260   78.7370   43.4070 N.am      8 SEL2        0.0000 
     35 N          38.7240   78.4100   42.4140 N.am      5 SEP2        0.0000 
     36 O          33.2680   86.4410   46.8520 O.2       1 ALC1        0.0000 
     37 O          33.1360   85.7480   45.6430 O.2       7 ALL1        0.0000 
     38 O          33.4000   87.1340   48.0610 O.2       4 ALP1        0.0000 
     39 CA         32.4975   88.1775   40.9840 C.3       3 GLC5        0.0000 
     40 CA         33.5200   89.8920   40.8860 C.3       9 GLL5        0.0000 
     41 CA         31.4750   86.4630   41.0820 C.3       6 GLP5        0.0000 
     42 CA         32.4495   87.0480   37.1210 C.3       3 GLC5        0.0000 
     43 CA         34.4020   87.9100   37.7820 C.3       9 GLL5        0.0000 
     44 CA         30.4970   86.1860   36.4600 C.3       6 GLP5        0.0000 
     45 CA         39.0325   82.4680   41.9880 C.3       3 GLC5        0.0000 
     46 CA         37.0340   81.7820   42.4950 C.3       9 GLL5        0.0000 
     47 CA         41.0310   83.1540   41.4810 C.3       6 GLP5        0.0000 
     48 CA         36.9150   82.3380   44.3645 C.3       3 GLC5        0.0000 
     49 CA         37.8990   81.0245   43.6300 C.3       3 GLC5        0.0000 
     50 CA         37.9335   80.4350   41.2635 C.3       3 GLC5        0.0000 
     51 CA         38.8330   79.0880   40.0320 C.3       6 GLP5        0.0000 
     52 CA         31.8465   85.3000   37.5365 C.3       3 GLC5        0.0000 
     53 CA         33.1960   84.4140   38.6130 C.3       9 GLL5        0.0000 
     54 CA         32.5310   83.7460   36.6525 C.3       3 GLC5        0.0000 
     55 CA         31.8660   83.0780   34.6920 C.3       6 GLP5        0.0000 
     56 CA         32.0630   82.8170   38.8945 C.3       3 GLC5        0.0000 
     57 CA         30.9300   81.2200   39.1760 C.3       6 GLP5        0.0000 
     58 CA         32.9850   86.8205   42.2340 C.3       3 GLC5        0.0000 
     59 CA         34.3900   86.6510   43.8190 C.3       9 GLL5        0.0000 
     60 CA         35.2055   88.4885   44.9085 C.3       3 GLC5        0.0000 
     61 CA         35.9160   89.7990   46.4310 C.3       6 GLP5        0.0000 
     62 CA         31.5482   84.8035   44.0452 C.3       3 GLC5        0.0000 
     63 CA         29.6940   85.4780   43.3920 C.3       6 GLP5        0.0000 
     64 CA         31.7139   82.5855   44.7496 C.3       3 GLC5        0.0000 
     65 CA         32.5480   82.0895   40.0382 C.3       3 GLC5        0.0000 
     66 CA         33.6160   83.1120   40.7200 C.3       9 GLL5        0.0000 
     67 CA         32.8935   78.6137   43.6330 C.3       3 GLC5        0.0000 
     68 CA         31.6410   77.2620   44.3590 C.3       6 GLP5        0.0000 
     69 CA         31.3433   86.4040   44.1095 C.3       3 GLC5        0.0000 
     70 CA         33.3840   86.7570   44.7790 C.3       9 GLL5        0.0000 
     71 CA         34.4543   88.5645   45.6290 C.3       3 GLC5        0.0000 
     72 CA         32.6010   87.9030   44.8750 C.3       9 GLL5        0.0000 
     73 CA         35.6218   85.9558   44.4853 C.3       3 GLC5        0.0000 
     74 CA         32.3957   87.6898   42.3122 C.3       3 GLC5        0.0000 
     75 CA         33.8160   88.8580   43.0590 C.3       9 GLL5        0.0000 
     76 CA         34.6163   89.3578   44.9868 C.3       3 GLC5        0.0000 
     77 CA         32.5050   85.1937   40.2332 C.3       3 GLC5        0.0000 
@<TRIPOS>BOND
@<TRIPOS>SUBSTRUCTURE
     1 ALC1       36 GROUP        1 X    ALC  0     ROOT ALC X 1
     2 SEC2       30 GROUP        1 X    SEC  0     **** SEC X 2
     3 GLC5        1 GROUP        1 X    GLC  0     **** GLC X 6
     4 ALP1       38 GROUP        1 Y    ALP  0     ROOT ALP Y 8
     5 SEP2       32 GROUP        1 Y    SEP  0     **** SEP Y 9
     6 GLP5        3 GROUP        1 Y    GLP  0     **** GLP Y 13
     7 ALL1       37 GROUP        1 Z    ALL  0     ROOT ALL Z 15
     8 SEL2       31 GROUP        1 Z    SEL  0     **** SEL Z 16
     9 GLL5        2 GROUP        1 Z    GLL  0     **** GLL Z 20
@<TRIPOS>SET

