#    Name: 2iw6_QQ2_2_ligand
#    Modification time : Tue Mar 25 18:48:35 2014

@<TRIPOS>MOLECULE
2iw6_QQ2_2_ligand
   61    63     1     0     0
SMALL
NO_CHARGES


@<TRIPOS>ATOM
      1 C22        34.6000   87.7050   42.9530 C.ar      1 QQ21296     0.0000 
      2 C1         33.3880   82.2430   46.2270 C.ar      1 QQ21296     0.0000 
      3 C5         33.2960   84.3880   45.3440 C.ar      1 QQ21296     0.0000 
      4 C4         33.5090   83.8700   44.0530 C.ar      1 QQ21296     0.0000 
      5 C3         33.6570   82.4850   43.9140 C.ar      1 QQ21296     0.0000 
      6 C11        35.5050   83.7980   39.3570 C.ar      1 QQ21296     0.0000 
      7 C10        34.1320   83.7580   39.5920 C.ar      1 QQ21296     0.0000 
      8 C9         33.6160   83.1120   40.7200 C.ar      1 QQ21296     0.0000 
      9 C8         34.4580   82.4830   41.6450 C.ar      1 QQ21296     0.0000 
     10 C12        36.3600   83.1870   40.2580 C.ar      1 QQ21296     0.0000 
     11 C17        34.7020   79.5270   43.1380 C.1       1 QQ21296     0.0000 
     12 C16        33.5900   80.4040   42.6760 C.3       1 QQ21296     0.0000 
     13 C13        35.8410   82.5330   41.3870 C.ar      1 QQ21296     0.0000 
     14 C20        33.3840   86.7570   44.7790 C.ar      1 QQ21296     0.0000 
     15 N2         33.5720   81.7170   45.0180 N.ar      1 QQ21296     0.0000 
     16 N6         33.2430   83.5550   46.3920 N.ar      1 QQ21296     0.0000 
     17 N7         33.9140   81.8450   42.7400 N.pl3     1 QQ21296     0.0000 
     18 N18        35.5260   78.7370   43.4070 N.1       1 QQ21296     0.0000 
     19 N19        33.1360   85.7480   45.6430 N.pl3     1 QQ21296     0.0000 
     20 C21        34.3900   86.6510   43.8190 C.ar      1 QQ21296     0.0000 
     21 C23        33.8160   88.8580   43.0590 C.ar      1 QQ21296     0.0000 
     22 C24        32.8170   88.9750   44.0260 C.ar      1 QQ21296     0.0000 
     23 C25        32.6010   87.9030   44.8750 C.ar      1 QQ21296     0.0000 
     24 O26        34.0460   89.8980   42.2040 O.3       1 QQ21296     0.0000 
     25 C27        33.5200   89.8920   40.8860 C.3       1 QQ21296     0.0000 
     26 C28        34.5670   90.5930   40.0410 C.3       1 QQ21296     0.0000 
     27 C29        35.4590   89.5240   39.3850 C.3       1 QQ21296     0.0000 
     28 N30        35.0660   89.1910   38.0160 N.4       1 QQ21296     0.0000 
     29 C31        35.9040   89.7530   36.9500 C.3       1 QQ21296     0.0000 
     30 C32        34.4020   87.9100   37.7820 C.3       1 QQ21296     0.0000 
     31 O33        33.9190   91.5010   39.1460 O.3       1 QQ21296     0.0000 
     32 CL1        37.0340   81.7820   42.4950 Cl        1 QQ21296     0.0000 
     33 C33        33.1960   84.4140   38.6130 C.3       1 QQ21296     0.0000 
     34 H          35.3279   87.6506   42.2301 H         1 QQ21296     0.0000 
     35 H          33.3567   81.6072   47.0696 H         1 QQ21296     0.0000 
     36 H          33.5533   84.4835   43.2510 H         1 QQ21296     0.0000 
     37 H          35.8716   84.2732   38.5292 H         1 QQ21296     0.0000 
     38 H          32.5936   83.0983   40.8743 H         1 QQ21296     0.0000 
     39 H          37.3763   83.2071   40.1085 H         1 QQ21296     0.0000 
     40 H          32.6882   80.1992   43.2888 H         1 QQ21296     0.0000 
     41 H          33.3210   80.1304   41.6351 H         1 QQ21296     0.0000 
     42 H          32.7944   85.9816   46.6245 H         1 QQ21296     0.0000 
     43 H          34.9588   85.8040   43.7630 H         1 QQ21296     0.0000 
     44 H          32.2663   89.8251   44.1009 H         1 QQ21296     0.0000 
     45 H          31.8536   87.9514   45.5861 H         1 QQ21296     0.0000 
     46 H          32.5968   90.4466   40.8105 H         1 QQ21296     0.0000 
     47 H          33.3886   88.8917   40.5016 H         1 QQ21296     0.0000 
     48 H          35.2067   91.1475   40.7549 H         1 QQ21296     0.0000 
     49 H          35.4322   88.6236   40.0290 H         1 QQ21296     0.0000 
     50 H          36.5021   89.8945   39.4127 H         1 QQ21296     0.0000 
     51 H          34.0622   89.9683   37.9060 H         1 QQ21296     0.0000 
     52 H          36.8529   89.4457   37.0225 H         1 QQ21296     0.0000 
     53 H          35.5784   89.4873   36.0426 H         1 QQ21296     0.0000 
     54 H          35.9168   90.7526   36.9757 H         1 QQ21296     0.0000 
     55 H          34.9784   87.1383   38.0509 H         1 QQ21296     0.0000 
     56 H          33.5497   87.8335   38.2994 H         1 QQ21296     0.0000 
     57 H          34.1718   87.7817   36.8173 H         1 QQ21296     0.0000 
     58 H          33.3755   85.3940   38.5271 H         1 QQ21296     0.0000 
     59 H          33.2794   84.0194   37.6979 H         1 QQ21296     0.0000 
     60 H          32.2401   84.3142   38.8892 H         1 QQ21296     0.0000 
     61 H          34.6315   92.1470   38.8721 H         1 QQ21296     0.0000 
@<TRIPOS>BOND
     1   20    1 ar   
     2   21    1 ar   
     3   34    1 1    
     4   15    2 ar   
     5   16    2 ar   
     6   35    2 1    
     7    4    3 ar   
     8   16    3 ar   
     9   19    3 1    
    10    5    4 ar   
    11   36    4 1    
    12   15    5 ar   
    13   17    5 1    
    14    7    6 ar   
    15   10    6 ar   
    16   37    6 1    
    17    8    7 ar   
    18   33    7 1    
    19    9    8 ar   
    20   38    8 1    
    21   13    9 ar   
    22   17    9 1    
    23   13   10 ar   
    24   39   10 1    
    25   12   11 1    
    26   18   11 3    
    27   17   12 1    
    28   40   12 1    
    29   41   12 1    
    30   32   13 1    
    31   19   14 1    
    32   20   14 ar   
    33   23   14 ar   
    34   42   19 1    
    35   43   20 1    
    36   22   21 ar   
    37   24   21 1    
    38   23   22 ar   
    39   44   22 1    
    40   45   23 1    
    41   25   24 1    
    42   26   25 1    
    43   46   25 1    
    44   47   25 1    
    45   27   26 1    
    46   31   26 1    
    47   48   26 1    
    48   28   27 1    
    49   49   27 1    
    50   50   27 1    
    51   29   28 1    
    52   30   28 1    
    53   51   28 1    
    54   52   29 1    
    55   53   29 1    
    56   54   29 1    
    57   55   30 1    
    58   56   30 1    
    59   57   30 1    
    60   61   31 1    
    61   58   33 1    
    62   59   33 1    
    63   60   33 1    
@<TRIPOS>SUBSTRUCTURE
     1 QQ21296     1 GROUP   
@<TRIPOS>SET

