#    Name: 1qzz_SAM_1_INTS_M
#    Modification time : Tue Mar 25 00:12:59 2014

@<TRIPOS>MOLECULE
1qzz_SAM_1_INTS_M
   65     0     9     0     0
SMALL
NO_CHARGES


@<TRIPOS>ATOM
      1 O          24.6660   29.5025   44.4565 O.2       1 ALC1        0.0000 
      2 O          25.2000   30.7610   44.3430 O.2       7 ALL1        0.0000 
      3 O          24.1320   28.2440   44.5700 O.2       4 ALP1        0.0000 
      4 O          24.3760   31.6670   45.0770 O.2       1 ALC1        0.0000 
      5 O          23.5520   32.5730   45.8110 O.2       4 ALP1        0.0000 
      6 CA         25.7880   29.6510   43.7210 C.3       3 GLC5        0.0000 
      7 CA         24.7130   31.3090   43.0530 C.3       9 GLL5        0.0000 
      8 CA         26.8630   27.9930   44.3890 C.3       6 GLP5        0.0000 
      9 CA         25.2785   29.7335   41.8800 C.3       3 GLC5        0.0000 
     10 CA         25.8440   28.1580   40.7070 C.3       6 GLP5        0.0000 
     11 N          26.3470   34.2455   42.6495 N.am      2 SEC2        0.0000 
     12 N          25.9510   33.2940   43.6440 N.am      8 SEL2        0.0000 
     13 N          26.7430   35.1970   41.6550 N.am      5 SEP2        0.0000 
     14 N          26.0970   33.8235   44.8880 N.am      2 SEC2        0.0000 
     15 N          26.2430   34.3530   46.1320 N.am      5 SEP2        0.0000 
     16 CA         22.5485   30.3525   44.8730 C.3       3 GLC5        0.0000 
     17 CA         23.1950   31.1150   42.9060 C.3       9 GLL5        0.0000 
     18 CA         21.9020   29.5900   46.8400 C.3       6 GLP5        0.0000 
     19 CA         24.3245   29.4440   41.1105 C.3       3 GLC5        0.0000 
     20 CA         22.8050   30.7300   41.5140 C.3       9 GLL5        0.0000 
     21 CA         21.0900   33.6470   43.4245 C.3       3 GLC5        0.0000 
     22 CA         20.3710   32.2390   42.0190 C.3       9 GLL5        0.0000 
     23 CA         21.8090   35.0550   44.8300 C.3       6 GLP5        0.0000 
     24 CA         18.8870   29.7800   41.2350 C.3       3 GLC5        0.0000 
     25 CA         20.4750   29.4520   42.4090 C.3       9 GLL5        0.0000 
     26 CA         17.2990   30.1080   40.0610 C.3       6 GLP5        0.0000 
     27 O          23.1545   26.7465   41.1655 O.2       1 ALC1        0.0000 
     28 O          22.4210   27.4470   40.2910 O.2       7 ALL1        0.0000 
     29 O          23.8880   26.0460   42.0400 O.2       4 ALP1        0.0000 
     30 O          22.2730   24.6825   40.5490 O.2       1 ALC1        0.0000 
     31 O          21.0420   25.1990   40.1410 O.2       7 ALL1        0.0000 
     32 O          23.5040   24.1660   40.9570 O.2       4 ALP1        0.0000 
     33 CA         22.2780   25.9790   43.9445 C.3       3 GLC5        0.0000 
     34 CA         20.7360   25.9260   42.4460 C.3       9 GLL5        0.0000 
     35 CA         23.8200   26.0320   45.4430 C.3       6 GLP5        0.0000 
     36 CA         20.4070   25.5055   44.5330 C.3       3 GLC5        0.0000 
     37 CA         20.0780   25.0850   46.6200 C.3       6 GLP5        0.0000 
     38 CA         20.0175   19.9640   45.3375 C.3       3 GLC5        0.0000 
     39 CA         19.2970   21.8100   44.5840 C.3       9 GLL5        0.0000 
     40 CA         20.7380   18.1180   46.0910 C.3       6 GLP5        0.0000 
     41 O          18.1470   19.8330   45.7120 O.2       1 ALC1        0.0000 
     42 O          18.2430   21.0400   44.9160 O.2       7 ALL1        0.0000 
     43 O          18.0510   18.6260   46.5080 O.2       4 ALP1        0.0000 
     44 N          20.6080   20.7345   46.2055 N.am      2 SEC2        0.0000 
     45 N          20.5440   21.4000   44.8740 N.am      8 SEL2        0.0000 
     46 N          20.6720   20.0690   47.5370 N.am      5 SEP2        0.0000 
     47 CA         23.3275   22.1800   43.6230 C.3       3 GLC5        0.0000 
     48 CA         21.5510   22.1850   44.5200 C.3       9 GLL5        0.0000 
     49 CA         25.1040   22.1750   42.7260 C.3       6 GLP5        0.0000 
     50 CA         20.8370   21.1450   43.0225 C.3       3 GLC5        0.0000 
     51 CA         20.1230   20.1050   41.5250 C.3       6 GLP5        0.0000 
     52 CA         21.1445   20.1515   45.3055 C.3       3 GLC5        0.0000 
     53 CA         21.3860   22.1795   46.6465 C.3       3 GLC5        0.0000 
     54 CA         21.2210   22.1740   48.7730 C.3       6 GLP5        0.0000 
     55 CA         20.3350   22.5420   42.1015 C.3       3 GLC5        0.0000 
     56 CA         20.2570   23.7590   43.5710 C.3       9 GLL5        0.0000 
     57 CA         20.4130   21.3250   40.6320 C.3       6 GLP5        0.0000 
     58 CA         19.4700   30.8648   40.3720 C.3       3 GLC5        0.0000 
     59 CA         20.9890   30.7260   41.2770 C.3       9 GLL5        0.0000 
     60 CA         18.2600   30.2470   39.0960 C.3       6 GLP5        0.0000 
     61 CA         19.5245   27.3895   39.7720 C.3       3 GLC5        0.0000 
     62 CA         21.0970   27.5960   40.8450 C.3       9 GLL5        0.0000 
     63 CA         18.2700   27.8770   38.6350 C.3       6 GLP5        0.0000 
     64 CA         19.6730   21.2645   42.8818 C.3       3 GLC5        0.0000 
     65 CA         19.1490   23.0380   43.8930 C.3       9 GLL5        0.0000 
@<TRIPOS>BOND
@<TRIPOS>SUBSTRUCTURE
     1 ALC1        1 GROUP        1 X    ALC  0     ROOT ALC X 1
     2 SEC2       11 GROUP        1 X    SEC  0     **** SEC X 2
     3 GLC5        6 GROUP        1 X    GLC  0     **** GLC X 6
     4 ALP1        3 GROUP        1 Y    ALP  0     ROOT ALP Y 8
     5 SEP2       13 GROUP        1 Y    SEP  0     **** SEP Y 9
     6 GLP5        8 GROUP        1 Y    GLP  0     **** GLP Y 13
     7 ALL1        2 GROUP        1 Z    ALL  0     ROOT ALL Z 15
     8 SEL2       12 GROUP        1 Z    SEL  0     **** SEL Z 16
     9 GLL5        7 GROUP        1 Z    GLL  0     **** GLL Z 20
@<TRIPOS>SET

