#    Name: 1qzz_SAM_1_ligand
#    Modification time : Tue Mar 25 00:12:59 2014

@<TRIPOS>MOLECULE
1qzz_SAM_1_ligand
   50    52     1     0     0
SMALL
NO_CHARGES


@<TRIPOS>ATOM
      1 N          25.2000   30.7610   44.3430 N.4       1 SAM635      0.0000 
      2 CA         24.7130   31.3090   43.0530 C.3       1 SAM635      0.0000 
      3 C          25.0750   32.7840   42.9150 C.2       1 SAM635      0.0000 
      4 O          25.9510   33.2940   43.6440 O.co2     1 SAM635      0.0000 
      5 OXT        24.4190   33.4310   42.0430 O.co2     1 SAM635      0.0000 
      6 CB         23.1950   31.1150   42.9060 C.3       1 SAM635      0.0000 
      7 CG         22.8050   30.7300   41.5140 C.3       1 SAM635      0.0000 
      8 SD         20.9890   30.7260   41.2770 S.3       1 SAM635      0.0000 
      9 CE         20.3710   32.2390   42.0190 C.3       1 SAM635      0.0000 
     10 C5'        20.4750   29.4520   42.4090 C.3       1 SAM635      0.0000 
     11 C4'        21.1760   28.1060   42.3040 C.3       1 SAM635      0.0000 
     12 O4'        20.5640   27.1030   43.1750 O.3       1 SAM635      0.0000 
     13 C3'        21.0970   27.5960   40.8450 C.3       1 SAM635      0.0000 
     14 O3'        22.4210   27.4470   40.2910 O.3       1 SAM635      0.0000 
     15 C2'        20.4610   26.2080   40.9730 C.3       1 SAM635      0.0000 
     16 O2'        21.0420   25.1990   40.1410 O.3       1 SAM635      0.0000 
     17 C1'        20.7360   25.9260   42.4460 C.3       1 SAM635      0.0000 
     18 N9         19.8570   24.8970   42.9330 N.pl3     1 SAM635      0.0000 
     19 C8         18.4940   24.8620   42.8510 C.2       1 SAM635      0.0000 
     20 N7         18.0660   23.7620   43.4190 N.2       1 SAM635      0.0000 
     21 C5         19.1490   23.0380   43.8930 C.ar      1 SAM635      0.0000 
     22 C6         19.2970   21.8100   44.5840 C.ar      1 SAM635      0.0000 
     23 N6         18.2430   21.0400   44.9160 N.pl3     1 SAM635      0.0000 
     24 N1         20.5440   21.4000   44.8740 N.ar      1 SAM635      0.0000 
     25 C2         21.5510   22.1850   44.5200 C.ar      1 SAM635      0.0000 
     26 N3         21.5030   23.3640   43.8910 N.ar      1 SAM635      0.0000 
     27 C4         20.2570   23.7590   43.5710 C.ar      1 SAM635      0.0000 
     28 H          25.1921   30.7707   42.2302 H         1 SAM635      0.0000 
     29 H          22.6975   32.0510   43.1902 H         1 SAM635      0.0000 
     30 H          22.8752   30.3396   43.6138 H         1 SAM635      0.0000 
     31 H          23.0575   29.7211   41.2423 H         1 SAM635      0.0000 
     32 H          23.1174   31.4236   40.7546 H         1 SAM635      0.0000 
     33 H          19.3972   29.3829   42.2214 H         1 SAM635      0.0000 
     34 H          20.6161   29.9268   43.3869 H         1 SAM635      0.0000 
     35 H          22.2187   28.2322   42.5435 H         1 SAM635      0.0000 
     36 H          20.4670   28.2150   40.2971 H         1 SAM635      0.0000 
     37 H          19.4094   26.3199   40.8670 H         1 SAM635      0.0000 
     38 H          21.7729   25.5824   42.5086 H         1 SAM635      0.0000 
     39 H          17.9579   25.5572   42.4322 H         1 SAM635      0.0000 
     40 H          17.3485   21.3601   44.6037 H         1 SAM635      0.0000 
     41 H          18.4487   20.2168   45.4453 H         1 SAM635      0.0000 
     42 H          22.5634   21.8223   44.7757 H         1 SAM635      0.0000 
     43 H          26.1937   30.8354   44.4266 H         1 SAM635      0.0000 
     44 H          24.8032   31.2425   45.1245 H         1 SAM635      0.0000 
     45 H          24.9688   29.7936   44.4465 H         1 SAM635      0.0000 
     46 H          20.5826   32.2873   42.9952 H         1 SAM635      0.0000 
     47 H          20.7687   33.0513   41.5924 H         1 SAM635      0.0000 
     48 H          19.3781   32.3176   41.9301 H         1 SAM635      0.0000 
     49 H          23.0018   27.2086   41.0694 H         1 SAM635      0.0000 
     50 H          21.9090   24.9675   40.5822 H         1 SAM635      0.0000 
@<TRIPOS>BOND
     1    2    1 1    
     2   43    1 1    
     3   44    1 1    
     4   45    1 1    
     5    3    2 1    
     6    6    2 1    
     7   28    2 1    
     8    4    3 ar   
     9    5    3 ar   
    10    7    6 1    
    11   29    6 1    
    12   30    6 1    
    13    8    7 1    
    14   31    7 1    
    15   32    7 1    
    16    9    8 1    
    17   10    8 1    
    18   46    9 1    
    19   47    9 1    
    20   48    9 1    
    21   11   10 1    
    22   33   10 1    
    23   34   10 1    
    24   12   11 1    
    25   13   11 1    
    26   35   11 1    
    27   17   12 1    
    28   14   13 1    
    29   15   13 1    
    30   36   13 1    
    31   49   14 1    
    32   16   15 1    
    33   17   15 1    
    34   37   15 1    
    35   50   16 1    
    36   18   17 1    
    37   38   17 1    
    38   19   18 1    
    39   27   18 1    
    40   20   19 2    
    41   39   19 1    
    42   21   20 1    
    43   22   21 ar   
    44   27   21 ar   
    45   23   22 1    
    46   24   22 ar   
    47   40   23 1    
    48   41   23 1    
    49   25   24 ar   
    50   26   25 ar   
    51   42   25 1    
    52   27   26 ar   
@<TRIPOS>SUBSTRUCTURE
     1 SAM635      1 GROUP   
@<TRIPOS>SET

