#    Name: 1u5r_ATP_2_INTS_M
#    Modification time : Tue Mar 25 06:10:23 2014

@<TRIPOS>MOLECULE
1u5r_ATP_2_INTS_M
   55     0    15     0     0
SMALL
NO_CHARGES


@<TRIPOS>ATOM
      1 Zn          7.8695   76.9950   -4.8440 Zn        4 ZIC7        0.0000 
      2 Zn          7.5120   77.0990   -6.0460 Zn       14 ZIL7        0.0000 
      3 Zn          8.2270   76.8910   -3.6420 Zn        9 ZIP7        0.0000 
      4 NZ         12.9020   78.7185   -5.3135 N.4       3 LYC4        0.0000 
      5 NZ         11.7260   78.9650   -6.5080 N.4      13 LYL4        0.0000 
      6 NZ         14.0780   78.4720   -4.1190 N.4       8 LYP4        0.0000 
      7 Zn         10.0635   79.6115   -3.8165 Zn        4 ZIC7        0.0000 
      8 Zn         10.0620   78.7960   -4.6440 Zn       14 ZIL7        0.0000 
      9 Zn         10.0650   80.4270   -2.9890 Zn        9 ZIP7        0.0000 
     10 NZ         13.4190   77.1700   -4.5065 N.4       3 LYC4        0.0000 
     11 NZ         12.7600   75.8680   -4.8940 N.4      13 LYL4        0.0000 
     12 N          13.4190   77.1700   -4.5065 N.am      2 SEC2        0.0000 
     13 N          12.7600   75.8680   -4.8940 N.am     12 SEL2        0.0000 
     14 N          14.0780   78.4720   -4.1190 N.am      7 SEP2        0.0000 
     15 Zn          9.3230   76.3385   -3.7485 Zn        4 ZIC7        0.0000 
     16 Zn         10.4190   75.7860   -3.8550 Zn       14 ZIL7        0.0000 
     17 CA         10.4770   72.4415   -9.1105 C.3       5 GLC5        0.0000 
     18 CA         10.2380   73.0410   -7.1420 C.3      15 GLL5        0.0000 
     19 CA         10.7160   71.8420  -11.0790 C.3      10 GLP5        0.0000 
     20 O           7.5515   72.4555   -4.4495 O.2       1 ALC1        0.0000 
     21 O           8.0360   72.6130   -6.0930 O.2      11 ALL1        0.0000 
     22 O           7.0670   72.2980   -2.8060 O.2       6 ALP1        0.0000 
     23 CA         11.0585   71.4290   -8.8955 C.3       5 GLC5        0.0000 
     24 CA         11.4010   71.0160   -6.7120 C.3      15 GLL5        0.0000 
     25 CA         13.3635   71.5460   -7.4155 C.3       5 GLC5        0.0000 
     26 CA         15.3260   72.0760   -8.1190 C.3      10 GLP5        0.0000 
     27 CA         14.5360   67.4955   -3.1565 C.3       5 GLC5        0.0000 
     28 CA         15.1920   69.3010   -4.0590 C.3      15 GLL5        0.0000 
     29 CA         13.8800   65.6900   -2.2540 C.3      10 GLP5        0.0000 
     30 O          17.3160   68.7000   -2.8530 O.2       1 ALC1        0.0000 
     31 O          16.1480   69.5700   -3.1880 O.2      11 ALL1        0.0000 
     32 O          18.4840   67.8300   -2.5180 O.2       6 ALP1        0.0000 
     33 N          15.4565   66.6465   -4.0855 N.am      2 SEC2        0.0000 
     34 N          15.0640   68.0120   -4.5510 N.am     12 SEL2        0.0000 
     35 N          15.8490   65.2810   -3.6200 N.am      7 SEP2        0.0000 
     36 CA         14.4185   67.8210   -7.2195 C.3       5 GLC5        0.0000 
     37 CA         14.0880   67.7250   -5.4390 C.3      15 GLL5        0.0000 
     38 CA         14.7490   67.9170   -9.0000 C.3      10 GLP5        0.0000 
     39 CA         16.1205   68.3930   -5.7360 C.3       5 GLC5        0.0000 
     40 CA         18.1530   69.0610   -6.0330 C.3      10 GLP5        0.0000 
     41 CA         13.9840   66.7075   -3.8465 C.3       5 GLC5        0.0000 
     42 CA         14.0375   68.9055   -7.2125 C.3       5 GLC5        0.0000 
     43 CA         13.3260   69.8940   -5.4250 C.3      15 GLL5        0.0000 
     44 CA         12.5265   69.4370   -3.4190 C.3       5 GLC5        0.0000 
     45 CA         11.7270   68.9800   -1.4130 C.3      10 GLP5        0.0000 
     46 CA         12.2735   73.8570   -7.5300 C.3       5 GLC5        0.0000 
     47 CA         10.7280   73.9910   -6.1460 C.3      15 GLL5        0.0000 
     48 CA         14.0640   74.1980   -8.4160 C.3      10 GLP5        0.0000 
     49 CA         14.5615   71.0905   -6.5450 C.3       5 GLC5        0.0000 
     50 CA         16.4415   69.4348   -5.1605 C.3       5 GLC5        0.0000 
     51 CA         14.2680   70.3160   -4.5170 C.3      15 GLL5        0.0000 
     52 CA         16.0320   71.4952   -4.2795 C.3       5 GLC5        0.0000 
     53 CA         17.3340   73.1820   -4.2710 C.3      10 GLP5        0.0000 
     54 CA         13.7355   69.9228   -2.6375 C.3       5 GLC5        0.0000 
     55 CA         12.7410   70.0370   -0.9870 C.3      10 GLP5        0.0000 
@<TRIPOS>BOND
@<TRIPOS>SUBSTRUCTURE
     1 ALC1       20 GROUP        1 X    ALC  0     ROOT ALC X 1
     2 SEC2       12 GROUP        1 X    SEC  0     **** SEC X 2
     3 LYC4        4 GROUP        1 X    LYC  0     **** LYC X 4
     4 ZIC7        1 GROUP        1 X    ZIC  0     **** ZIC X 5
     5 GLC5       17 GROUP        1 X    GLC  0     **** GLC X 6
     6 ALP1       22 GROUP        1 Y    ALP  0     ROOT ALP Y 8
     7 SEP2       14 GROUP        1 Y    SEP  0     **** SEP Y 9
     8 LYP4        6 GROUP        1 Y    LYP  0     **** LYP Y 11
     9 ZIP7        3 GROUP        1 Y    ZIP  0     **** ZIP Y 12
    10 GLP5       19 GROUP        1 Y    GLP  0     **** GLP Y 13
    11 ALL1       21 GROUP        1 Z    ALL  0     ROOT ALL Z 15
    12 SEL2       13 GROUP        1 Z    SEL  0     **** SEL Z 16
    13 LYL4        5 GROUP        1 Z    LYL  0     **** LYL Z 18
    14 ZIL7        2 GROUP        1 Z    ZIL  0     **** ZIL Z 19
    15 GLL5       18 GROUP        1 Z    GLL  0     **** GLL Z 20
@<TRIPOS>SET

