#    Name: 1u5r_ATP_2_ligand
#    Modification time : Tue Mar 25 06:10:23 2014

@<TRIPOS>MOLECULE
1u5r_ATP_2_ligand
   43    45     1     0     0
SMALL
NO_CHARGES


@<TRIPOS>ATOM
      1 PG          7.7740   78.2150   -6.9780 P.3       1 ATP412      0.0000 
      2 O1G         7.2250   79.5280   -6.5380 O.co2     1 ATP412      0.0000 
      3 O2G         7.5120   77.0990   -6.0460 O.co2     1 ATP412      0.0000 
      4 O3G         7.3270   77.8900   -8.3550 O.co2     1 ATP412      0.0000 
      5 PB         10.4410   78.6440   -6.0320 P.3       1 ATP412      0.0000 
      6 O1B        11.7260   78.9650   -6.5080 O.co2     1 ATP412      0.0000 
      7 O2B        10.0620   78.7960   -4.6440 O.co2     1 ATP412      0.0000 
      8 O3B         9.3380   78.3450   -7.0900 O.3       1 ATP412      0.0000 
      9 PA         11.3610   76.1580   -4.9050 P.3       1 ATP412      0.0000 
     10 O1A        12.7600   75.8680   -4.8940 O.co2     1 ATP412      0.0000 
     11 O2A        10.4190   75.7860   -3.8550 O.co2     1 ATP412      0.0000 
     12 O3A        10.7900   77.0290   -6.0540 O.3       1 ATP412      0.0000 
     13 O5'        11.3290   74.9180   -5.5990 O.3       1 ATP412      0.0000 
     14 C5'        10.7280   73.9910   -6.1460 C.3       1 ATP412      0.0000 
     15 C4'        10.2380   73.0410   -7.1420 C.3       1 ATP412      0.0000 
     16 O4'        11.4720   72.3110   -7.3940 O.3       1 ATP412      0.0000 
     17 C3'         9.4390   72.4450   -6.0560 C.3       1 ATP412      0.0000 
     18 O3'         8.0360   72.6130   -6.0930 O.3       1 ATP412      0.0000 
     19 C2'         9.9710   70.9930   -6.0270 C.3       1 ATP412      0.0000 
     20 O2'         9.0600   70.1890   -6.7460 O.3       1 ATP412      0.0000 
     21 C1'        11.4010   71.0160   -6.7120 C.3       1 ATP412      0.0000 
     22 N9         12.5710   70.9880   -5.7340 N.pl3     1 ATP412      0.0000 
     23 C8         13.1270   72.0120   -4.9620 C.2       1 ATP412      0.0000 
     24 N7         14.1370   71.6630   -4.2200 N.2       1 ATP412      0.0000 
     25 C5         14.2680   70.3160   -4.5170 C.ar      1 ATP412      0.0000 
     26 C6         15.1920   69.3010   -4.0590 C.ar      1 ATP412      0.0000 
     27 N6         16.1480   69.5700   -3.1880 N.pl3     1 ATP412      0.0000 
     28 N1         15.0640   68.0120   -4.5510 N.ar      1 ATP412      0.0000 
     29 C2         14.0880   67.7250   -5.4390 C.ar      1 ATP412      0.0000 
     30 N3         13.1650   68.5890   -5.9440 N.ar      1 ATP412      0.0000 
     31 C4         13.3260   69.8940   -5.4250 C.ar      1 ATP412      0.0000 
     32 H           9.4853   74.1257   -5.5253 H         1 ATP412      0.0000 
     33 H          10.8232   73.0300   -5.1384 H         1 ATP412      0.0000 
     34 H           9.7566   73.4550   -7.8361 H         1 ATP412      0.0000 
     35 H           9.8713   72.8886   -5.1005 H         1 ATP412      0.0000 
     36 H          10.0972   70.7086   -5.0175 H         1 ATP412      0.0000 
     37 H          11.4612   70.2310   -7.4045 H         1 ATP412      0.0000 
     38 H          12.7361   72.9435   -5.0111 H         1 ATP412      0.0000 
     39 H          16.7635   68.8147   -2.9630 H         1 ATP412      0.0000 
     40 H          16.1693   70.5045   -2.8327 H         1 ATP412      0.0000 
     41 H          14.0297   66.6978   -5.7899 H         1 ATP412      0.0000 
     42 H           7.8262   73.2084   -5.3175 H         1 ATP412      0.0000 
     43 H           8.1906   70.6811   -6.7027 H         1 ATP412      0.0000 
@<TRIPOS>BOND
     1    2    1 ar   
     2    3    1 ar   
     3    4    1 ar   
     4    8    1 1    
     5    6    5 ar   
     6    7    5 ar   
     7    8    5 1    
     8   12    5 1    
     9   10    9 ar   
    10   11    9 ar   
    11   12    9 1    
    12   13    9 1    
    13   14   13 1    
    14   15   14 1    
    15   32   14 1    
    16   33   14 1    
    17   16   15 1    
    18   17   15 1    
    19   34   15 1    
    20   21   16 1    
    21   18   17 1    
    22   19   17 1    
    23   35   17 1    
    24   42   18 1    
    25   20   19 1    
    26   21   19 1    
    27   36   19 1    
    28   43   20 1    
    29   22   21 1    
    30   37   21 1    
    31   23   22 1    
    32   31   22 1    
    33   24   23 2    
    34   38   23 1    
    35   25   24 1    
    36   26   25 ar   
    37   31   25 ar   
    38   27   26 1    
    39   28   26 ar   
    40   39   27 1    
    41   40   27 1    
    42   29   28 ar   
    43   30   29 ar   
    44   41   29 1    
    45   31   30 ar   
@<TRIPOS>SUBSTRUCTURE
     1 ATP412      1 GROUP   
@<TRIPOS>SET

