#    Name: 2ve3_REA_2_INTS_M
#    Modification time : Tue Mar 25 01:34:25 2014

@<TRIPOS>MOLECULE
2ve3_REA_2_INTS_M
   56     0     3     0     0
SMALL
NO_CHARGES


@<TRIPOS>ATOM
      1 CA         30.7750   35.6575   25.9570 C.3       1 GLC5        0.0000 
      2 CA         30.4970   35.3110   28.0400 C.3       3 GLL5        0.0000 
      3 CA         31.0530   36.0040   23.8740 C.3       2 GLP5        0.0000 
      4 CA         34.7355   35.2675   26.6880 C.3       1 GLC5        0.0000 
      5 CA         32.9770   35.1680   27.8450 C.3       3 GLL5        0.0000 
      6 CA         36.4940   35.3670   25.5310 C.3       2 GLP5        0.0000 
      7 CA         32.0150   35.5860   25.8595 C.3       1 GLC5        0.0000 
      8 CA         31.4925   31.2660   27.5070 C.3       1 GLC5        0.0000 
      9 CA         31.6120   31.7980   29.2560 C.3       3 GLL5        0.0000 
     10 CA         31.3730   30.7340   25.7580 C.3       2 GLP5        0.0000 
     11 CA         33.2755   33.0025   31.2330 C.3       1 GLC5        0.0000 
     12 CA         32.3090   31.4500   30.4990 C.3       3 GLL5        0.0000 
     13 CA         34.2420   34.5550   31.9670 C.3       2 GLP5        0.0000 
     14 CA         34.1870   30.7760   30.5800 C.3       1 GLC5        0.0000 
     15 CA         36.0650   30.1020   30.6610 C.3       2 GLP5        0.0000 
     16 CA         28.9530   32.9495   31.3095 C.3       1 GLC5        0.0000 
     17 CA         29.8830   34.2170   30.2400 C.3       3 GLL5        0.0000 
     18 CA         28.0230   31.6820   32.3790 C.3       2 GLP5        0.0000 
     19 CA         28.1430   33.7340   26.6665 C.3       1 GLC5        0.0000 
     20 CA         29.1870   33.2180   28.1170 C.3       3 GLL5        0.0000 
     21 CA         27.0990   34.2500   25.2160 C.3       2 GLP5        0.0000 
     22 CA         27.6035   32.3840   28.5960 C.3       1 GLC5        0.0000 
     23 CA         26.0200   31.5500   29.0750 C.3       2 GLP5        0.0000 
     24 CA         34.8135   34.4045   29.3820 C.3       1 GLC5        0.0000 
     25 CA         34.1260   32.9090   28.2980 C.3       3 GLL5        0.0000 
     26 CA         35.5010   35.9000   30.4660 C.3       2 GLP5        0.0000 
     27 CA         35.9115   32.6480   27.8890 C.3       1 GLC5        0.0000 
     28 CA         37.6970   32.3870   27.4800 C.3       2 GLP5        0.0000 
     29 CA         35.3100   34.1380   26.9145 C.3       1 GLC5        0.0000 
     30 CA         35.0955   31.5055   29.4795 C.3       1 GLC5        0.0000 
     31 CA         31.9225   27.3900   29.6410 C.3       1 GLC5        0.0000 
     32 CA         31.2970   29.0740   30.4310 C.3       3 GLL5        0.0000 
     33 CA         32.5480   25.7060   28.8510 C.3       2 GLP5        0.0000 
     34 CA         33.3483   35.6163   29.6347 C.3       1 GLC5        0.0000 
     35 CA         34.2960   35.6580   31.1410 C.3       2 GLP5        0.0000 
     36 CA         33.3278   36.9573   27.2787 C.3       1 GLC5        0.0000 
     37 CA         34.2550   38.3400   26.4290 C.3       2 GLP5        0.0000 
     38 CA         33.2733   34.5607   29.8487 C.3       1 GLC5        0.0000 
     39 CA         32.8670   33.7350   28.3300 C.3       3 GLL5        0.0000 
     40 CA         33.5950   29.3885   30.3008 C.3       1 GLC5        0.0000 
     41 CA         32.0230   30.1720   31.1540 C.3       3 GLL5        0.0000 
     42 CA         35.5300   29.1540   29.8090 C.3       2 GLP5        0.0000 
     43 CA         31.1803   31.3627   32.6804 C.3       1 GLC5        0.0000 
     44 CA         32.4290   30.0040   32.5450 C.3       3 GLL5        0.0000 
     45 CA         30.0630   32.3180   33.6750 C.3       2 GLP5        0.0000 
     46 CA         34.8441   29.8576   32.0753 C.3       1 GLC5        0.0000 
     47 CA         32.9211   29.2581   36.3790 C.3       1 GLC5        0.0000 
     48 CA         34.9230   28.9210   36.5030 C.3       3 GLL5        0.0000 
     49 CA         31.1730   29.5210   37.1540 C.3       2 GLP5        0.0000 
     50 CA         30.8181   32.6878   26.7979 C.3       1 GLC5        0.0000 
     51 CA         31.6340   33.1920   28.7830 C.3       3 GLL5        0.0000 
     52 CA         31.5550   31.9710   25.1420 C.3       2 GLP5        0.0000 
     53 CA         32.5395   32.8256   26.6674 C.3       1 GLC5        0.0000 
     54 CA         36.5675   27.9235   35.9021 C.3       1 GLC5        0.0000 
     55 CA         34.6070   28.5430   35.1760 C.3       3 GLL5        0.0000 
     56 CA         38.4210   27.9270   36.5340 C.3       2 GLP5        0.0000 
@<TRIPOS>BOND
@<TRIPOS>SUBSTRUCTURE
     1 GLC5        1 GROUP        1 X    GLC  0     ROOT GLC X 6
     2 GLP5        3 GROUP        1 Y    GLP  0     ROOT GLP Y 13
     3 GLL5        2 GROUP        1 Z    GLL  0     ROOT GLL Z 20
@<TRIPOS>SET

