#    Name: 2ve3_REA_2_ligand
#    Modification time : Tue Mar 25 01:34:25 2014

@<TRIPOS>MOLECULE
2ve3_REA_2_ligand
   49    49     1     0     0
SMALL
NO_CHARGES


@<TRIPOS>ATOM
      1 C1         30.3170   33.9900   28.7980 C.3       1 REA1445     0.0000 
      2 C2         30.4970   35.3110   28.0400 C.3       1 REA1445     0.0000 
      3 C3         31.8240   35.9810   28.4120 C.3       1 REA1445     0.0000 
      4 C4         32.9770   35.1680   27.8450 C.3       1 REA1445     0.0000 
      5 C5         32.8670   33.7350   28.3300 C.2       1 REA1445     0.0000 
      6 C6         31.6340   33.1920   28.7830 C.2       1 REA1445     0.0000 
      7 C7         31.6120   31.7980   29.2560 C.2       1 REA1445     0.0000 
      8 C8         32.3090   31.4500   30.4990 C.2       1 REA1445     0.0000 
      9 C9         32.0230   30.1720   31.1540 C.2       1 REA1445     0.0000 
     10 C10        32.4290   30.0040   32.5450 C.2       1 REA1445     0.0000 
     11 C11        33.6160   29.2570   32.9450 C.2       1 REA1445     0.0000 
     12 C12        34.2240   29.5960   34.2340 C.2       1 REA1445     0.0000 
     13 C13        34.6070   28.5430   35.1760 C.2       1 REA1445     0.0000 
     14 C14        34.9230   28.9210   36.5030 C.2       1 REA1445     0.0000 
     15 C15        34.7390   27.9810   37.6240 C.2       1 REA1445     0.0000 
     16 C16        29.8830   34.2170   30.2400 C.3       1 REA1445     0.0000 
     17 C17        29.1870   33.2180   28.1170 C.3       1 REA1445     0.0000 
     18 C18        34.1260   32.9090   28.2980 C.3       1 REA1445     0.0000 
     19 C19        31.2970   29.0740   30.4310 C.3       1 REA1445     0.0000 
     20 C20        34.6630   27.1080   34.7010 C.3       1 REA1445     0.0000 
     21 O1         33.6800   27.3120   37.7450 O.co2     1 REA1445     0.0000 
     22 O2         35.6400   27.8450   38.4830 O.co2     1 REA1445     0.0000 
     23 H          29.6756   35.9804   28.2881 H         1 REA1445     0.0000 
     24 H          30.4826   35.1140   26.9698 H         1 REA1445     0.0000 
     25 H          31.9081   36.0290   29.4908 H         1 REA1445     0.0000 
     26 H          31.8456   36.9816   27.9979 H         1 REA1445     0.0000 
     27 H          33.9167   35.5933   28.1797 H         1 REA1445     0.0000 
     28 H          32.9342   35.1888   26.7616 H         1 REA1445     0.0000 
     29 H          31.1277   31.0993   28.7352 H         1 REA1445     0.0000 
     30 H          32.9748   32.0821   30.8954 H         1 REA1445     0.0000 
     31 H          31.8499   30.4333   33.2793 H         1 REA1445     0.0000 
     32 H          33.9968   28.5508   32.3724 H         1 REA1445     0.0000 
     33 H          34.3797   30.5623   34.4738 H         1 REA1445     0.0000 
     34 H          35.2839   29.8490   36.7127 H         1 REA1445     0.0000 
     35 H          30.5542   34.7554   30.7495 H         1 REA1445     0.0000 
     36 H          29.0129   34.7070   30.2932 H         1 REA1445     0.0000 
     37 H          29.7643   33.3547   30.7323 H         1 REA1445     0.0000 
     38 H          29.3944   33.0251   27.1580 H         1 REA1445     0.0000 
     39 H          29.0165   32.3391   28.5626 H         1 REA1445     0.0000 
     40 H          28.3265   33.7271   28.1341 H         1 REA1445     0.0000 
     41 H          34.4924   32.8262   27.3712 H         1 REA1445     0.0000 
     42 H          34.8471   33.3091   28.8636 H         1 REA1445     0.0000 
     43 H          33.9698   31.9807   28.6355 H         1 REA1445     0.0000 
     44 H          31.7879   28.7819   29.6102 H         1 REA1445     0.0000 
     45 H          31.1801   28.2645   31.0063 H         1 REA1445     0.0000 
     46 H          30.3843   29.3611   30.1401 H         1 REA1445     0.0000 
     47 H          35.3160   26.9896   33.9529 H         1 REA1445     0.0000 
     48 H          34.9396   26.4851   35.4328 H         1 REA1445     0.0000 
     49 H          33.7747   26.7923   34.3674 H         1 REA1445     0.0000 
@<TRIPOS>BOND
     1    2    1 1    
     2    6    1 1    
     3   16    1 1    
     4   17    1 1    
     5    3    2 1    
     6   23    2 1    
     7   24    2 1    
     8    4    3 1    
     9   25    3 1    
    10   26    3 1    
    11    5    4 1    
    12   27    4 1    
    13   28    4 1    
    14    6    5 2    
    15   18    5 1    
    16    7    6 1    
    17    8    7 2    
    18   29    7 1    
    19    9    8 1    
    20   30    8 1    
    21   10    9 2    
    22   19    9 1    
    23   11   10 1    
    24   31   10 1    
    25   12   11 2    
    26   32   11 1    
    27   13   12 1    
    28   33   12 1    
    29   14   13 2    
    30   20   13 1    
    31   15   14 1    
    32   34   14 1    
    33   21   15 ar   
    34   22   15 ar   
    35   35   16 1    
    36   36   16 1    
    37   37   16 1    
    38   38   17 1    
    39   39   17 1    
    40   40   17 1    
    41   41   18 1    
    42   42   18 1    
    43   43   18 1    
    44   44   19 1    
    45   45   19 1    
    46   46   19 1    
    47   47   20 1    
    48   48   20 1    
    49   49   20 1    
@<TRIPOS>SUBSTRUCTURE
     1 REA1445     1 GROUP   
@<TRIPOS>SET

