#    Name: 3fz1_B98_1_INTS_M
#    Modification time : Tue Mar 25 06:47:27 2014

@<TRIPOS>MOLECULE
3fz1_B98_1_INTS_M
   41     0     9     0     0
SMALL
NO_CHARGES


@<TRIPOS>ATOM
      1 CA         -3.5325   27.5205    9.4625 C.3       3 GLC5        0.0000 
      2 CA         -2.5480   28.6460   10.6870 C.3       9 GLL5        0.0000 
      3 CA         -4.5170   26.3950    8.2380 C.3       6 GLP5        0.0000 
      4 CA         -1.3075   24.3120    8.8890 C.3       3 GLC5        0.0000 
      5 CA         -1.3190   26.0480   10.1610 C.3       9 GLL5        0.0000 
      6 CA         -1.2960   22.5760    7.6170 C.3       6 GLP5        0.0000 
      7 CA         -3.3975   24.9380   11.7965 C.3       3 GLC5        0.0000 
      8 CA         -1.7010   25.9580   11.6220 C.3       9 GLL5        0.0000 
      9 CA         -5.0940   23.9180   11.9710 C.3       6 GLP5        0.0000 
     10 CA          1.1320   28.9165    5.5670 C.3       3 GLC5        0.0000 
     11 CA          2.0140   30.1650    6.7170 C.3       9 GLL5        0.0000 
     12 CA          0.2500   27.6680    4.4170 C.3       6 GLP5        0.0000 
     13 CA          0.1755   30.8365    5.9795 C.3       3 GLC5        0.0000 
     14 CA         -1.6630   31.5080    5.2420 C.3       6 GLP5        0.0000 
     15 CA          2.0415   30.6950    4.9000 C.3       3 GLC5        0.0000 
     16 CA          2.0690   31.2250    3.0830 C.3       6 GLP5        0.0000 
     17 CA          2.3215   31.1600    8.5540 C.3       3 GLC5        0.0000 
     18 CA          2.6290   32.1550   10.3910 C.3       6 GLP5        0.0000 
     19 O          -0.8435   27.0735   14.9070 O.2       1 ALC1        0.0000 
     20 O          -1.3130   26.3280   13.9740 O.2       7 ALL1        0.0000 
     21 O          -0.3740   27.8190   15.8400 O.2       4 ALP1        0.0000 
     22 N          -6.0015   28.2385   12.2120 N.am      2 SEC2        0.0000 
     23 N          -4.5780   28.0840   11.6970 N.am      8 SEL2        0.0000 
     24 N          -7.4250   28.3930   12.7270 N.am      5 SEP2        0.0000 
     25 N           2.7350   32.4680    6.5420 N.am      2 SEC2        0.0000 
     26 N           1.6230   31.4060    7.2860 N.am      8 SEL2        0.0000 
     27 N           3.8470   33.5300    5.7980 N.am      5 SEP2        0.0000 
     28 CA         -0.5028   33.9730    9.3180 C.3       3 GLC5        0.0000 
     29 CA         -0.3170   32.1980    8.3620 C.3       9 GLL5        0.0000 
     30 CA         -0.1270   35.8350    9.8860 C.3       6 GLP5        0.0000 
     31 CA         -2.0878   33.3960    8.1610 C.3       3 GLC5        0.0000 
     32 CA         -3.2970   34.6810    7.5720 C.3       6 GLP5        0.0000 
     33 CA         -0.6402   31.0067    6.7828 C.3       3 GLC5        0.0000 
     34 CA          0.5100   31.1400    8.0800 C.3       9 GLL5        0.0000 
     35 CA         -2.1633   28.3400    8.0623 C.3       3 GLC5        0.0000 
     36 CA         -0.8770   29.6740    9.3540 C.3       9 GLL5        0.0000 
     37 CA         -3.2000   27.6030    6.4640 C.3       6 GLP5        0.0000 
     38 CA         -1.4754   31.4725    7.2118 C.3       3 GLC5        0.0000 
     39 CA         -3.0135   26.1990    9.5648 C.3       3 GLC5        0.0000 
     40 CA          1.1907   31.4270    9.5394 C.3       3 GLC5        0.0000 
     41 CA          0.2550   29.8710    8.5670 C.3       9 GLL5        0.0000 
@<TRIPOS>BOND
@<TRIPOS>SUBSTRUCTURE
     1 ALC1       19 GROUP        1 X    ALC  0     ROOT ALC X 1
     2 SEC2       22 GROUP        1 X    SEC  0     **** SEC X 2
     3 GLC5        1 GROUP        1 X    GLC  0     **** GLC X 6
     4 ALP1       21 GROUP        1 Y    ALP  0     ROOT ALP Y 8
     5 SEP2       24 GROUP        1 Y    SEP  0     **** SEP Y 9
     6 GLP5        3 GROUP        1 Y    GLP  0     **** GLP Y 13
     7 ALL1       20 GROUP        1 Z    ALL  0     ROOT ALL Z 15
     8 SEL2       23 GROUP        1 Z    SEL  0     **** SEL Z 16
     9 GLL5        2 GROUP        1 Z    GLL  0     **** GLL Z 20
@<TRIPOS>SET

