#    Name: 3fz1_B98_1_ligand
#    Modification time : Tue Mar 25 06:47:27 2014

@<TRIPOS>MOLECULE
3fz1_B98_1_ligand
   34    36     1     0     0
SMALL
NO_CHARGES


@<TRIPOS>ATOM
      1 C4         -0.3170   32.1980    8.3620 C.ar      1 B98299      0.0000 
      2 C5         -1.4400   32.0240    9.1380 C.ar      1 B98299      0.0000 
      3 C19         0.2550   29.8710    8.5670 C.ar      1 B98299      0.0000 
      4 C18        -0.8770   29.6740    9.3540 C.ar      1 B98299      0.0000 
      5 C17        -1.3760   28.4800    9.9670 C.2       1 B98299      0.0000 
      6 C3          0.5100   31.1400    8.0800 C.ar      1 B98299      0.0000 
      7 C6         -1.6970   30.7630    9.6130 C.ar      1 B98299      0.0000 
      8 C8         -2.5480   28.6460   10.6870 C.2       1 B98299      0.0000 
      9 C9         -3.4180   27.7780   11.4520 C.2       1 B98299      0.0000 
     10 C15        -1.3190   26.0480   10.1610 C.3       1 B98299      0.0000 
     11 C12        -1.7010   25.9580   11.6220 C.3       1 B98299      0.0000 
     12 C1          2.0140   30.1650    6.7170 C.3       1 B98299      0.0000 
     13 C13        -0.6630   26.3890   12.6340 C.3       1 B98299      0.0000 
     14 N16        -0.6970   27.3120    9.8150 N.3       1 B98299      0.0000 
     15 N11        -2.9580   26.5700   11.9090 N.am      1 B98299      0.0000 
     16 N14        -1.3130   26.3280   13.9740 N.4       1 B98299      0.0000 
     17 O10        -4.5780   28.0840   11.6970 O.2       1 B98299      0.0000 
     18 O2          1.6230   31.4060    7.2860 O.3       1 B98299      0.0000 
     19 S7         -3.0310   30.2880   10.5950 S.3       1 B98299      0.0000 
     20 H          -0.0946   33.1404    7.9867 H         1 B98299      0.0000 
     21 H          -2.0571   32.8049    9.3509 H         1 B98299      0.0000 
     22 H           0.8797   29.0933    8.3569 H         1 B98299      0.0000 
     23 H          -2.2325   25.8841    9.5549 H         1 B98299      0.0000 
     24 H          -0.6401   25.2030    9.9294 H         1 B98299      0.0000 
     25 H          -1.8497   24.8281   11.8247 H         1 B98299      0.0000 
     26 H          -0.3478   27.3972   12.4168 H         1 B98299      0.0000 
     27 H           0.1773   25.7142   12.5949 H         1 B98299      0.0000 
     28 H          -3.6033   26.0023   12.5600 H         1 B98299      0.0000 
     29 H           2.8154   30.2630    6.1270 H         1 B98299      0.0000 
     30 H           2.2472   29.4917    7.4187 H         1 B98299      0.0000 
     31 H           1.2862   29.7666    6.1589 H         1 B98299      0.0000 
     32 H          -0.6870   26.6041   14.7033 H         1 B98299      0.0000 
     33 H          -2.1097   26.9300   14.0281 H         1 B98299      0.0000 
     34 H          -1.6282   25.4044   14.1922 H         1 B98299      0.0000 
@<TRIPOS>BOND
     1    2    1 ar   
     2    6    1 ar   
     3   20    1 1    
     4    7    2 ar   
     5   21    2 1    
     6    4    3 ar   
     7    6    3 ar   
     8   22    3 1    
     9    5    4 1    
    10    7    4 ar   
    11    8    5 2    
    12   14    5 1    
    13   18    6 1    
    14   19    7 1    
    15    9    8 1    
    16   19    8 1    
    17   15    9 am   
    18   17    9 2    
    19   11   10 1    
    20   14   10 1    
    21   23   10 1    
    22   24   10 1    
    23   13   11 1    
    24   15   11 1    
    25   25   11 1    
    26   18   12 1    
    27   29   12 1    
    28   30   12 1    
    29   31   12 1    
    30   16   13 1    
    31   26   13 1    
    32   27   13 1    
    33   28   15 1    
    34   32   16 1    
    35   33   16 1    
    36   34   16 1    
@<TRIPOS>SUBSTRUCTURE
     1 B98299      1 GROUP   
@<TRIPOS>SET

