#    Name: 3cld_GW6_2_INTS_M
#    Modification time : Mon Mar 24 21:49:00 2014

@<TRIPOS>MOLECULE
3cld_GW6_2_INTS_M
  101     0     9     0     0
SMALL
NO_CHARGES


@<TRIPOS>ATOM
      1 CA         32.2445   -7.8585  -45.4220 C.3       3 GLC5        0.0000 
      2 CA         32.8640   -5.8400  -44.9400 C.3       9 GLL5        0.0000 
      3 CA         31.6250   -9.8770  -45.9040 C.3       6 GLP5        0.0000 
      4 CA         34.5215   -6.7570  -44.6265 C.3       3 GLC5        0.0000 
      5 CA         36.1790   -7.6740  -44.3130 C.3       6 GLP5        0.0000 
      6 CA         31.3815   -5.7250  -46.5760 C.3       3 GLC5        0.0000 
      7 CA         29.8990   -5.6100  -48.2120 C.3       6 GLP5        0.0000 
      8 CA         32.8695   -2.7585  -45.1925 C.3       3 GLC5        0.0000 
      9 CA         32.5710   -4.5570  -44.1980 C.3       9 GLL5        0.0000 
     10 CA         33.1680   -0.9600  -46.1870 C.3       6 GLP5        0.0000 
     11 CA         35.3480   -4.8800  -44.0285 C.3       3 GLC5        0.0000 
     12 CA         33.6140   -4.3690  -43.1180 C.3       9 GLL5        0.0000 
     13 CA         37.0820   -5.3910  -44.9390 C.3       6 GLP5        0.0000 
     14 CA         34.5235   -6.8055  -40.6270 C.3       3 GLC5        0.0000 
     15 CA         34.5760   -4.8510  -40.2930 C.3       9 GLL5        0.0000 
     16 CA         34.4710   -8.7600  -40.9610 C.3       6 GLP5        0.0000 
     17 CA         37.8230   -5.7555  -38.4785 C.3       3 GLC5        0.0000 
     18 CA         36.2610   -5.2760  -38.7380 C.3       9 GLL5        0.0000 
     19 CA         39.3850   -6.2350  -38.2190 C.3       6 GLP5        0.0000 
     20 CA         35.9060   -7.1305  -38.0930 C.3       3 GLC5        0.0000 
     21 CA         35.5510   -8.9850  -37.4480 C.3       6 GLP5        0.0000 
     22 CA         35.0340   -6.9360  -37.1160 C.3       3 GLC5        0.0000 
     23 CA         34.5170   -4.8870  -36.7840 C.3       9 GLL5        0.0000 
     24 N          34.2800   -3.9025  -34.1115 N.am      2 SEC2        0.0000 
     25 N          33.7720   -5.2690  -34.6070 N.am      8 SEL2        0.0000 
     26 N          34.7880   -2.5360  -33.6160 N.am      5 SEP2        0.0000 
     27 CA         31.1085   -3.4370  -34.1370 C.3       3 GLC5        0.0000 
     28 CA         32.3490   -3.9170  -35.8680 C.3       9 GLL5        0.0000 
     29 CA         29.8680   -2.9570  -32.4060 C.3       6 GLP5        0.0000 
     30 CA         30.1435   -4.0795  -37.4500 C.3       3 GLC5        0.0000 
     31 CA         32.1980   -3.3050  -37.0420 C.3       9 GLL5        0.0000 
     32 CA         28.0890   -4.8540  -37.8580 C.3       6 GLP5        0.0000 
     33 CA         34.5265   -0.2810  -39.3755 C.3       3 GLC5        0.0000 
     34 CA         33.6270   -1.9220  -38.3800 C.3       9 GLL5        0.0000 
     35 CA         35.4260    1.3600  -40.3710 C.3       6 GLP5        0.0000 
     36 CA         35.4370   -1.4415  -37.5055 C.3       3 GLC5        0.0000 
     37 CA         37.2470   -0.9610  -36.6310 C.3       6 GLP5        0.0000 
     38 CA         30.1165   -5.0255  -38.5090 C.3       3 GLC5        0.0000 
     39 CA         32.1440   -5.1970  -39.1600 C.3       9 GLL5        0.0000 
     40 CA         32.1025   -6.6895  -38.3185 C.3       3 GLC5        0.0000 
     41 CA         32.0610   -8.1820  -37.4770 C.3       6 GLP5        0.0000 
     42 CA         29.5910   -1.8155  -39.2395 C.3       3 GLC5        0.0000 
     43 CA         31.0960   -3.2610  -39.7780 C.3       9 GLL5        0.0000 
     44 CA         28.0860   -0.3700  -38.7010 C.3       6 GLP5        0.0000 
     45 O          30.0820   -1.2700  -40.5855 O.2       1 ALC1        0.0000 
     46 O          31.1820   -1.8440  -39.8060 O.2       7 ALL1        0.0000 
     47 O          28.9820   -0.6960  -41.3650 O.2       4 ALP1        0.0000 
     48 CA         33.8645   -1.8575  -42.7960 C.3       3 GLC5        0.0000 
     49 CA         31.7820   -2.1850  -42.6420 C.3       9 GLL5        0.0000 
     50 CA         35.9470   -1.5300  -42.9500 C.3       6 GLP5        0.0000 
     51 CA         32.2835   -0.8810  -43.8900 C.3       3 GLC5        0.0000 
     52 CA         32.7850    0.4230  -45.1380 C.3       6 GLP5        0.0000 
     53 CA         27.7010   -6.9415  -43.1300 C.3       3 GLC5        0.0000 
     54 CA         29.6100   -7.6840  -42.8750 C.3       9 GLL5        0.0000 
     55 CA         25.7920   -6.1990  -43.3850 C.3       6 GLP5        0.0000 
     56 CA         30.6175   -8.7805  -44.3895 C.3       3 GLC5        0.0000 
     57 CA         27.0905   -7.8105  -42.8720 C.3       3 GLC5        0.0000 
     58 CA         28.3890   -9.4220  -42.3590 C.3       9 GLL5        0.0000 
     59 CA         27.1530   -4.9900  -43.5620 C.3       3 GLC5        0.0000 
     60 CA         28.5140   -3.7810  -43.7390 C.3       9 GLL5        0.0000 
     61 CA         26.4705   -4.5775  -45.1170 C.3       3 GLC5        0.0000 
     62 CA         27.6720   -3.0180  -45.1380 C.3       9 GLL5        0.0000 
     63 CA         25.2690   -6.1370  -45.0960 C.3       6 GLP5        0.0000 
     64 CA         28.1145   -4.5035  -46.6910 C.3       3 GLC5        0.0000 
     65 CA         28.5570   -5.9890  -48.2440 C.3       6 GLP5        0.0000 
     66 CA         26.9045   -2.1820  -46.5995 C.3       3 GLC5        0.0000 
     67 CA         26.1370   -1.3460  -48.0610 C.3       6 GLP5        0.0000 
     68 CA         30.2510   -1.5815  -46.3830 C.3       3 GLC5        0.0000 
     69 CA         28.3980   -1.9350  -45.5240 C.3       9 GLL5        0.0000 
     70 CA         32.1040   -1.2280  -47.2420 C.3       6 GLP5        0.0000 
     71 CA         27.9685   -1.6240  -47.0910 C.3       3 GLC5        0.0000 
     72 CA         27.5390   -1.3130  -48.6580 C.3       6 GLP5        0.0000 
     73 CA         34.5705   -2.9500  -42.7198 C.3       3 GLC5        0.0000 
     74 CA         32.7740   -4.3710  -41.8610 C.3       9 GLL5        0.0000 
     75 CA         35.4670   -3.4235  -41.1130 C.3       3 GLC5        0.0000 
     76 CA         33.4380   -3.9070  -40.5950 C.3       9 GLL5        0.0000 
     77 CA         36.9270   -2.4680  -41.7820 C.3       6 GLP5        0.0000 
     78 CA         36.3485   -3.6498  -40.3357 C.3       3 GLC5        0.0000 
     79 CA         35.2790   -4.3870  -39.0410 C.3       9 GLL5        0.0000 
     80 CA         36.6475   -3.6307  -37.9262 C.3       3 GLC5        0.0000 
     81 CA         37.5250   -2.4300  -36.9630 C.3       6 GLP5        0.0000 
     82 CA         35.9675   -3.4940  -37.1585 C.3       3 GLC5        0.0000 
     83 CA         34.3030   -4.2290  -37.9240 C.3       9 GLL5        0.0000 
     84 CA         32.0198   -1.7490  -36.0925 C.3       3 GLC5        0.0000 
     85 CA         31.7660    0.1130  -35.7300 C.3       6 GLP5        0.0000 
     86 CA         32.5735   -1.2595  -37.0062 C.3       3 GLC5        0.0000 
     87 CA         29.4490   -4.1740  -39.1510 C.3       3 GLC5        0.0000 
     88 CA         31.6887   -8.6980  -42.2700 C.3       3 GLC5        0.0000 
     89 CA         29.9290   -8.0020  -41.5730 C.3       9 GLL5        0.0000 
     90 CA         33.6080   -9.5530  -42.3160 C.3       6 GLP5        0.0000 
     91 CA         28.9812   -7.9373  -39.8450 C.3       3 GLC5        0.0000 
     92 CA         28.4290   -7.3100  -38.2830 C.3       6 GLP5        0.0000 
     93 CA         27.8558  -10.6588  -41.1135 C.3       3 GLC5        0.0000 
     94 CA         29.1380   -9.1270  -41.2410 C.3       9 GLL5        0.0000 
     95 CA         26.9480  -12.0430  -40.4270 C.3       6 GLP5        0.0000 
     96 CA         29.6052  -10.9228  -41.8125 C.3       3 GLC5        0.0000 
     97 CA         30.4470  -12.5710  -41.8250 C.3       6 GLP5        0.0000 
     98 CA         26.2190   -1.7532  -44.8950 C.3       3 GLC5        0.0000 
     99 CA         24.4030   -1.0300  -44.4590 C.3       6 GLP5        0.0000 
    100 CA         28.0570   -0.6607  -45.2240 C.3       3 GLC5        0.0000 
    101 CA         28.0790    1.1550  -45.1170 C.3       6 GLP5        0.0000 
@<TRIPOS>BOND
@<TRIPOS>SUBSTRUCTURE
     1 ALC1       45 GROUP        1 X    ALC  0     ROOT ALC X 1
     2 SEC2       24 GROUP        1 X    SEC  0     **** SEC X 2
     3 GLC5        1 GROUP        1 X    GLC  0     **** GLC X 6
     4 ALP1       47 GROUP        1 Y    ALP  0     ROOT ALP Y 8
     5 SEP2       26 GROUP        1 Y    SEP  0     **** SEP Y 9
     6 GLP5        3 GROUP        1 Y    GLP  0     **** GLP Y 13
     7 ALL1       46 GROUP        1 Z    ALL  0     ROOT ALL Z 15
     8 SEL2       25 GROUP        1 Z    SEL  0     **** SEL Z 16
     9 GLL5        2 GROUP        1 Z    GLL  0     **** GLL Z 20
@<TRIPOS>SET

