#    Name: 3cld_GW6_2_ligand
#    Modification time : Mon Mar 24 21:49:00 2014

@<TRIPOS>MOLECULE
3cld_GW6_2_ligand
   66    70     1     0     0
SMALL
NO_CHARGES


@<TRIPOS>ATOM
      1 C1         32.8640   -5.8400  -44.9400 C.3       1 GW62        0.0000 
      2 C2         32.5710   -4.5570  -44.1980 C.3       1 GW62        0.0000 
      3 C3         33.6140   -4.3690  -43.1180 C.3       1 GW62        0.0000 
      4 C4         32.7740   -4.3710  -41.8610 C.3       1 GW62        0.0000 
      5 C5         33.4380   -3.9070  -40.5950 C.3       1 GW62        0.0000 
      6 C6         34.5760   -4.8510  -40.2930 C.3       1 GW62        0.0000 
      7 C7         35.2790   -4.3870  -39.0410 C.3       1 GW62        0.0000 
      8 F1         36.2610   -5.2760  -38.7380 F         1 GW62        0.0000 
      9 C8         34.3030   -4.2290  -37.9240 C.2       1 GW62        0.0000 
     10 C9         34.5170   -4.8870  -36.7840 C.2       1 GW62        0.0000 
     11 C10        33.5590   -4.7300  -35.6790 C.2       1 GW62        0.0000 
     12 O1         33.7720   -5.2690  -34.6070 O.2       1 GW62        0.0000 
     13 C11        32.3490   -3.9170  -35.8680 C.2       1 GW62        0.0000 
     14 C12        32.1980   -3.3050  -37.0420 C.2       1 GW62        0.0000 
     15 C13        33.1350   -3.3420  -38.1850 C.3       1 GW62        0.0000 
     16 C14        33.6270   -1.9220  -38.3800 C.3       1 GW62        0.0000 
     17 C15        32.4490   -3.9000  -39.4340 C.3       1 GW62        0.0000 
     18 F2         32.1440   -5.1970  -39.1600 F         1 GW62        0.0000 
     19 C16        31.0960   -3.2610  -39.7780 C.3       1 GW62        0.0000 
     20 O2         31.1820   -1.8440  -39.8060 O.3       1 GW62        0.0000 
     21 C17        30.5220   -3.7270  -41.1100 C.3       1 GW62        0.0000 
     22 C18        31.5160   -3.6360  -42.2580 C.3       1 GW62        0.0000 
     23 C19        31.7820   -2.1850  -42.6420 C.3       1 GW62        0.0000 
     24 C20        31.2160   -4.4980  -43.4830 C.3       1 GW62        0.0000 
     25 O3         30.8350   -5.7880  -42.9730 O.3       1 GW62        0.0000 
     26 C21        30.0930   -6.6510  -43.7400 C.2       1 GW62        0.0000 
     27 O4         29.8930   -6.5780  -44.9490 O.2       1 GW62        0.0000 
     28 C22        29.6100   -7.6840  -42.8750 C.2       1 GW62        0.0000 
     29 C23        29.9290   -8.0020  -41.5730 C.2       1 GW62        0.0000 
     30 C24        29.1380   -9.1270  -41.2410 C.2       1 GW62        0.0000 
     31 C25        28.3890   -9.4220  -42.3590 C.2       1 GW62        0.0000 
     32 O5         28.6720   -8.5450  -43.3610 O.3       1 GW62        0.0000 
     33 C26        30.1510   -3.9120  -44.3990 C.2       1 GW62        0.0000 
     34 O6         30.4040   -3.5550  -45.5410 O.2       1 GW62        0.0000 
     35 S1         28.5140   -3.7810  -43.7390 S.3       1 GW62        0.0000 
     36 C27        27.6720   -3.0180  -45.1380 C.3       1 GW62        0.0000 
     37 F3         28.3980   -1.9350  -45.5240 F         1 GW62        0.0000 
     38 H          32.6444   -3.7135  -44.8677 H         1 GW62        0.0000 
     39 H          34.0913   -3.4326  -43.2344 H         1 GW62        0.0000 
     40 H          34.2803   -5.1901  -43.1109 H         1 GW62        0.0000 
     41 H          32.4519   -5.4456  -41.7241 H         1 GW62        0.0000 
     42 H          33.8287   -2.9207  -40.7353 H         1 GW62        0.0000 
     43 H          35.2753   -4.8552  -41.1227 H         1 GW62        0.0000 
     44 H          34.1875   -5.8529  -40.1422 H         1 GW62        0.0000 
     45 H          35.6921   -3.3916  -39.2677 H         1 GW62        0.0000 
     46 H          35.3120   -5.5033  -36.6191 H         1 GW62        0.0000 
     47 H          31.6976   -3.8654  -35.0997 H         1 GW62        0.0000 
     48 H          31.3245   -2.7105  -37.2314 H         1 GW62        0.0000 
     49 H          30.3792   -3.5686  -38.9963 H         1 GW62        0.0000 
     50 H          29.6371   -3.1187  -41.3512 H         1 GW62        0.0000 
     51 H          30.1834   -4.7693  -41.0091 H         1 GW62        0.0000 
     52 H          30.5371   -7.5777  -41.0086 H         1 GW62        0.0000 
     53 H          29.1394   -9.5686  -40.4169 H         1 GW62        0.0000 
     54 H          27.7532  -10.1523  -42.4151 H         1 GW62        0.0000 
     55 H          26.6992   -2.8408  -44.7008 H         1 GW62        0.0000 
     56 H          27.6269   -3.8598  -45.8149 H         1 GW62        0.0000 
     57 H          33.7674   -5.8232  -45.3684 H         1 GW62        0.0000 
     58 H          32.8426   -6.6338  -44.3322 H         1 GW62        0.0000 
     59 H          32.1981   -6.0092  -45.6666 H         1 GW62        0.0000 
     60 H          34.1137   -1.5837  -37.5746 H         1 GW62        0.0000 
     61 H          34.2558   -1.8498  -39.1542 H         1 GW62        0.0000 
     62 H          32.8732   -1.2885  -38.5546 H         1 GW62        0.0000 
     63 H          32.1859   -1.6690  -41.8866 H         1 GW62        0.0000 
     64 H          32.4125   -2.1150  -43.4150 H         1 GW62        0.0000 
     65 H          30.9420   -1.7105  -42.9050 H         1 GW62        0.0000 
     66 H          30.4087   -1.5489  -40.3672 H         1 GW62        0.0000 
@<TRIPOS>BOND
     1    2    1 1    
     2   57    1 1    
     3   58    1 1    
     4   59    1 1    
     5    3    2 1    
     6   24    2 1    
     7   38    2 1    
     8    4    3 1    
     9   39    3 1    
    10   40    3 1    
    11    5    4 1    
    12   22    4 1    
    13   41    4 1    
    14    6    5 1    
    15   17    5 1    
    16   42    5 1    
    17    7    6 1    
    18   43    6 1    
    19   44    6 1    
    20    8    7 1    
    21    9    7 1    
    22   45    7 1    
    23   10    9 2    
    24   15    9 1    
    25   11   10 1    
    26   46   10 1    
    27   12   11 2    
    28   13   11 1    
    29   14   13 2    
    30   47   13 1    
    31   15   14 1    
    32   48   14 1    
    33   16   15 1    
    34   17   15 1    
    35   60   16 1    
    36   61   16 1    
    37   62   16 1    
    38   18   17 1    
    39   19   17 1    
    40   20   19 1    
    41   21   19 1    
    42   49   19 1    
    43   66   20 1    
    44   22   21 1    
    45   50   21 1    
    46   51   21 1    
    47   23   22 1    
    48   24   22 1    
    49   63   23 1    
    50   64   23 1    
    51   65   23 1    
    52   25   24 1    
    53   33   24 1    
    54   26   25 1    
    55   27   26 2    
    56   28   26 1    
    57   29   28 2    
    58   32   28 1    
    59   30   29 1    
    60   52   29 1    
    61   31   30 2    
    62   53   30 1    
    63   32   31 1    
    64   54   31 1    
    65   34   33 2    
    66   35   33 1    
    67   36   35 1    
    68   37   36 1    
    69   55   36 1    
    70   56   36 1    
@<TRIPOS>SUBSTRUCTURE
     1 GW62        1 GROUP   
@<TRIPOS>SET

