#    Name: 2rgp_HYZ_1_INTS_M
#    Modification time : Mon Mar 24 23:56:45 2014

@<TRIPOS>MOLECULE
2rgp_HYZ_1_INTS_M
   90     0     9     0     0
SMALL
NO_CHARGES


@<TRIPOS>ATOM
      1 CA         14.6945   40.2940   99.3075 C.3       3 GLC5        0.0000 
      2 CA         14.7180   40.1160   97.0990 C.3       9 GLL5        0.0000 
      3 CA         14.6710   40.4720  101.5160 C.3       6 GLP5        0.0000 
      4 CA         16.1100   40.4520   99.5845 C.3       3 GLC5        0.0000 
      5 CA         16.0310   40.2220   97.6320 C.3       9 GLL5        0.0000 
      6 CA         16.1890   40.6820  101.5370 C.3       6 GLP5        0.0000 
      7 CA         17.0035   39.0950   99.5775 C.3       3 GLC5        0.0000 
      8 CA         16.8780   39.0760   97.6860 C.3       9 GLL5        0.0000 
      9 CA         17.1290   39.1140  101.4690 C.3       6 GLP5        0.0000 
     10 O          12.7190   33.6080   86.2035 O.2       1 ALC1        0.0000 
     11 O          13.9670   33.2580   86.9490 O.2       7 ALL1        0.0000 
     12 O          11.4710   33.9580   85.4580 O.2       4 ALP1        0.0000 
     13 CA         17.6695   35.3710   98.8900 C.3       3 GLC5        0.0000 
     14 CA         17.3230   36.5580   97.2600 C.3       9 GLL5        0.0000 
     15 CA         18.0160   34.1840  100.5200 C.3       6 GLP5        0.0000 
     16 CA         19.2605   36.4230   97.7510 C.3       3 GLC5        0.0000 
     17 CA         21.1980   36.2880   98.2420 C.3       6 GLP5        0.0000 
     18 CA         18.9205   37.7220   94.1715 C.3       3 GLC5        0.0000 
     19 CA         17.5140   36.1290   94.0760 C.3       9 GLL5        0.0000 
     20 CA         20.3270   39.3150   94.2670 C.3       6 GLP5        0.0000 
     21 CA         14.5005   32.6945   92.6985 C.3       3 GLC5        0.0000 
     22 CA         15.9650   33.8170   93.4030 C.3       9 GLL5        0.0000 
     23 CA         13.0360   31.5720   91.9940 C.3       6 GLP5        0.0000 
     24 CA         12.6660   32.1515   88.3490 C.3       3 GLC5        0.0000 
     25 CA         14.1240   33.6450   88.2640 C.3       9 GLL5        0.0000 
     26 CA         11.2080   30.6580   88.4340 C.3       6 GLP5        0.0000 
     27 CA         12.6355   34.9875   87.6540 C.3       3 GLC5        0.0000 
     28 CA         11.1470   36.3300   87.0440 C.3       6 GLP5        0.0000 
     29 CA         16.5080   35.4255   87.8745 C.3       3 GLC5        0.0000 
     30 CA         16.6440   33.3950   88.1860 C.3       9 GLL5        0.0000 
     31 CA         16.3720   37.4560   87.5630 C.3       6 GLP5        0.0000 
     32 CA         17.6800   30.2005   86.7875 C.3       3 GLC5        0.0000 
     33 CA         18.1270   31.9340   85.5370 C.3       9 GLL5        0.0000 
     34 CA         17.2330   28.4670   88.0380 C.3       6 GLP5        0.0000 
     35 CA         18.2000   29.9955   87.8890 C.3       3 GLC5        0.0000 
     36 CA         19.1670   31.5240   87.7400 C.3       9 GLL5        0.0000 
     37 CA         18.8680   30.8445   89.7870 C.3       3 GLC5        0.0000 
     38 CA         18.5690   30.1650   91.8340 C.3       6 GLP5        0.0000 
     39 CA         14.1430   36.6500   98.3570 C.3       3 GLC5        0.0000 
     40 CA         15.0830   37.7300   96.6750 C.3       9 GLL5        0.0000 
     41 CA         13.2030   35.5700  100.0390 C.3       6 GLP5        0.0000 
     42 CA         13.3290   36.4910   96.1155 C.3       3 GLC5        0.0000 
     43 CA         11.5750   35.2520   95.5560 C.3       6 GLP5        0.0000 
     44 CA         11.5695   39.7340   96.5960 C.3       3 GLC5        0.0000 
     45 CA         13.0110   38.7560   96.1180 C.3       9 GLL5        0.0000 
     46 CA         10.1280   40.7120   97.0740 C.3       6 GLP5        0.0000 
     47 CA         12.2930   37.0040   95.8370 C.3       3 GLC5        0.0000 
     48 N          11.5750   34.1390   88.5015 N.am      2 SEC2        0.0000 
     49 N          12.9540   33.9630   88.9110 N.am      8 SEL2        0.0000 
     50 N          10.1960   34.3150   88.0920 N.am      5 SEP2        0.0000 
     51 CA         16.2325   32.2895   90.9750 C.3       3 GLC5        0.0000 
     52 CA         15.3910   34.1200   90.2310 C.3       9 GLL5        0.0000 
     53 CA         17.0740   30.4590   91.7190 C.3       6 GLP5        0.0000 
     54 CA         13.0385   32.9620   91.0975 C.3       3 GLC5        0.0000 
     55 CA         13.0410   34.3520   90.2010 C.3       9 GLL5        0.0000 
     56 CA         12.7530   34.5125   92.3315 C.3       3 GLC5        0.0000 
     57 CA         12.4650   34.6730   94.4620 C.3       6 GLP5        0.0000 
     58 CA         11.2245   33.5845   90.0215 C.3       3 GLC5        0.0000 
     59 CA          9.4080   32.8170   89.8420 C.3       6 GLP5        0.0000 
     60 CA         12.0170   35.8170   89.2185 C.3       3 GLC5        0.0000 
     61 CA         10.9930   37.2820   88.2360 C.3       6 GLP5        0.0000 
     62 CA         13.8375   35.8760   89.7930 C.3       3 GLC5        0.0000 
     63 CA         14.6340   37.4000   89.3850 C.3       6 GLP5        0.0000 
     64 CA         17.8762   39.7625   96.4570 C.3       3 GLC5        0.0000 
     65 CA         19.2980   39.8760   95.2550 C.3       6 GLP5        0.0000 
     66 CA         18.0845   38.5295   96.2447 C.3       3 GLC5        0.0000 
     67 CA         16.4190   37.8080   97.2090 C.3       9 GLL5        0.0000 
     68 CA         17.1210   32.7545   95.2627 C.3       3 GLC5        0.0000 
     69 CA         16.0750   34.2210   94.7560 C.3       9 GLL5        0.0000 
     70 CA         18.2220   31.4900   96.4460 C.3       6 GLP5        0.0000 
     71 CA         17.3285   37.5577   92.4357 C.3       3 GLC5        0.0000 
     72 CA         17.2050   39.1950   91.4660 C.3       6 GLP5        0.0000 
     73 CA         18.8413   34.5774   94.3520 C.3       3 GLC5        0.0000 
     74 CA         17.3900   35.7120   92.7350 C.3       9 GLL5        0.0000 
     75 CA         20.3990   33.4270   95.0500 C.3       6 GLP5        0.0000 
     76 CA         16.6845   32.3272   92.3058 C.3       3 GLC5        0.0000 
     77 CA         16.6250   34.5740   92.3820 C.3       9 GLL5        0.0000 
     78 CA         14.3381   34.4881   94.3100 C.3       3 GLC5        0.0000 
     79 CA         15.4354   31.6547   88.4120 C.3       3 GLC5        0.0000 
     80 CA         15.3910   33.7190   88.8960 C.3       9 GLL5        0.0000 
     81 CA         15.1700   29.7710   88.4410 C.3       6 GLP5        0.0000 
     82 CA         20.8850   29.7585   87.2597 C.3       3 GLC5        0.0000 
     83 CA         21.5580   28.1420   87.9890 C.3       6 GLP5        0.0000 
     84 CA         12.3702   38.2832   97.8128 C.3       3 GLC5        0.0000 
     85 CA         14.2560   38.8690   96.6250 C.3       9 GLL5        0.0000 
     86 CA         11.1070   37.7540   99.2540 C.3       6 GLP5        0.0000 
     87 CA         13.1035   39.7836   94.8630 C.3       3 GLC5        0.0000 
     88 CA         12.4580   40.4430   93.2360 C.3       6 GLP5        0.0000 
     89 CA         14.0551   32.7365   90.6997 C.3       3 GLC5        0.0000 
     90 CA         14.8541   35.6505   89.3953 C.3       3 GLC5        0.0000 
@<TRIPOS>BOND
@<TRIPOS>SUBSTRUCTURE
     1 ALC1       10 GROUP        1 X    ALC  0     ROOT ALC X 1
     2 SEC2       48 GROUP        1 X    SEC  0     **** SEC X 2
     3 GLC5        1 GROUP        1 X    GLC  0     **** GLC X 6
     4 ALP1       12 GROUP        1 Y    ALP  0     ROOT ALP Y 8
     5 SEP2       50 GROUP        1 Y    SEP  0     **** SEP Y 9
     6 GLP5        3 GROUP        1 Y    GLP  0     **** GLP Y 13
     7 ALL1       11 GROUP        1 Z    ALL  0     ROOT ALL Z 15
     8 SEL2       49 GROUP        1 Z    SEL  0     **** SEL Z 16
     9 GLL5        2 GROUP        1 Z    GLL  0     **** GLL Z 20
@<TRIPOS>SET

