#    Name: 2rgp_HYZ_1_ligand
#    Modification time : Mon Mar 24 23:56:45 2014

@<TRIPOS>MOLECULE
2rgp_HYZ_1_ligand
   59    63     1     0     0
SMALL
NO_CHARGES


@<TRIPOS>ATOM
      1 C1         14.7180   40.1160   97.0990 C.ar      1 HYZ1        0.0000 
      2 C2         16.0310   40.2220   97.6320 C.ar      1 HYZ1        0.0000 
      3 C3         16.8780   39.0760   97.6860 C.ar      1 HYZ1        0.0000 
      4 N6         13.9670   33.2580   86.9490 N.pl3     1 HYZ1        0.0000 
      5 C7         17.3230   36.5580   97.2600 C.3       1 HYZ1        0.0000 
      6 C8         15.5850   33.7600   95.9940 C.2       1 HYZ1        0.0000 
      7 C9         16.0750   34.2210   94.7560 C.ar      1 HYZ1        0.0000 
      8 C10        16.8400   35.3580   95.0700 C.ar      1 HYZ1        0.0000 
      9 C11        17.5140   36.1290   94.0760 C.ar      1 HYZ1        0.0000 
     10 C12        17.3900   35.7120   92.7350 C.ar      1 HYZ1        0.0000 
     11 C13        16.6250   34.5740   92.3820 C.ar      1 HYZ1        0.0000 
     12 C14        15.9650   33.8170   93.4030 C.ar      1 HYZ1        0.0000 
     13 C15        14.1240   33.6450   88.2640 C.ar      1 HYZ1        0.0000 
     14 C16        15.3910   33.7190   88.8960 C.ar      1 HYZ1        0.0000 
     15 C19        16.6440   33.3950   88.1860 C.3       1 HYZ1        0.0000 
     16 C20        19.5090   31.9970   84.8580 C.3       1 HYZ1        0.0000 
     17 C21        18.1270   31.9340   85.5370 C.3       1 HYZ1        0.0000 
     18 C22        19.1670   31.5240   87.7400 C.3       1 HYZ1        0.0000 
     19 C24        20.5540   31.1900   85.6350 C.3       1 HYZ1        0.0000 
     20 C4         16.4190   37.8080   97.2090 C.ar      1 HYZ1        0.0000 
     21 C5         15.0830   37.7300   96.6750 C.ar      1 HYZ1        0.0000 
     22 C6         14.2560   38.8690   96.6250 C.ar      1 HYZ1        0.0000 
     23 F1         13.0110   38.7560   96.1180 F         1 HYZ1        0.0000 
     24 N1         16.7310   35.4930   96.4340 N.pl3     1 HYZ1        0.0000 
     25 N2         15.9710   34.5190   97.0190 N.2       1 HYZ1        0.0000 
     26 N3         16.5250   34.2480   91.0370 N.pl3     1 HYZ1        0.0000 
     27 N4         12.9540   33.9630   88.9110 N.ar      1 HYZ1        0.0000 
     28 C17        15.3910   34.1200   90.2310 C.ar      1 HYZ1        0.0000 
     29 N5         14.2120   34.4440   90.8920 N.ar      1 HYZ1        0.0000 
     30 C18        13.0410   34.3520   90.2010 C.ar      1 HYZ1        0.0000 
     31 N7         16.9000   32.2900   87.5590 N.3       1 HYZ1        0.0000 
     32 N8         18.1460   32.3440   86.9840 N.3       1 HYZ1        0.0000 
     33 C23        20.5730   31.5960   87.1120 C.3       1 HYZ1        0.0000 
     34 H          14.1178   40.9360   97.0610 H         1 HYZ1        0.0000 
     35 H          16.3703   41.1184   97.9772 H         1 HYZ1        0.0000 
     36 H          17.8202   39.1593   98.0680 H         1 HYZ1        0.0000 
     37 H          13.1616   33.6175   86.4777 H         1 HYZ1        0.0000 
     38 H          14.6723   32.6517   86.5816 H         1 HYZ1        0.0000 
     39 H          17.4084   36.2443   98.2978 H         1 HYZ1        0.0000 
     40 H          18.3070   36.8367   96.8901 H         1 HYZ1        0.0000 
     41 H          15.0176   32.9543   96.0535 H         1 HYZ1        0.0000 
     42 H          18.0523   36.9339   94.3296 H         1 HYZ1        0.0000 
     43 H          17.8663   36.2462   91.9922 H         1 HYZ1        0.0000 
     44 H          15.4234   32.9970   93.1512 H         1 HYZ1        0.0000 
     45 H          17.5006   33.6453   88.9733 H         1 HYZ1        0.0000 
     46 H          16.8351   34.3364   87.4836 H         1 HYZ1        0.0000 
     47 H          19.8276   33.0375   84.7999 H         1 HYZ1        0.0000 
     48 H          19.4250   31.5988   83.8471 H         1 HYZ1        0.0000 
     49 H          17.7447   30.9040   85.4472 H         1 HYZ1        0.0000 
     50 H          17.4363   32.5839   84.9753 H         1 HYZ1        0.0000 
     51 H          18.8509   30.4735   87.7656 H         1 HYZ1        0.0000 
     52 H          19.2305   31.8783   88.7766 H         1 HYZ1        0.0000 
     53 H          21.5370   31.3663   85.2023 H         1 HYZ1        0.0000 
     54 H          20.3182   30.1302   85.5578 H         1 HYZ1        0.0000 
     55 H          14.7432   36.8279   96.3307 H         1 HYZ1        0.0000 
     56 H          17.4786   34.0621   90.5263 H         1 HYZ1        0.0000 
     57 H          12.1405   34.6040   90.7156 H         1 HYZ1        0.0000 
     58 H          21.2396   30.9298   87.6603 H         1 HYZ1        0.0000 
     59 H          20.9479   32.6160   87.2006 H         1 HYZ1        0.0000 
@<TRIPOS>BOND
     1    2    1 ar   
     2   22    1 ar   
     3   34    1 1    
     4    3    2 ar   
     5   35    2 1    
     6   20    3 ar   
     7   36    3 1    
     8   13    4 1    
     9   37    4 1    
    10   38    4 1    
    11   20    5 1    
    12   24    5 1    
    13   39    5 1    
    14   40    5 1    
    15    7    6 1    
    16   25    6 2    
    17   41    6 1    
    18    8    7 ar   
    19   12    7 ar   
    20    9    8 ar   
    21   24    8 1    
    22   10    9 ar   
    23   42    9 1    
    24   11   10 ar   
    25   43   10 1    
    26   12   11 ar   
    27   26   11 1    
    28   44   12 1    
    29   14   13 ar   
    30   27   13 ar   
    31   15   14 1    
    32   28   14 ar   
    33   31   15 1    
    34   45   15 1    
    35   46   15 1    
    36   17   16 1    
    37   19   16 1    
    38   47   16 1    
    39   48   16 1    
    40   32   17 1    
    41   49   17 1    
    42   50   17 1    
    43   32   18 1    
    44   33   18 1    
    45   51   18 1    
    46   52   18 1    
    47   33   19 1    
    48   53   19 1    
    49   54   19 1    
    50   21   20 ar   
    51   22   21 ar   
    52   55   21 1    
    53   23   22 1    
    54   25   24 1    
    55   28   26 1    
    56   56   26 1    
    57   30   27 ar   
    58   29   28 ar   
    59   30   29 ar   
    60   57   30 1    
    61   32   31 1    
    62   58   33 1    
    63   59   33 1    
@<TRIPOS>SUBSTRUCTURE
     1 HYZ1        1 GROUP   
@<TRIPOS>SET

