#    Name: 2czf_XMP_2_INTS_M
#    Modification time : Tue Mar 25 01:24:38 2014

@<TRIPOS>MOLECULE
2czf_XMP_2_INTS_M
   51     0    12     0     0
SMALL
NO_CHARGES


@<TRIPOS>ATOM
      1 NZ         -5.7080  -11.0860   33.4515 N.4       3 LYC4        0.0000 
      2 NZ         -5.1670   -9.9300   33.7920 N.4      11 LYL4        0.0000 
      3 NZ         -7.4520  -12.7970   33.2040 N.4       7 LYP4        0.0000 
      4 N          -3.8085  -10.2095   33.1160 N.am      2 SEC2        0.0000 
      5 N          -5.1670   -9.9300   33.7920 N.am     10 SEL2        0.0000 
      6 N          -2.4500  -10.4890   32.4400 N.am      6 SEP2        0.0000 
      7 N          -5.7080  -11.0860   33.4515 N.am      2 SEC2        0.0000 
      8 N          -6.2490  -12.2420   33.1110 N.am      6 SEP2        0.0000 
      9 N          -5.7720   -6.2985   34.5010 N.am      2 SEC2        0.0000 
     10 N          -5.1510   -7.4560   34.4470 N.am     10 SEL2        0.0000 
     11 N          -6.3930   -5.1410   34.5550 N.am      6 SEP2        0.0000 
     12 N          -3.8675   -7.1145   34.5150 N.am      2 SEC2        0.0000 
     13 N          -2.5840   -6.7730   34.5830 N.am      6 SEP2        0.0000 
     14 N          -3.6640   -9.3490   32.1990 N.am      2 SEC2        0.0000 
     15 N          -4.8780   -8.2090   31.9580 N.am     10 SEL2        0.0000 
     16 N          -8.0180   -7.8565   34.0705 N.am      2 SEC2        0.0000 
     17 N          -7.1620   -8.4420   33.1640 N.am     10 SEL2        0.0000 
     18 N          -8.8740   -7.2710   34.9770 N.am      6 SEP2        0.0000 
     19 CA         -6.2235   -6.1420   32.7090 C.3       4 GLC5        0.0000 
     20 CA         -4.7390   -6.8900   31.4280 C.3      12 GLL5        0.0000 
     21 CA         -7.7080   -5.3940   33.9900 C.3       8 GLP5        0.0000 
     22 CA         -3.9775   -5.1550   28.9845 C.3       4 GLC5        0.0000 
     23 CA         -4.0900   -7.0340   30.0490 C.3      12 GLL5        0.0000 
     24 CA         -3.8650   -3.2760   27.9200 C.3       8 GLP5        0.0000 
     25 CA         -2.0485   -6.6475   30.6820 C.3       4 GLC5        0.0000 
     26 CA         -0.0070   -6.2610   31.3150 C.3       8 GLP5        0.0000 
     27 N          -2.7375   -9.2430   31.2835 N.am      2 SEC2        0.0000 
     28 N          -3.0250   -7.9970   30.1270 N.am     10 SEL2        0.0000 
     29 CA         -2.8970  -12.3285   31.8925 C.3       4 GLC5        0.0000 
     30 CA         -3.2510  -12.3580   29.7410 C.3      12 GLL5        0.0000 
     31 CA         -2.5430  -12.2990   34.0440 C.3       8 GLP5        0.0000 
     32 N          -4.0285   -5.6805   27.1255 N.am      2 SEC2        0.0000 
     33 N          -3.5020   -7.1350   27.2710 N.am     10 SEL2        0.0000 
     34 N          -4.5550   -4.2260   26.9800 N.am      6 SEP2        0.0000 
     35 N          -5.1895   -5.3945   27.7170 N.am      2 SEC2        0.0000 
     36 N          -5.8240   -6.5630   28.4540 N.am     10 SEL2        0.0000 
     37 O          -7.3875   -5.9415   28.0740 O.2       1 ALC1        0.0000 
     38 O          -5.8240   -6.5630   28.4540 O.2       9 ALL1        0.0000 
     39 O          -8.9510   -5.3200   27.6940 O.2       5 ALP1        0.0000 
     40 O          -6.9855   -6.6865   28.7790 O.2       1 ALC1        0.0000 
     41 O          -8.1470   -6.8100   29.1040 O.2       5 ALP1        0.0000 
     42 CA         -3.4813   -5.0305   31.1133 C.3       4 GLC5        0.0000 
     43 CA         -2.5480   -3.0990   31.4880 C.3       8 GLP5        0.0000 
     44 CA         -3.7195  -10.3827   27.4008 C.3       4 GLC5        0.0000 
     45 CA         -3.0580   -8.8200   28.9460 C.3      12 GLL5        0.0000 
     46 CA         -3.8580  -12.2590   26.3180 C.3       8 GLP5        0.0000 
     47 CA         -3.3825  -12.0270   27.9155 C.3       4 GLC5        0.0000 
     48 CA         -2.5630  -11.2320   29.2850 C.3      12 GLL5        0.0000 
     49 CA         -5.5644   -5.5825   30.4556 C.3       4 GLC5        0.0000 
     50 CA         -5.0830   -7.6300   29.0500 C.3      12 GLL5        0.0000 
     51 CA         -6.3800   -3.8690   31.0170 C.3       8 GLP5        0.0000 
@<TRIPOS>BOND
@<TRIPOS>SUBSTRUCTURE
     1 ALC1       37 GROUP        1 X    ALC  0     ROOT ALC X 1
     2 SEC2        4 GROUP        1 X    SEC  0     **** SEC X 2
     3 LYC4        1 GROUP        1 X    LYC  0     **** LYC X 4
     4 GLC5       19 GROUP        1 X    GLC  0     **** GLC X 6
     5 ALP1       39 GROUP        1 Y    ALP  0     ROOT ALP Y 8
     6 SEP2        6 GROUP        1 Y    SEP  0     **** SEP Y 9
     7 LYP4        3 GROUP        1 Y    LYP  0     **** LYP Y 11
     8 GLP5       21 GROUP        1 Y    GLP  0     **** GLP Y 13
     9 ALL1       38 GROUP        1 Z    ALL  0     ROOT ALL Z 15
    10 SEL2        5 GROUP        1 Z    SEL  0     **** SEL Z 16
    11 LYL4        2 GROUP        1 Z    LYL  0     **** LYL Z 18
    12 GLL5       20 GROUP        1 Z    GLL  0     **** GLL Z 20
@<TRIPOS>SET

