#    Name: 2czf_XMP_2_ligand
#    Modification time : Tue Mar 25 01:24:38 2014

@<TRIPOS>MOLECULE
2czf_XMP_2_ligand
   35    37     1     0     0
SMALL
NO_CHARGES


@<TRIPOS>ATOM
      1 P          -5.5700   -8.5730   33.3640 P.3       1 XMP209      0.0000 
      2 O1P        -5.1670   -9.9300   33.7920 O.co2     1 XMP209      0.0000 
      3 O2P        -5.1510   -7.4560   34.4470 O.co2     1 XMP209      0.0000 
      4 O5'        -4.8780   -8.2090   31.9580 O.3       1 XMP209      0.0000 
      5 O3P        -7.1620   -8.4420   33.1640 O.co2     1 XMP209      0.0000 
      6 C5'        -4.7390   -6.8900   31.4280 C.3       1 XMP209      0.0000 
      7 C4'        -4.0900   -7.0340   30.0490 C.3       1 XMP209      0.0000 
      8 O4'        -3.0250   -7.9970   30.1270 O.3       1 XMP209      0.0000 
      9 C1'        -3.0580   -8.8200   28.9460 C.3       1 XMP209      0.0000 
     10 N9         -3.4070  -10.2080   29.3360 N.pl3     1 XMP209      0.0000 
     11 C4         -2.5630  -11.2320   29.2850 C.2       1 XMP209      0.0000 
     12 N3         -1.2280  -11.3320   28.8790 N.am      1 XMP209      0.0000 
     13 N1         -1.2620  -13.6950   29.3900 N.am      1 XMP209      0.0000 
     14 C2         -0.5690  -12.5700   28.9240 C.2       1 XMP209      0.0000 
     15 O2          0.5890  -12.6700   28.5240 O.2       1 XMP209      0.0000 
     16 C6         -2.6000  -13.5850   29.7970 C.2       1 XMP209      0.0000 
     17 O6         -3.1920  -14.5780   30.2150 O.2       1 XMP209      0.0000 
     18 C5         -3.2510  -12.3580   29.7410 C.2       1 XMP209      0.0000 
     19 N7         -4.4810  -11.9620   30.0440 N.2       1 XMP209      0.0000 
     20 C8         -4.5740  -10.6550   29.7970 C.2       1 XMP209      0.0000 
     21 C2'        -4.1040   -8.1930   28.0210 C.3       1 XMP209      0.0000 
     22 O2'        -3.5020   -7.1350   27.2710 O.3       1 XMP209      0.0000 
     23 C3'        -5.0830   -7.6300   29.0500 C.3       1 XMP209      0.0000 
     24 O3'        -5.8240   -6.5630   28.4540 O.3       1 XMP209      0.0000 
     25 H          -4.0923   -6.2706   32.0386 H         1 XMP209      0.0000 
     26 H          -5.6965   -6.3995   31.2970 H         1 XMP209      0.0000 
     27 H          -3.7574   -6.1039   29.6983 H         1 XMP209      0.0000 
     28 H          -2.1107   -8.7943   28.4491 H         1 XMP209      0.0000 
     29 H          -0.7283  -10.4999   28.5475 H         1 XMP209      0.0000 
     30 H          -0.7887  -14.6053   29.4342 H         1 XMP209      0.0000 
     31 H          -5.3749  -10.1100   29.9334 H         1 XMP209      0.0000 
     32 H          -4.5631   -8.9340   27.4732 H         1 XMP209      0.0000 
     33 H          -5.6128   -8.3766   29.4825 H         1 XMP209      0.0000 
     34 H          -3.9292   -7.1824   26.3681 H         1 XMP209      0.0000 
     35 H          -6.7379   -6.9380   28.2987 H         1 XMP209      0.0000 
@<TRIPOS>BOND
     1    2    1 ar   
     2    3    1 ar   
     3    4    1 1    
     4    5    1 ar   
     5    6    4 1    
     6    7    6 1    
     7   25    6 1    
     8   26    6 1    
     9    8    7 1    
    10   23    7 1    
    11   27    7 1    
    12    9    8 1    
    13   10    9 1    
    14   21    9 1    
    15   28    9 1    
    16   11   10 1    
    17   20   10 1    
    18   12   11 1    
    19   18   11 2    
    20   14   12 am   
    21   29   12 1    
    22   14   13 1    
    23   16   13 am   
    24   30   13 1    
    25   15   14 2    
    26   17   16 2    
    27   18   16 1    
    28   19   18 1    
    29   20   19 2    
    30   31   20 1    
    31   22   21 1    
    32   23   21 1    
    33   32   21 1    
    34   34   22 1    
    35   24   23 1    
    36   33   23 1    
    37   35   24 1    
@<TRIPOS>SUBSTRUCTURE
     1 XMP209      1 GROUP   
@<TRIPOS>SET

