#    Name: 4jjz_ADP_1_INTS_M
#    Modification time : Tue Mar 25 05:57:08 2014

@<TRIPOS>MOLECULE
4jjz_ADP_1_INTS_M
   45     0    15     0     0
SMALL
NO_CHARGES


@<TRIPOS>ATOM
      1 Zn         22.2180   29.9300   76.8060 Zn        4 ZIC7        0.0000 
      2 Zn         22.9070   30.1200   77.6030 Zn       14 ZIL7        0.0000 
      3 Zn         21.5290   29.7400   76.0090 Zn        9 ZIP7        0.0000 
      4 N          23.4360   31.4345   77.3505 N.am      2 SEC2        0.0000 
      5 N          22.9070   30.1200   77.6030 N.am     12 SEL2        0.0000 
      6 N          23.9650   32.7490   77.0980 N.am      7 SEP2        0.0000 
      7 NZ         24.9140   27.9805   76.7600 N.4       3 LYC4        0.0000 
      8 NZ         24.6050   28.4430   78.2040 N.4      13 LYL4        0.0000 
      9 NZ         25.2230   27.5180   75.3160 N.4       8 LYP4        0.0000 
     10 N          25.2675   29.8655   78.3770 N.am      2 SEC2        0.0000 
     11 N          24.6050   28.4430   78.2040 N.am     12 SEL2        0.0000 
     12 N          25.9300   31.2880   78.5500 N.am      7 SEP2        0.0000 
     13 N          24.9140   27.9805   76.7600 N.am      2 SEC2        0.0000 
     14 N          25.2230   27.5180   75.3160 N.am      7 SEP2        0.0000 
     15 N          22.8525   33.2630   79.6125 N.am      2 SEC2        0.0000 
     16 N          22.5260   32.0400   80.0280 N.am     12 SEL2        0.0000 
     17 N          23.1790   34.4860   79.1970 N.am      7 SEP2        0.0000 
     18 N          22.3185   33.0650   80.9080 N.am      2 SEC2        0.0000 
     19 N          22.1110   34.0900   81.7880 N.am      7 SEP2        0.0000 
     20 CA         22.6590   27.3940   82.2110 C.3       5 GLC5        0.0000 
     21 CA         21.7210   29.2910   82.6560 C.3      15 GLL5        0.0000 
     22 CA         23.5970   25.4970   81.7660 C.3      10 GLP5        0.0000 
     23 CA         19.9475   33.7850   84.1095 C.3       5 GLC5        0.0000 
     24 CA         20.3430   31.8050   84.2110 C.3      15 GLL5        0.0000 
     25 CA         19.5520   35.7650   84.0080 C.3      10 GLP5        0.0000 
     26 O          19.0685   33.2750   83.4190 O.2       1 ALC1        0.0000 
     27 O          19.2950   32.7260   84.5950 O.2      11 ALL1        0.0000 
     28 O          18.8420   33.8240   82.2430 O.2       6 ALP1        0.0000 
     29 N          25.9320   32.8205   84.5425 N.am      2 SEC2        0.0000 
     30 N          24.4860   32.9310   84.9750 N.am     12 SEL2        0.0000 
     31 N          27.3780   32.7100   84.1100 N.am      7 SEP2        0.0000 
     32 CA         26.7320   32.7480   88.9270 C.3       5 GLC5        0.0000 
     33 CA         25.1830   33.2510   87.4690 C.3      15 GLL5        0.0000 
     34 CA         28.2810   32.2450   90.3850 C.3      10 GLP5        0.0000 
     35 CA         25.4825   33.0230   89.6095 C.3       5 GLC5        0.0000 
     36 CA         25.7820   32.7950   91.7500 C.3      10 GLP5        0.0000 
     37 O          27.2890   34.3090   85.9045 O.2       1 ALC1        0.0000 
     38 O          26.3820   33.8460   87.2540 O.2      11 ALL1        0.0000 
     39 O          28.1960   34.7720   84.5550 O.2       6 ALP1        0.0000 
     40 O          27.5935   34.2670   88.2300 O.2       1 ALC1        0.0000 
     41 O          28.8050   34.6880   89.2060 O.2       6 ALP1        0.0000 
     42 CA         24.6425   32.6070   90.3420 C.3       5 GLC5        0.0000 
     43 CA         23.5030   32.4190   88.9340 C.3      15 GLL5        0.0000 
     44 CA         24.7460   34.9585   86.8683 C.3       5 GLC5        0.0000 
     45 CA         24.7230   36.8600   86.8430 C.3      10 GLP5        0.0000 
@<TRIPOS>BOND
@<TRIPOS>SUBSTRUCTURE
     1 ALC1       26 GROUP        1 X    ALC  0     ROOT ALC X 1
     2 SEC2        4 GROUP        1 X    SEC  0     **** SEC X 2
     3 LYC4        7 GROUP        1 X    LYC  0     **** LYC X 4
     4 ZIC7        1 GROUP        1 X    ZIC  0     **** ZIC X 5
     5 GLC5       20 GROUP        1 X    GLC  0     **** GLC X 6
     6 ALP1       28 GROUP        1 Y    ALP  0     ROOT ALP Y 8
     7 SEP2        6 GROUP        1 Y    SEP  0     **** SEP Y 9
     8 LYP4        9 GROUP        1 Y    LYP  0     **** LYP Y 11
     9 ZIP7        3 GROUP        1 Y    ZIP  0     **** ZIP Y 12
    10 GLP5       22 GROUP        1 Y    GLP  0     **** GLP Y 13
    11 ALL1       27 GROUP        1 Z    ALL  0     ROOT ALL Z 15
    12 SEL2        5 GROUP        1 Z    SEL  0     **** SEL Z 16
    13 LYL4        8 GROUP        1 Z    LYL  0     **** LYL Z 18
    14 ZIL7        2 GROUP        1 Z    ZIL  0     **** ZIL Z 19
    15 GLL5       21 GROUP        1 Z    GLL  0     **** GLL Z 20
@<TRIPOS>SET

