#    Name: 4jjz_ADP_1_ligand
#    Modification time : Tue Mar 25 05:57:08 2014

@<TRIPOS>MOLECULE
4jjz_ADP_1_ligand
   39    41     1     0     0
SMALL
NO_CHARGES


@<TRIPOS>ATOM
      1 PB         23.1660   28.9270   78.4460 P.3       1 ADP602      0.0000 
      2 O1B        22.9070   30.1200   77.6030 O.co2     1 ADP602      0.0000 
      3 O2B        24.6050   28.4430   78.2040 O.co2     1 ADP602      0.0000 
      4 O3B        22.1070   27.8760   78.4070 O.co2     1 ADP602      0.0000 
      5 PA         22.0640   30.6630   80.4140 P.3       1 ADP602      0.0000 
      6 O1A        22.5260   32.0400   80.0280 O.co2     1 ADP602      0.0000 
      7 O2A        20.6510   30.2790   80.0250 O.co2     1 ADP602      0.0000 
      8 O3A        23.1560   29.5110   79.9920 O.3       1 ADP602      0.0000 
      9 O5'        22.0570   30.5250   82.0400 O.3       1 ADP602      0.0000 
     10 C5'        21.7210   29.2910   82.6560 C.3       1 ADP602      0.0000 
     11 C4'        20.8620   29.4750   83.9070 C.3       1 ADP602      0.0000 
     12 O4'        21.5900   29.9460   85.0570 O.3       1 ADP602      0.0000 
     13 C3'        19.7500   30.4910   83.7350 C.3       1 ADP602      0.0000 
     14 O3'        18.6890   30.1570   84.6360 O.3       1 ADP602      0.0000 
     15 C2'        20.3430   31.8050   84.2110 C.3       1 ADP602      0.0000 
     16 O2'        19.2950   32.7260   84.5950 O.3       1 ADP602      0.0000 
     17 C1'        21.2150   31.2990   85.3580 C.3       1 ADP602      0.0000 
     18 N9         22.4990   31.9740   85.4800 N.pl3     1 ADP602      0.0000 
     19 C8         23.3470   32.3550   84.4850 C.2       1 ADP602      0.0000 
     20 N7         24.4860   32.9310   84.9750 N.2       1 ADP602      0.0000 
     21 C5         24.3550   32.8630   86.3180 C.ar      1 ADP602      0.0000 
     22 C6         25.1830   33.2510   87.4690 C.ar      1 ADP602      0.0000 
     23 N6         26.3820   33.8460   87.2540 N.pl3     1 ADP602      0.0000 
     24 N1         24.7010   33.0060   88.7080 N.ar      1 ADP602      0.0000 
     25 C2         23.5030   32.4190   88.9340 C.ar      1 ADP602      0.0000 
     26 N3         22.6830   32.0410   87.9170 N.ar      1 ADP602      0.0000 
     27 C4         23.0560   32.2320   86.6330 C.ar      1 ADP602      0.0000 
     28 H          22.6255   28.7248   82.9576 H         1 ADP602      0.0000 
     29 H          21.1603   28.6286   81.9657 H         1 ADP602      0.0000 
     30 H          20.3823   28.5219   84.1524 H         1 ADP602      0.0000 
     31 H          19.4677   30.5614   82.7477 H         1 ADP602      0.0000 
     32 H          20.9789   32.1632   83.4421 H         1 ADP602      0.0000 
     33 H          20.6750   31.3324   86.2689 H         1 ADP602      0.0000 
     34 H          23.1645   32.2318   83.5268 H         1 ADP602      0.0000 
     35 H          26.6242   34.0154   86.2987 H         1 ADP602      0.0000 
     36 H          26.9182   34.0629   88.0698 H         1 ADP602      0.0000 
     37 H          23.1936   32.2484   89.9261 H         1 ADP602      0.0000 
     38 H          18.3351   31.0359   84.9560 H         1 ADP602      0.0000 
     39 H          19.0688   33.2240   83.7579 H         1 ADP602      0.0000 
@<TRIPOS>BOND
     1    2    1 ar   
     2    3    1 ar   
     3    4    1 ar   
     4    8    1 1    
     5    6    5 ar   
     6    7    5 ar   
     7    8    5 1    
     8    9    5 1    
     9   10    9 1    
    10   11   10 1    
    11   28   10 1    
    12   29   10 1    
    13   12   11 1    
    14   13   11 1    
    15   30   11 1    
    16   17   12 1    
    17   14   13 1    
    18   15   13 1    
    19   31   13 1    
    20   38   14 1    
    21   16   15 1    
    22   17   15 1    
    23   32   15 1    
    24   39   16 1    
    25   18   17 1    
    26   33   17 1    
    27   19   18 1    
    28   27   18 1    
    29   20   19 2    
    30   34   19 1    
    31   21   20 1    
    32   22   21 ar   
    33   27   21 ar   
    34   23   22 1    
    35   24   22 ar   
    36   35   23 1    
    37   36   23 1    
    38   25   24 ar   
    39   26   25 ar   
    40   37   25 1    
    41   27   26 ar   
@<TRIPOS>SUBSTRUCTURE
     1 ADP602      1 GROUP   
@<TRIPOS>SET

