#    Name: 3w0y_DS4_1_INTS_M
#    Modification time : Tue Mar 25 01:58:19 2014

@<TRIPOS>MOLECULE
3w0y_DS4_1_INTS_M
  142     0     9     0     0
SMALL
NO_CHARGES


@<TRIPOS>ATOM
      1 CA         16.3635   20.2385   31.7280 C.3       3 GLC5        0.0000 
      2 CA         14.3840   19.8890   32.5530 C.3       9 GLL5        0.0000 
      3 CA         18.3430   20.5880   30.9030 C.3       6 GLP5        0.0000 
      4 CA         11.9990   17.5625   32.5350 C.3       3 GLC5        0.0000 
      5 CA         12.9900   18.1960   34.3340 C.3       9 GLL5        0.0000 
      6 CA         11.0080   16.9290   30.7360 C.3       6 GLP5        0.0000 
      7 CA         15.5075   23.2155   31.7825 C.3       3 GLC5        0.0000 
      8 CA         13.6690   22.7130   32.2210 C.3       9 GLL5        0.0000 
      9 CA         17.3460   23.7180   31.3440 C.3       6 GLP5        0.0000 
     10 CA         15.5560   23.3615   34.3875 C.3       3 GLC5        0.0000 
     11 CA         13.9970   22.4860   34.6450 C.3       9 GLL5        0.0000 
     12 CA         17.1150   24.2370   34.1300 C.3       6 GLP5        0.0000 
     13 CA         12.3915   20.4530   36.8570 C.3       3 GLC5        0.0000 
     14 CA         13.6540   22.1370   36.1140 C.3       9 GLL5        0.0000 
     15 CA         11.1290   18.7690   37.6000 C.3       6 GLP5        0.0000 
     16 CA         14.0435   21.7230   38.0365 C.3       3 GLC5        0.0000 
     17 CA         14.4330   21.3090   39.9590 C.3       6 GLP5        0.0000 
     18 CA         11.6755   21.7900   29.5735 C.3       3 GLC5        0.0000 
     19 CA         13.0600   22.3460   30.8470 C.3       9 GLL5        0.0000 
     20 CA         10.2910   21.2340   28.3000 C.3       6 GLP5        0.0000 
     21 CA         12.3290   20.2860   30.5130 C.3       3 GLC5        0.0000 
     22 CA         11.5980   18.2260   30.1790 C.3       6 GLP5        0.0000 
     23 CA         14.3430   22.1470   29.3475 C.3       3 GLC5        0.0000 
     24 CA         15.6260   21.9480   27.8480 C.3       6 GLP5        0.0000 
     25 CA         12.6810   24.9930   34.9790 C.3       3 GLC5        0.0000 
     26 CA         11.3100   23.5110   34.1920 C.3       9 GLL5        0.0000 
     27 CA         14.0520   26.4750   35.7660 C.3       6 GLP5        0.0000 
     28 CA          8.5955   21.8010   31.0550 C.3       3 GLC5        0.0000 
     29 CA          9.2600   22.0580   32.8120 C.3       9 GLL5        0.0000 
     30 CA          7.9310   21.5440   29.2980 C.3       6 GLP5        0.0000 
     31 CA         10.0690   22.5450   30.8865 C.3       3 GLC5        0.0000 
     32 CA         10.6030   21.6180   32.7930 C.3       9 GLL5        0.0000 
     33 CA          9.5350   23.4720   28.9800 C.3       6 GLP5        0.0000 
     34 CA         11.1005   19.9220   31.4860 C.3       3 GLC5        0.0000 
     35 CA         17.0155   19.3275   31.2610 C.3       3 GLC5        0.0000 
     36 CA         15.6880   18.0670   31.6190 C.3       9 GLL5        0.0000 
     37 CA         16.7080   17.0160   30.6665 C.3       3 GLC5        0.0000 
     38 CA         17.7280   15.9650   29.7140 C.3       6 GLP5        0.0000 
     39 CA         15.6495   18.7460   29.8110 C.3       3 GLC5        0.0000 
     40 CA         15.6110   19.4250   28.0030 C.3       6 GLP5        0.0000 
     41 CA          8.2350   26.2440   33.6965 C.3       3 GLC5        0.0000 
     42 CA          9.7030   25.1710   34.9870 C.3       9 GLL5        0.0000 
     43 CA          6.7670   27.3170   32.4060 C.3       6 GLP5        0.0000 
     44 CA          9.4690   27.0310   35.6040 C.3       3 GLC5        0.0000 
     45 CA          9.2350   28.8910   36.2210 C.3       6 GLP5        0.0000 
     46 CA          8.1255   25.6395   36.1990 C.3       3 GLC5        0.0000 
     47 CA          6.5480   26.1080   37.4110 C.3       6 GLP5        0.0000 
     48 CA          7.1025   24.9875   35.5650 C.3       3 GLC5        0.0000 
     49 CA          7.6570   23.8670   33.7190 C.3       9 GLL5        0.0000 
     50 N           5.4640   25.6355   33.9560 N.am      1 SEC2        0.0000 
     51 N           4.9330   24.5060   34.5130 N.am      7 SEL2        0.0000 
     52 N           5.9950   26.7650   33.3990 N.am      4 SEP2        0.0000 
     53 N           5.3175   24.7940   35.8020 N.am      1 SEC2        0.0000 
     54 N           5.7020   25.0820   37.0910 N.am      4 SEP2        0.0000 
     55 CA          1.8505   23.7840   35.5745 C.3       3 GLC5        0.0000 
     56 CA          2.9710   22.6620   35.2360 C.3       9 GLL5        0.0000 
     57 CA          0.7300   24.9060   35.9130 C.3       6 GLP5        0.0000 
     58 CA          2.5515   21.9130   36.8725 C.3       3 GLC5        0.0000 
     59 CA          2.1320   21.1640   38.5090 C.3       6 GLP5        0.0000 
     60 CA          1.8445   24.3605   34.3325 C.3       3 GLC5        0.0000 
     61 CA          2.9590   23.8150   32.7520 C.3       9 GLL5        0.0000 
     62 CA          1.6015   22.9740   32.0705 C.3       3 GLC5        0.0000 
     63 CA          0.2440   22.1330   31.3890 C.3       6 GLP5        0.0000 
     64 CA          6.2050   21.8470   30.5555 C.3       3 GLC5        0.0000 
     65 CA          4.4790   22.1500   31.8130 C.3       9 GLL5        0.0000 
     66 CA          4.3700   20.6160   31.3445 C.3       3 GLC5        0.0000 
     67 CA          4.2610   19.0820   30.8760 C.3       6 GLP5        0.0000 
     68 CA          2.3615   22.1415   31.6010 C.3       3 GLC5        0.0000 
     69 CA          5.8500   25.0710   29.9620 C.3       3 GLC5        0.0000 
     70 CA          5.0180   24.5380   31.6690 C.3       9 GLL5        0.0000 
     71 CA          6.6820   25.6040   28.2550 C.3       6 GLP5        0.0000 
     72 CA          5.8925   25.9275   32.0375 C.3       3 GLC5        0.0000 
     73 CA          6.5625   22.1325   37.1805 C.3       3 GLC5        0.0000 
     74 CA          5.1840   22.2100   36.1120 C.3       9 GLL5        0.0000 
     75 CA          7.9410   22.0550   38.2490 C.3       6 GLP5        0.0000 
     76 CA          5.8660   24.1590   36.7615 C.3       3 GLC5        0.0000 
     77 CA          4.3255   20.0410   32.5020 C.3       3 GLC5        0.0000 
     78 CA          4.3900   21.0000   34.1280 C.3       9 GLL5        0.0000 
     79 CA          5.5630   19.8340   34.5220 C.3       3 GLC5        0.0000 
     80 CA          6.7360   18.6680   34.9160 C.3       6 GLP5        0.0000 
     81 CA         16.3560   16.9710   35.2320 C.3       3 GLC5        0.0000 
     82 CA         15.6010   15.7670   33.7660 C.3       9 GLL5        0.0000 
     83 CA         17.1110   18.1750   36.6980 C.3       6 GLP5        0.0000 
     84 CA         16.2660   12.2320   35.2745 C.3       3 GLC5        0.0000 
     85 CA         15.1220   11.9760   33.7890 C.3       9 GLL5        0.0000 
     86 CA         17.4100   12.4880   36.7600 C.3       6 GLP5        0.0000 
     87 CA         16.6465   12.1535   32.4785 C.3       3 GLC5        0.0000 
     88 CA         18.1710   12.3310   31.1680 C.3       6 GLP5        0.0000 
     89 CA         14.4185   12.2280   32.0115 C.3       3 GLC5        0.0000 
     90 CA         13.7150   12.4800   30.2340 C.3       6 GLP5        0.0000 
     91 CA         13.1155   11.0025   33.6685 C.3       3 GLC5        0.0000 
     92 CA         11.1090   10.0290   33.5480 C.3       6 GLP5        0.0000 
     93 N          15.5655    9.1230   35.5070 N.am      1 SEC2        0.0000 
     94 N          14.5750   10.0550   35.2240 N.am      7 SEL2        0.0000 
     95 N          16.5560    8.1910   35.7900 N.am      4 SEP2        0.0000 
     96 NZ         13.6940   11.5800   37.2085 N.4       2 LYC4        0.0000 
     97 NZ         14.0440   12.1080   35.9960 N.4       8 LYL4        0.0000 
     98 NZ         13.3760   11.8180   39.5010 N.4       5 LYP4        0.0000 
     99 N          13.6940   11.5800   37.2085 N.am      1 SEC2        0.0000 
    100 N          14.0440   12.1080   35.9960 N.am      7 SEL2        0.0000 
    101 N          13.3440   11.0520   38.4210 N.am      4 SEP2        0.0000 
    102 CA         13.0590   12.6900   31.8450 C.3       3 GLC5        0.0000 
    103 CA         12.4030   12.9000   33.4560 C.3       9 GLL5        0.0000 
    104 CA         11.2360   11.9300   33.5180 C.3       3 GLC5        0.0000 
    105 CA         10.0690   10.9600   33.5800 C.3       6 GLP5        0.0000 
    106 CA         15.2752   18.7007   34.6107 C.3       3 GLC5        0.0000 
    107 CA         14.6550   18.5190   32.5720 C.3       9 GLL5        0.0000 
    108 CA         16.2260   19.3090   36.1890 C.3       6 GLP5        0.0000 
    109 CA         15.0562   19.7358   34.5805 C.3       3 GLC5        0.0000 
    110 CA         12.4479   19.0446   31.9040 C.3       3 GLC5        0.0000 
    111 CA         11.9893   18.8245   35.9550 C.3       3 GLC5        0.0000 
    112 CA         12.7090   19.5640   34.2860 C.3       9 GLL5        0.0000 
    113 CA         14.5377   19.0945   35.2495 C.3       3 GLC5        0.0000 
    114 CA         13.0382   24.3788   31.0015 C.3       3 GLC5        0.0000 
    115 CA         12.7120   26.2280   30.4690 C.3       6 GLP5        0.0000 
    116 CA         15.0257   20.8102   35.7843 C.3       3 GLC5        0.0000 
    117 CA         13.9387   24.3933   35.5727 C.3       3 GLC5        0.0000 
    118 CA         10.2525   25.9290   33.0240 C.3       3 GLC5        0.0000 
    119 CA          9.9830   23.9290   34.2270 C.3       9 GLL5        0.0000 
    120 CA         10.6620   27.3080   31.4410 C.3       6 GLP5        0.0000 
    121 CA          8.8771   20.8986   33.9135 C.3       3 GLC5        0.0000 
    122 CA          8.9750   23.2390   33.5260 C.3       9 GLL5        0.0000 
    123 CA          7.8940   19.6640   34.8460 C.3       6 GLP5        0.0000 
    124 CA         13.3021   18.1529   31.2524 C.3       3 GLC5        0.0000 
    125 CA         13.9940   17.6660   33.4930 C.3       9 GLL5        0.0000 
    126 CA          7.5100   21.5785   34.3370 C.3       3 GLC5        0.0000 
    127 CA          6.9465   25.4050   33.1170 C.3       3 GLC5        0.0000 
    128 CA          6.5950   23.1190   33.9370 C.3       9 GLL5        0.0000 
    129 CA          5.3830   20.5443   35.8498 C.3       3 GLC5        0.0000 
    130 CA          4.4000   22.3370   34.8330 C.3       9 GLL5        0.0000 
    131 CA          5.9740   18.8150   36.2270 C.3       6 GLP5        0.0000 
    132 CA          4.0855   21.4073   37.0643 C.3       3 GLC5        0.0000 
    133 CA          3.3790   20.5410   38.6560 C.3       6 GLP5        0.0000 
    134 CA          3.7309   23.7545   30.6644 C.3       3 GLC5        0.0000 
    135 CA          4.4170   23.4690   32.5520 C.3       9 GLL5        0.0000 
    136 CA          2.9110   23.7920   29.3780 C.3       6 GLP5        0.0000 
    137 CA          3.1635   25.4300   31.8907 C.3       3 GLC5        0.0000 
    138 CA          1.9740   26.7700   31.6210 C.3       6 GLP5        0.0000 
    139 CA          2.3789   20.9219   34.7631 C.3       3 GLC5        0.0000 
    140 CA          0.7200   20.0940   34.9450 C.3       6 GLP5        0.0000 
    141 CA         12.3717   16.3300   32.1273 C.3       3 GLC5        0.0000 
    142 CA         13.2190   15.2580   33.4630 C.3       9 GLL5        0.0000 
@<TRIPOS>BOND
@<TRIPOS>SUBSTRUCTURE
     1 SEC2       50 GROUP        1 X    SEC  0     ROOT SEC X 2
     2 LYC4       96 GROUP        1 X    LYC  0     **** LYC X 4
     3 GLC5        1 GROUP        1 X    GLC  0     **** GLC X 6
     4 SEP2       52 GROUP        1 Y    SEP  0     ROOT SEP Y 9
     5 LYP4       98 GROUP        1 Y    LYP  0     **** LYP Y 11
     6 GLP5        3 GROUP        1 Y    GLP  0     **** GLP Y 13
     7 SEL2       51 GROUP        1 Z    SEL  0     ROOT SEL Z 16
     8 LYL4       97 GROUP        1 Z    LYL  0     **** LYL Z 18
     9 GLL5        2 GROUP        1 Z    GLL  0     **** GLL Z 20
@<TRIPOS>SET

