#    Name: 3w0y_DS4_1_ligand
#    Modification time : Tue Mar 25 01:58:19 2014

@<TRIPOS>MOLECULE
3w0y_DS4_1_ligand
   72    74     1     0     0
SMALL
NO_CHARGES


@<TRIPOS>ATOM
      1 C1         13.9940   17.6660   33.4930 C.ar      1 DS4501      0.0000 
      2 C2         14.6550   18.5190   32.5720 C.ar      1 DS4501      0.0000 
      3 C3         14.3840   19.8890   32.5530 C.ar      1 DS4501      0.0000 
      4 C4         13.3890   20.4360   33.3910 C.ar      1 DS4501      0.0000 
      5 C5         12.7090   19.5640   34.2860 C.ar      1 DS4501      0.0000 
      6 C6         12.9900   18.1960   34.3340 C.ar      1 DS4501      0.0000 
      7 C10        13.1240   21.9430   33.4480 C.3       1 DS4501      0.0000 
      8 C11        11.6330   22.3290   33.4980 C.ar      1 DS4501      0.0000 
      9 C12        13.6690   22.7130   32.2210 C.3       1 DS4501      0.0000 
     10 C13        13.9970   22.4860   34.6450 C.3       1 DS4501      0.0000 
     11 C14        13.6540   22.1370   36.1140 C.3       1 DS4501      0.0000 
     12 C20        13.0600   22.3460   30.8470 C.3       1 DS4501      0.0000 
     13 C26        11.3100   23.5110   34.1920 C.ar      1 DS4501      0.0000 
     14 C27         9.9830   23.9290   34.2270 C.ar      1 DS4501      0.0000 
     15 C28         8.9750   23.2390   33.5260 C.ar      1 DS4501      0.0000 
     16 C29         9.2600   22.0580   32.8120 C.ar      1 DS4501      0.0000 
     17 C30        10.6030   21.6180   32.7930 C.ar      1 DS4501      0.0000 
     18 C34        15.6880   18.0670   31.6190 C.3       1 DS4501      0.0000 
     19 C9          9.7030   25.1710   34.9870 C.3       1 DS4501      0.0000 
     20 C8          7.6570   23.8670   33.7190 C.2       1 DS4501      0.0000 
     21 C43         6.5950   23.1190   33.9370 C.2       1 DS4501      0.0000 
     22 C44         5.1030   23.3370   33.9130 C.3       1 DS4501      0.0000 
     23 O47         4.9330   24.5060   34.5130 O.3       1 DS4501      0.0000 
     24 C7          4.4000   22.3370   34.8330 C.3       1 DS4501      0.0000 
     25 F5          2.9710   22.6620   35.2360 F         1 DS4501      0.0000 
     26 C15         4.4170   23.4690   32.5520 C.3       1 DS4501      0.0000 
     27 F2          2.9590   23.8150   32.7520 F         1 DS4501      0.0000 
     28 F3          4.4790   22.1500   31.8130 F         1 DS4501      0.0000 
     29 F1          5.0180   24.5380   31.6690 F         1 DS4501      0.0000 
     30 F6          5.1840   22.2100   36.1120 F         1 DS4501      0.0000 
     31 F4          4.3900   21.0000   34.1280 F         1 DS4501      0.0000 
     32 C50        15.6010   15.7670   33.7660 C.ar      1 DS4501      0.0000 
     33 C51        14.2520   16.2040   33.5740 C.ar      1 DS4501      0.0000 
     34 C52        13.2190   15.2580   33.4630 C.ar      1 DS4501      0.0000 
     35 C53        13.5280   13.8980   33.5520 C.ar      1 DS4501      0.0000 
     36 C54        14.8610   13.4630   33.7320 C.ar      1 DS4501      0.0000 
     37 C55        15.9120   14.4040   33.8230 C.ar      1 DS4501      0.0000 
     38 C56        15.1220   11.9760   33.7890 C.3       1 DS4501      0.0000 
     39 C57        14.5490   11.3560   35.0590 C.2       1 DS4501      0.0000 
     40 O58        14.5750   10.0550   35.2240 O.co2     1 DS4501      0.0000 
     41 O59        14.0440   12.1080   35.9960 O.co2     1 DS4501      0.0000 
     42 F60        12.4030   12.9000   33.4560 F         1 DS4501      0.0000 
     43 H          14.9106   20.5098   31.9252 H         1 DS4501      0.0000 
     44 H          11.9900   19.9632   34.9129 H         1 DS4501      0.0000 
     45 H          12.4801   17.5814   34.9664 H         1 DS4501      0.0000 
     46 H          14.7675   22.5613   32.1706 H         1 DS4501      0.0000 
     47 H          13.5193   23.7993   32.3932 H         1 DS4501      0.0000 
     48 H          14.0323   23.6106   34.5477 H         1 DS4501      0.0000 
     49 H          15.0640   22.1734   34.4471 H         1 DS4501      0.0000 
     50 H          12.0400   24.0452   34.6576 H         1 DS4501      0.0000 
     51 H           8.5397   21.5483   32.3354 H         1 DS4501      0.0000 
     52 H          10.8578   20.7737   32.2672 H         1 DS4501      0.0000 
     53 H           7.6381   24.8954   33.6710 H         1 DS4501      0.0000 
     54 H           6.7924   22.0337   34.2152 H         1 DS4501      0.0000 
     55 H          16.3397   16.4728   33.8616 H         1 DS4501      0.0000 
     56 H          12.2575   15.5633   33.3194 H         1 DS4501      0.0000 
     57 H          16.8706   14.0905   33.9275 H         1 DS4501      0.0000 
     58 H          16.1998   11.7920   33.7582 H         1 DS4501      0.0000 
     59 H          14.6679   11.4910   32.9200 H         1 DS4501      0.0000 
     60 H          13.6801   21.1508   36.2772 H         1 DS4501      0.0000 
     61 H          14.2960   22.5573   36.7552 H         1 DS4501      0.0000 
     62 H          12.7391   22.4518   36.3666 H         1 DS4501      0.0000 
     63 H          13.4637   22.8832   30.1064 H         1 DS4501      0.0000 
     64 H          13.2042   21.3823   30.6223 H         1 DS4501      0.0000 
     65 H          12.0735   22.5082   30.8227 H         1 DS4501      0.0000 
     66 H          16.0273   18.8195   31.0545 H         1 DS4501      0.0000 
     67 H          16.4785   17.6726   32.0876 H         1 DS4501      0.0000 
     68 H          15.3378   17.3678   30.9957 H         1 DS4501      0.0000 
     69 H           9.9626   25.0843   35.9488 H         1 DS4501      0.0000 
     70 H          10.2042   25.9535   34.6175 H         1 DS4501      0.0000 
     71 H           8.7318   25.4084   34.9658 H         1 DS4501      0.0000 
     72 H           4.1768   25.1582   34.5667 H         1 DS4501      0.0000 
@<TRIPOS>BOND
     1    2    1 ar   
     2    6    1 ar   
     3   33    1 1    
     4    3    2 ar   
     5   18    2 1    
     6    4    3 ar   
     7   43    3 1    
     8    5    4 ar   
     9    7    4 1    
    10    6    5 ar   
    11   44    5 1    
    12   45    6 1    
    13    8    7 1    
    14    9    7 1    
    15   10    7 1    
    16   13    8 ar   
    17   17    8 ar   
    18   12    9 1    
    19   46    9 1    
    20   47    9 1    
    21   11   10 1    
    22   48   10 1    
    23   49   10 1    
    24   60   11 1    
    25   61   11 1    
    26   62   11 1    
    27   63   12 1    
    28   64   12 1    
    29   65   12 1    
    30   14   13 ar   
    31   50   13 1    
    32   15   14 ar   
    33   19   14 1    
    34   16   15 ar   
    35   20   15 1    
    36   17   16 ar   
    37   51   16 1    
    38   52   17 1    
    39   66   18 1    
    40   67   18 1    
    41   68   18 1    
    42   69   19 1    
    43   70   19 1    
    44   71   19 1    
    45   21   20 2    
    46   53   20 1    
    47   22   21 1    
    48   54   21 1    
    49   23   22 1    
    50   24   22 1    
    51   26   22 1    
    52   72   23 1    
    53   25   24 1    
    54   30   24 1    
    55   31   24 1    
    56   27   26 1    
    57   28   26 1    
    58   29   26 1    
    59   33   32 ar   
    60   37   32 ar   
    61   55   32 1    
    62   34   33 ar   
    63   35   34 ar   
    64   56   34 1    
    65   36   35 ar   
    66   42   35 1    
    67   37   36 ar   
    68   38   36 1    
    69   57   37 1    
    70   39   38 1    
    71   58   38 1    
    72   59   38 1    
    73   40   39 ar   
    74   41   39 ar   
@<TRIPOS>SUBSTRUCTURE
     1 DS4501      1 GROUP   
@<TRIPOS>SET

