#    Name: 4icc_64I_1_INTS_M
#    Modification time : Tue Mar 25 03:42:16 2014

@<TRIPOS>MOLECULE
4icc_64I_1_INTS_M
   59     0     6     0     0
SMALL
NO_CHARGES


@<TRIPOS>ATOM
      1 CA         -1.0050   30.3505   -4.8420 C.3       2 GLC5        0.0000 
      2 CA         -0.9500   29.1740   -5.4940 C.3       6 GLL5        0.0000 
      3 CA         -1.0600   31.5270   -4.1900 C.3       4 GLP5        0.0000 
      4 CA         -0.5515   30.6335   -6.0635 C.3       2 GLC5        0.0000 
      5 CA         -0.0430   29.7400   -7.9370 C.3       6 GLL5        0.0000 
      6 CA          0.3755   31.8945   -7.8815 C.3       2 GLC5        0.0000 
      7 CA          0.7940   34.0490   -7.8260 C.3       4 GLP5        0.0000 
      8 CA         -0.4930   30.6505   -9.6540 C.3       2 GLC5        0.0000 
      9 CA         -0.9430   31.5610  -11.3710 C.3       4 GLP5        0.0000 
     10 CA         -3.6340   25.5415  -11.3835 C.3       2 GLC5        0.0000 
     11 CA         -2.6840   26.2790   -9.7240 C.3       6 GLL5        0.0000 
     12 CA         -4.5840   24.8040  -13.0430 C.3       4 GLP5        0.0000 
     13 CA         -2.1885   24.7600  -10.4055 C.3       2 GLC5        0.0000 
     14 CA         -1.6930   23.2410  -11.0870 C.3       4 GLP5        0.0000 
     15 CA         -4.1710   24.1920   -6.9085 C.3       2 GLC5        0.0000 
     16 CA         -3.6340   25.7420   -7.2520 C.3       6 GLL5        0.0000 
     17 CA         -4.7080   22.6420   -6.5650 C.3       4 GLP5        0.0000 
     18 CA         -4.9110   26.4495   -8.1370 C.3       2 GLC5        0.0000 
     19 CA         -6.1880   27.1570   -9.0220 C.3       4 GLP5        0.0000 
     20 CA         -1.1525   23.4635   -3.7125 C.3       2 GLC5        0.0000 
     21 CA         -2.1400   24.8220   -5.0780 C.3       6 GLL5        0.0000 
     22 CA         -0.1650   22.1050   -2.3470 C.3       4 GLP5        0.0000 
     23 CA         -3.4240   23.7320   -5.8215 C.3       2 GLC5        0.0000 
     24 CA         -1.3125   23.9900   -6.6900 C.3       2 GLC5        0.0000 
     25 CA         -0.4850   23.1580   -8.3020 C.3       4 GLP5        0.0000 
     26 CA         -3.2230   30.4695   -3.5185 C.3       2 GLC5        0.0000 
     27 CA         -3.6670   29.3590   -4.6040 C.3       6 GLL5        0.0000 
     28 CA         -2.7790   31.5800   -2.4330 C.3       4 GLP5        0.0000 
     29 CA         -5.3725   28.9550   -4.3280 C.3       2 GLC5        0.0000 
     30 CA         -7.0780   28.5510   -4.0520 C.3       4 GLP5        0.0000 
     31 CA         -4.0885   28.0710   -0.5475 C.3       2 GLC5        0.0000 
     32 CA         -4.7700   28.6840   -2.2740 C.3       6 GLL5        0.0000 
     33 CA         -3.4070   27.4580    1.1790 C.3       4 GLP5        0.0000 
     34 CA         -5.9240   28.6175   -3.1630 C.3       2 GLC5        0.0000 
     35 N          -5.2130   26.7460   -0.3065 N.am      1 SEC2        0.0000 
     36 N          -4.6820   26.1460   -1.3580 N.am      5 SEL2        0.0000 
     37 N          -5.7440   27.3460    0.7450 N.am      3 SEP2        0.0000 
     38 N          -4.7575   24.9280   -0.9195 N.am      1 SEC2        0.0000 
     39 N          -4.8330   23.7100   -0.4810 N.am      3 SEP2        0.0000 
     40 CA         -2.2495   23.1250   -2.1060 C.3       2 GLC5        0.0000 
     41 CA         -3.2970   24.2300   -2.8110 C.3       6 GLL5        0.0000 
     42 CA         -1.2020   22.0200   -1.4010 C.3       4 GLP5        0.0000 
     43 CA         -3.5245   22.4525   -3.2565 C.3       2 GLC5        0.0000 
     44 CA         -3.7520   20.6750   -3.7020 C.3       4 GLP5        0.0000 
     45 CA         -4.0615   27.0130   -9.8257 C.3       2 GLC5        0.0000 
     46 CA         -2.2600   27.0010   -8.6810 C.3       6 GLL5        0.0000 
     47 CA         -5.6510   27.3860  -10.4490 C.3       4 GLP5        0.0000 
     48 CA         -4.2212   27.8283   -7.3937 C.3       2 GLC5        0.0000 
     49 CA         -2.7430   26.7200   -7.4110 C.3       6 GLL5        0.0000 
     50 CA         -5.9110   28.5770   -7.9250 C.3       4 GLP5        0.0000 
     51 CA         -1.7764   24.7296   -7.9755 C.3       2 GLC5        0.0000 
     52 CA         -4.7580   28.6485   -6.1653 C.3       2 GLC5        0.0000 
     53 CA         -3.5430   28.0810   -4.2070 C.3       6 GLL5        0.0000 
     54 CA         -3.9837   29.6590   -1.6478 C.3       2 GLC5        0.0000 
     55 CA         -4.1290   27.7490   -3.0070 C.3       6 GLL5        0.0000 
     56 CA         -2.9330   31.0140   -1.1220 C.3       4 GLP5        0.0000 
     57 CA         -4.3022   23.6515   -1.9160 C.3       2 GLC5        0.0000 
     58 CA         -3.3920   25.4960   -3.2590 C.3       6 GLL5        0.0000 
     59 CA         -5.2600   22.4400   -0.7970 C.3       4 GLP5        0.0000 
@<TRIPOS>BOND
@<TRIPOS>SUBSTRUCTURE
     1 SEC2       35 GROUP        1 X    SEC  0     ROOT SEC X 2
     2 GLC5        1 GROUP        1 X    GLC  0     **** GLC X 6
     3 SEP2       37 GROUP        1 Y    SEP  0     ROOT SEP Y 9
     4 GLP5        3 GROUP        1 Y    GLP  0     **** GLP Y 13
     5 SEL2       36 GROUP        1 Z    SEL  0     ROOT SEL Z 16
     6 GLL5        2 GROUP        1 Z    GLL  0     **** GLL Z 20
@<TRIPOS>SET

