#    Name: 4icc_64I_1_ligand
#    Modification time : Tue Mar 25 03:42:16 2014

@<TRIPOS>MOLECULE
4icc_64I_1_ligand
   22    23     1     0     0
SMALL
NO_CHARGES


@<TRIPOS>ATOM
      1 F15        -0.9500   29.1740   -5.4940 F         1 64I402      0.0000 
      2 C8         -1.4050   28.4550   -6.5230 C.ar      1 64I402      0.0000 
      3 C10        -0.9240   28.7420   -7.7860 C.ar      1 64I402      0.0000 
      4 F14        -0.0430   29.7400   -7.9370 F         1 64I402      0.0000 
      5 C12        -1.3490   28.0180   -8.8790 C.ar      1 64I402      0.0000 
      6 O13        -0.8770   28.3040  -10.1310 O.co2     1 64I402      0.0000 
      7 C11        -2.2600   27.0010   -8.6810 C.ar      1 64I402      0.0000 
      8 F17        -2.6840   26.2790   -9.7240 F         1 64I402      0.0000 
      9 C9         -2.7430   26.7200   -7.4110 C.ar      1 64I402      0.0000 
     10 F16        -3.6340   25.7420   -7.2520 F         1 64I402      0.0000 
     11 C7         -2.3200   27.4390   -6.3140 C.ar      1 64I402      0.0000 
     12 C2         -2.8450   27.1220   -4.9450 C.ar      1 64I402      0.0000 
     13 C4         -2.7810   25.8240   -4.4470 C.ar      1 64I402      0.0000 
     14 F22        -2.1400   24.8220   -5.0780 F         1 64I402      0.0000 
     15 C1         -3.5430   28.0810   -4.2070 C.ar      1 64I402      0.0000 
     16 F18        -3.6670   29.3590   -4.6040 F         1 64I402      0.0000 
     17 C3         -4.1290   27.7490   -3.0070 C.ar      1 64I402      0.0000 
     18 F19        -4.7700   28.6840   -2.2740 F         1 64I402      0.0000 
     19 C5         -4.0770   26.4560   -2.5380 C.ar      1 64I402      0.0000 
     20 O20        -4.6820   26.1460   -1.3580 O.co2     1 64I402      0.0000 
     21 C6         -3.3920   25.4960   -3.2590 C.ar      1 64I402      0.0000 
     22 F21        -3.2970   24.2300   -2.8110 F         1 64I402      0.0000 
@<TRIPOS>BOND
     1    2    1 1    
     2    3    2 ar   
     3   11    2 ar   
     4    4    3 1    
     5    5    3 ar   
     6    6    5 1    
     7    7    5 ar   
     8    8    7 1    
     9    9    7 ar   
    10   10    9 1    
    11   11    9 ar   
    12   12   11 1    
    13   13   12 ar   
    14   15   12 ar   
    15   14   13 1    
    16   21   13 ar   
    17   16   15 1    
    18   17   15 ar   
    19   18   17 1    
    20   19   17 ar   
    21   20   19 1    
    22   21   19 ar   
    23   22   21 1    
@<TRIPOS>SUBSTRUCTURE
     1 64I402      1 GROUP   
@<TRIPOS>SET

