#    Name: 3gww_SFX_1_INTS_M
#    Modification time : Tue Mar 25 13:11:12 2014

@<TRIPOS>MOLECULE
3gww_SFX_1_INTS_M
   55     0     6     0     0
SMALL
NO_CHARGES


@<TRIPOS>ATOM
      1 CA         29.0825   23.2405   17.6415 C.3       2 GLC5        0.0000 
      2 CA         28.6310   24.0470   19.2590 C.3       6 GLL5        0.0000 
      3 CA         29.5340   22.4340   16.0240 C.3       4 GLP5        0.0000 
      4 CA         29.4605   22.0750   19.8555 C.3       2 GLC5        0.0000 
      5 CA         30.2900   20.1030   20.4520 C.3       4 GLP5        0.0000 
      6 CA         25.4925   25.6885   18.4965 C.3       2 GLC5        0.0000 
      7 CA         26.6790   24.9030   19.5960 C.3       6 GLL5        0.0000 
      8 CA         24.3060   26.4740   17.3970 C.3       4 GLP5        0.0000 
      9 CA         24.9665   24.1525   19.4670 C.3       2 GLC5        0.0000 
     10 CA         23.2540   23.4020   19.3380 C.3       4 GLP5        0.0000 
     11 CA         25.7330   26.2800   20.3365 C.3       2 GLC5        0.0000 
     12 CA         24.7870   27.6570   21.0770 C.3       4 GLP5        0.0000 
     13 CA         29.2350   21.8485   24.7235 C.3       2 GLC5        0.0000 
     14 CA         27.7110   22.6790   23.4710 C.3       6 GLL5        0.0000 
     15 CA         30.7590   21.0180   25.9760 C.3       4 GLP5        0.0000 
     16 CA         27.4975   23.1845   25.6325 C.3       2 GLC5        0.0000 
     17 CA         27.2840   23.6900   27.7940 C.3       4 GLP5        0.0000 
     18 CA         24.7215   22.2245   21.2790 C.3       2 GLC5        0.0000 
     19 CA         26.6370   21.3170   21.7840 C.3       6 GLL5        0.0000 
     20 CA         22.8060   23.1320   20.7740 C.3       4 GLP5        0.0000 
     21 CA         25.0690   22.8520   20.0835 C.3       2 GLC5        0.0000 
     22 CA         26.8840   22.3020   20.8290 C.3       6 GLL5        0.0000 
     23 CA         29.3470   18.4300   23.6795 C.3       2 GLC5        0.0000 
     24 CA         27.9530   18.2080   25.0380 C.3       6 GLL5        0.0000 
     25 CA         30.7410   18.6520   22.3210 C.3       4 GLP5        0.0000 
     26 CA         29.3560   19.6130   25.5070 C.3       2 GLC5        0.0000 
     27 OD1        28.4085   16.9635   26.7270 O.co2     1 ASC3        0.0000 
     28 OD1        28.4010   16.8520   25.3040 O.co2     5 ASL3        0.0000 
     29 OD1        28.4160   17.0750   28.1500 O.co2     3 ASP3        0.0000 
     30 CA         27.4085   16.3975   22.7110 C.3       2 GLC5        0.0000 
     31 CA         28.9220   16.0250   24.2290 C.3       6 GLL5        0.0000 
     32 CA         25.8950   16.7700   21.1930 C.3       4 GLP5        0.0000 
     33 CA         29.8315   17.3385   23.2750 C.3       2 GLC5        0.0000 
     34 CA         28.5407   26.9703   20.3323 C.3       2 GLC5        0.0000 
     35 CA         28.3760   25.5930   20.7270 C.3       6 GLL5        0.0000 
     36 CA         28.9870   28.8750   20.2170 C.3       4 GLP5        0.0000 
     37 CA         26.8568   26.3272   21.3222 C.3       2 GLC5        0.0000 
     38 CA         25.6190   27.5890   22.1970 C.3       4 GLP5        0.0000 
     39 CA         28.4186   25.7822   18.5469 C.3       2 GLC5        0.0000 
     40 CA         28.9240   26.4690   16.9030 C.3       4 GLP5        0.0000 
     41 CA         29.9530   24.2809   21.1996 C.3       2 GLC5        0.0000 
     42 CA         31.6070   23.6190   22.1790 C.3       4 GLP5        0.0000 
     43 CA         29.6690   23.3720   22.4215 C.3       2 GLC5        0.0000 
     44 CA         27.9580   23.6640   22.5170 C.3       6 GLL5        0.0000 
     45 CA         26.0700   17.8177   22.8038 C.3       2 GLC5        0.0000 
     46 CA         26.0580   19.3770   23.8770 C.3       6 GLL5        0.0000 
     47 CA         25.0460   18.0972   22.2758 C.3       2 GLC5        0.0000 
     48 CA         24.5980   19.6850   23.8680 C.3       6 GLL5        0.0000 
     49 CA         22.6410   17.9857   21.3253 C.3       2 GLC5        0.0000 
     50 CA         23.7960   19.1640   22.8490 C.3       6 GLL5        0.0000 
     51 CA         22.1700   16.6690   19.8180 C.3       4 GLP5        0.0000 
     52 CA         22.4735   21.4883   22.0408 C.3       2 GLC5        0.0000 
     53 CA         22.4280   19.4410   22.8160 C.3       6 GLL5        0.0000 
     54 CA         20.5925   20.3418   22.1093 C.3       2 GLC5        0.0000 
     55 CA         19.0440   20.8390   20.9110 C.3       4 GLP5        0.0000 
@<TRIPOS>BOND
@<TRIPOS>SUBSTRUCTURE
     1 ASC3       27 GROUP        1 X    ASC  0     ROOT ASC X 3
     2 GLC5        1 GROUP        1 X    GLC  0     **** GLC X 6
     3 ASP3       29 GROUP        1 Y    ASP  0     ROOT ASP Y 10
     4 GLP5        3 GROUP        1 Y    GLP  0     **** GLP Y 13
     5 ASL3       28 GROUP        1 Z    ASL  0     ROOT ASL Z 17
     6 GLL5        2 GROUP        1 Z    GLL  0     **** GLL Z 20
@<TRIPOS>SET

