#    Name: 3gww_SFX_1_ligand
#    Modification time : Tue Mar 25 13:11:12 2014

@<TRIPOS>MOLECULE
3gww_SFX_1_ligand
   39    40     1     0     0
SMALL
NO_CHARGES


@<TRIPOS>ATOM
      1 F15        28.6310   24.0470   19.2590 F         1 SFX801      0.0000 
      2 C12        27.8130   24.5380   20.1680 C.3       1 SFX801      0.0000 
      3 F13        26.6790   24.9030   19.5960 F         1 SFX801      0.0000 
      4 F14        28.3760   25.5930   20.7270 F         1 SFX801      0.0000 
      5 C9         27.5440   23.4780   21.1970 C.ar      1 SFX801      0.0000 
      6 C8         27.9580   23.6640   22.5170 C.ar      1 SFX801      0.0000 
      7 C7         27.7110   22.6790   23.4710 C.ar      1 SFX801      0.0000 
      8 C6         27.0500   21.5070   23.1090 C.ar      1 SFX801      0.0000 
      9 C11        26.6370   21.3170   21.7840 C.ar      1 SFX801      0.0000 
     10 C10        26.8840   22.3020   20.8290 C.ar      1 SFX801      0.0000 
     11 O5         26.8260   20.5660   24.0840 O.3       1 SFX801      0.0000 
     12 C3         26.0580   19.3770   23.8770 C.3       1 SFX801      0.0000 
     13 C2         26.4320   18.3540   24.9520 C.3       1 SFX801      0.0000 
     14 C1         27.9530   18.2080   25.0380 C.3       1 SFX801      0.0000 
     15 N4         28.4010   16.8520   25.3040 N.4       1 SFX801      0.0000 
     16 C22        28.9220   16.0250   24.2290 C.3       1 SFX801      0.0000 
     17 C16        24.5980   19.6850   23.8680 C.ar      1 SFX801      0.0000 
     18 C17        23.7960   19.1640   22.8490 C.ar      1 SFX801      0.0000 
     19 C18        22.4280   19.4410   22.8160 C.ar      1 SFX801      0.0000 
     20 C19        21.8540   20.2480   23.7990 C.ar      1 SFX801      0.0000 
     21 C20        22.6510   20.7740   24.8160 C.ar      1 SFX801      0.0000 
     22 C21        24.0190   20.4980   24.8500 C.ar      1 SFX801      0.0000 
     23 H          28.4451   24.5281   22.7842 H         1 SFX801      0.0000 
     24 H          28.0166   22.8170   24.4425 H         1 SFX801      0.0000 
     25 H          26.1530   20.4519   21.5195 H         1 SFX801      0.0000 
     26 H          26.5829   22.1658   19.8583 H         1 SFX801      0.0000 
     27 H          26.3261   18.9330   22.9088 H         1 SFX801      0.0000 
     28 H          25.9929   17.3932   24.7013 H         1 SFX801      0.0000 
     29 H          26.0486   18.6858   25.9120 H         1 SFX801      0.0000 
     30 H          28.3136   18.9025   25.8262 H         1 SFX801      0.0000 
     31 H          28.3815   18.5832   24.0845 H         1 SFX801      0.0000 
     32 H          24.2165   18.5731   22.1193 H         1 SFX801      0.0000 
     33 H          21.8437   19.0501   22.0671 H         1 SFX801      0.0000 
     34 H          20.8500   20.4536   23.7738 H         1 SFX801      0.0000 
     35 H          22.2300   21.3667   25.5428 H         1 SFX801      0.0000 
     36 H          24.6041   20.8916   25.5968 H         1 SFX801      0.0000 
     37 H          29.7287   16.4345   23.8029 H         1 SFX801      0.0000 
     38 H          29.1909   15.1186   24.5547 H         1 SFX801      0.0000 
     39 H          28.2460   15.8877   23.5050 H         1 SFX801      0.0000 
@<TRIPOS>BOND
     1    2    1 1    
     2    3    2 1    
     3    4    2 1    
     4    5    2 1    
     5    6    5 ar   
     6   10    5 ar   
     7    7    6 ar   
     8   23    6 1    
     9    8    7 ar   
    10   24    7 1    
    11    9    8 ar   
    12   11    8 1    
    13   10    9 ar   
    14   25    9 1    
    15   26   10 1    
    16   12   11 1    
    17   13   12 1    
    18   17   12 1    
    19   27   12 1    
    20   14   13 1    
    21   28   13 1    
    22   29   13 1    
    23   15   14 1    
    24   30   14 1    
    25   31   14 1    
    26   16   15 1    
    27   37   16 1    
    28   38   16 1    
    29   39   16 1    
    30   18   17 ar   
    31   22   17 ar   
    32   19   18 ar   
    33   32   18 1    
    34   20   19 ar   
    35   33   19 1    
    36   21   20 ar   
    37   34   20 1    
    38   22   21 ar   
    39   35   21 1    
    40   36   22 1    
@<TRIPOS>SUBSTRUCTURE
     1 SFX801      1 GROUP   
@<TRIPOS>SET

