#    Name: 3hkw_IX6_3_INTS_M
#    Modification time : Tue Mar 25 14:28:24 2014

@<TRIPOS>MOLECULE
3hkw_IX6_3_INTS_M
   73     0     9     0     0
SMALL
NO_CHARGES


@<TRIPOS>ATOM
      1 CA         12.8885  -39.1810   14.2990 C.3       3 GLC5        0.0000 
      2 CA         12.4460  -41.2590   14.2120 C.3       9 GLL5        0.0000 
      3 CA         13.3310  -37.1030   14.3860 C.3       6 GLP5        0.0000 
      4 CA         16.9645  -43.6730   14.4315 C.3       3 GLC5        0.0000 
      5 CA         15.4060  -42.6770   15.5460 C.3       9 GLL5        0.0000 
      6 CA         18.5230  -44.6690   13.3170 C.3       6 GLP5        0.0000 
      7 CA         18.4075  -42.0170   19.7790 C.3       3 GLC5        0.0000 
      8 CA         16.5960  -42.6670   20.0420 C.3       9 GLL5        0.0000 
      9 CA         20.2190  -41.3670   19.5160 C.3       6 GLP5        0.0000 
     10 CA         21.1900  -36.2820   16.6465 C.3       3 GLC5        0.0000 
     11 CA         19.3420  -36.9710   16.4090 C.3       9 GLL5        0.0000 
     12 CA         23.0380  -35.5930   16.8840 C.3       6 GLP5        0.0000 
     13 CA         19.4130  -38.7185   15.0895 C.3       3 GLC5        0.0000 
     14 CA         19.4840  -40.4660   13.7700 C.3       6 GLP5        0.0000 
     15 O          10.5245  -39.4930   18.2390 O.2       1 ALC1        0.0000 
     16 O          11.3250  -40.5970   18.1700 O.2       7 ALL1        0.0000 
     17 O           9.7240  -38.3890   18.3080 O.2       4 ALP1        0.0000 
     18 CA         11.5845  -46.2390   11.2300 C.3       3 GLC5        0.0000 
     19 CA         10.0080  -45.1520   11.2020 C.3       9 GLL5        0.0000 
     20 CA         13.1610  -47.3260   11.2580 C.3       6 GLP5        0.0000 
     21 CA         16.1720  -41.3490   11.6995 C.3       3 GLC5        0.0000 
     22 CA         15.6260  -41.2410   13.2250 C.3       9 GLL5        0.0000 
     23 CA         16.7180  -41.4570   10.1740 C.3       6 GLP5        0.0000 
     24 CA         14.5625  -39.3100   12.9255 C.3       3 GLC5        0.0000 
     25 CA         13.4990  -37.3790   12.6260 C.3       6 GLP5        0.0000 
     26 CA         17.3710  -41.5150   13.3695 C.3       3 GLC5        0.0000 
     27 CA         19.1160  -41.7890   13.5140 C.3       6 GLP5        0.0000 
     28 CA         15.1370  -36.6975   15.4325 C.3       3 GLC5        0.0000 
     29 CA         16.9430  -36.2920   16.4790 C.3       9 GLL5        0.0000 
     30 CA         15.6285  -35.2095   17.5620 C.3       3 GLC5        0.0000 
     31 CA         14.3140  -34.1270   18.6450 C.3       6 GLP5        0.0000 
     32 CA         20.6730  -36.2855   18.4725 C.3       3 GLC5        0.0000 
     33 CA         18.4460  -36.4500   18.6300 C.3       9 GLL5        0.0000 
     34 CA         22.9000  -36.1210   18.3150 C.3       6 GLP5        0.0000 
     35 CA         18.9035  -34.6575   17.9055 C.3       3 GLC5        0.0000 
     36 CA         19.3610  -32.8650   17.1810 C.3       6 GLP5        0.0000 
     37 CA         19.1430  -38.3195   19.5295 C.3       3 GLC5        0.0000 
     38 CA         19.8400  -40.1890   20.4290 C.3       6 GLP5        0.0000 
     39 CA         17.4355  -36.3510   20.1445 C.3       3 GLC5        0.0000 
     40 CA         16.4250  -36.2520   21.6590 C.3       6 GLP5        0.0000 
     41 N          18.5685  -44.2095   15.7945 N.am      2 SEC2        0.0000 
     42 N          17.9270  -43.6110   16.9830 N.am      8 SEL2        0.0000 
     43 N          19.2100  -44.8080   14.6060 N.am      5 SEP2        0.0000 
     44 N          17.0185  -46.1360   14.9790 N.am      2 SEC2        0.0000 
     45 N          16.6630  -45.4760   16.2850 N.am      8 SEL2        0.0000 
     46 N          17.3740  -46.7960   13.6730 N.am      5 SEP2        0.0000 
     47 CA         17.1155  -46.9720   18.2065 C.3       3 GLC5        0.0000 
     48 CA         16.6610  -44.9170   18.8870 C.3       9 GLL5        0.0000 
     49 CA         17.5700  -49.0270   17.5260 C.3       6 GLP5        0.0000 
     50 CA         14.8470  -46.0790   22.6345 C.3       3 GLC5        0.0000 
     51 CA         15.6730  -44.7390   21.1670 C.3       9 GLL5        0.0000 
     52 CA         14.0210  -47.4190   24.1020 C.3       6 GLP5        0.0000 
     53 CA         17.6575  -45.0815   21.8485 C.3       3 GLC5        0.0000 
     54 CA         19.6420  -45.4240   22.5300 C.3       6 GLP5        0.0000 
     55 CA         11.5890  -38.5005   14.9850 C.3       3 GLC5        0.0000 
     56 CA         11.0850  -40.1390   15.8290 C.3       9 GLL5        0.0000 
     57 CA         11.9110  -36.7560   14.8020 C.3       6 GLP5        0.0000 
     58 CA         10.8715  -38.9000   17.6485 C.3       3 GLC5        0.0000 
     59 CA         10.3500  -37.3190   18.9490 C.3       6 GLP5        0.0000 
     60 CA         18.2760  -40.0470   16.8415 C.3       3 GLC5        0.0000 
     61 CA         15.9670  -40.4540   16.7210 C.3       9 GLL5        0.0000 
     62 CA         20.4330  -40.3150   16.9980 C.3       6 GLP5        0.0000 
     63 CA         14.8285  -37.9432   15.2112 C.3       3 GLC5        0.0000 
     64 CA         16.2710  -39.1040   16.6490 C.3       9 GLL5        0.0000 
     65 CA         14.6650  -38.4843   14.3425 C.3       3 GLC5        0.0000 
     66 CA         16.1500  -39.1910   14.2640 C.3       9 GLL5        0.0000 
     67 CA         19.6225  -38.5490   16.8852 C.3       3 GLC5        0.0000 
     68 CA         18.2820  -36.5950   17.1360 C.3       9 GLL5        0.0000 
     69 CA         12.6060  -45.9657   12.5693 C.3       3 GLC5        0.0000 
     70 CA         12.5500  -44.3440   13.4890 C.3       9 GLL5        0.0000 
     71 CA         18.2358  -35.3593   15.2354 C.3       3 GLC5        0.0000 
     72 CA         18.5940  -34.1810   13.8450 C.3       6 GLP5        0.0000 
     73 CA         18.6193  -34.7013   16.9034 C.3       3 GLC5        0.0000 
@<TRIPOS>BOND
@<TRIPOS>SUBSTRUCTURE
     1 ALC1       15 GROUP        1 X    ALC  0     ROOT ALC X 1
     2 SEC2       41 GROUP        1 X    SEC  0     **** SEC X 2
     3 GLC5        1 GROUP        1 X    GLC  0     **** GLC X 6
     4 ALP1       17 GROUP        1 Y    ALP  0     ROOT ALP Y 8
     5 SEP2       43 GROUP        1 Y    SEP  0     **** SEP Y 9
     6 GLP5        3 GROUP        1 Y    GLP  0     **** GLP Y 13
     7 ALL1       16 GROUP        1 Z    ALL  0     ROOT ALL Z 15
     8 SEL2       42 GROUP        1 Z    SEL  0     **** SEL Z 16
     9 GLL5        2 GROUP        1 Z    GLL  0     **** GLL Z 20
@<TRIPOS>SET

