#    Name: 3hkw_IX6_3_ligand
#    Modification time : Tue Mar 25 14:28:24 2014

@<TRIPOS>MOLECULE
3hkw_IX6_3_ligand
   71    75     1     0     0
SMALL
NO_CHARGES


@<TRIPOS>ATOM
      1 C1         11.0850  -40.1390   15.8290 C.ar      1 IX6579      0.0000 
      2 C2         11.4490  -40.3510   14.5070 C.ar      1 IX6579      0.0000 
      3 C3         12.4460  -41.2590   14.2120 C.ar      1 IX6579      0.0000 
      4 C4         13.0660  -41.9840   15.2350 C.ar      1 IX6579      0.0000 
      5 C5         12.7040  -41.7410   16.5670 C.ar      1 IX6579      0.0000 
      6 C6         11.7010  -40.8230   16.8670 C.ar      1 IX6579      0.0000 
      7 C8         15.4060  -42.6770   15.5460 C.3       1 IX6579      0.0000 
      8 C15        14.4760  -43.7160   19.2580 C.3       1 IX6579      0.0000 
      9 C16        15.9670  -40.4540   16.7210 C.ar      1 IX6579      0.0000 
     10 C17        15.7550  -41.1860   15.5640 C.ar      1 IX6579      0.0000 
     11 C18        16.2710  -39.1040   16.6490 C.ar      1 IX6579      0.0000 
     12 C19        16.3810  -38.4630   15.4240 C.ar      1 IX6579      0.0000 
     13 C21        15.8480  -40.5400   14.3340 C.ar      1 IX6579      0.0000 
     14 C24        16.5960  -42.6670   20.0420 C.3       1 IX6579      0.0000 
     15 C27        19.3420  -36.9710   16.4090 C.3       1 IX6579      0.0000 
     16 O29        11.3250  -40.5970   18.1700 O.3       1 IX6579      0.0000 
     17 C32        13.8520  -43.8430   13.9250 C.2       1 IX6579      0.0000 
     18 C34        12.5500  -44.3440   13.4890 C.2       1 IX6579      0.0000 
     19 C35        11.5520  -44.8670   14.2720 C.2       1 IX6579      0.0000 
     20 C37        10.9060  -44.9070   12.3780 C.2       1 IX6579      0.0000 
     21 C39        10.0080  -45.1520   11.2020 C.3       1 IX6579      0.0000 
     22 C40        11.5930  -45.0370   15.7730 C.3       1 IX6579      0.0000 
     23 F41        15.6260  -41.2410   13.2250 F         1 IX6579      0.0000 
     24 C20        16.1500  -39.1910   14.2640 C.ar      1 IX6579      0.0000 
     25 O23        16.6740  -37.1240   15.3470 O.3       1 IX6579      0.0000 
     26 C22        16.9430  -36.2920   16.4790 C.3       1 IX6579      0.0000 
     27 C26        18.2820  -36.5950   17.1360 C.2       1 IX6579      0.0000 
     28 C28        18.4460  -36.4500   18.6300 C.2       1 IX6579      0.0000 
     29 N7         14.1150  -42.9040   14.9040 N.am      1 IX6579      0.0000 
     30 N38        12.1160  -44.3720   12.2380 N.2       1 IX6579      0.0000 
     31 O36        10.6180  -45.1740   13.5480 O.3       1 IX6579      0.0000 
     32 O33        14.8330  -44.2910   13.3780 O.2       1 IX6579      0.0000 
     33 C9         15.3830  -43.3040   16.9220 C.2       1 IX6579      0.0000 
     34 S12        16.7210  -44.3470   17.1820 S.o2      1 IX6579      0.0000 
     35 O30        17.9270  -43.6110   16.9830 O.2       1 IX6579      0.0000 
     36 O31        16.6630  -45.4760   16.2850 O.2       1 IX6579      0.0000 
     37 C13        16.6610  -44.9170   18.8870 C.3       1 IX6579      0.0000 
     38 C14        15.8660  -43.9950   19.8320 C.3       1 IX6579      0.0000 
     39 C25        15.6730  -44.7390   21.1670 C.3       1 IX6579      0.0000 
     40 C10        14.4090  -43.1360   17.8540 C.2       1 IX6579      0.0000 
     41 N11        13.2530  -42.4250   17.6660 N.pl3     1 IX6579      0.0000 
     42 H          10.3350  -39.4533   16.0462 H         1 IX6579      0.0000 
     43 H          10.9775  -39.8338   13.7546 H         1 IX6579      0.0000 
     44 H          12.7409  -41.4094   13.2357 H         1 IX6579      0.0000 
     45 H          16.1830  -43.1925   14.9594 H         1 IX6579      0.0000 
     46 H          13.9388  -43.0282   19.9557 H         1 IX6579      0.0000 
     47 H          13.8885  -44.6661   19.2815 H         1 IX6579      0.0000 
     48 H          15.8982  -40.9164   17.6413 H         1 IX6579      0.0000 
     49 H          16.4182  -38.5656   17.5218 H         1 IX6579      0.0000 
     50 H          16.2043  -38.7220   13.3464 H         1 IX6579      0.0000 
     51 H          16.1564  -36.4024   17.2547 H         1 IX6579      0.0000 
     52 H          16.9433  -35.2181   16.1973 H         1 IX6579      0.0000 
     53 H          17.7037  -44.9894   19.1519 H         1 IX6579      0.0000 
     54 H          16.2253  -45.8991   18.7958 H         1 IX6579      0.0000 
     55 H          12.5950  -42.3703   18.5794 H         1 IX6579      0.0000 
     56 H          17.5112  -42.8023   20.4217 H         1 IX6579      0.0000 
     57 H          16.7057  -42.1639   19.1848 H         1 IX6579      0.0000 
     58 H          16.1027  -42.0677   20.6725 H         1 IX6579      0.0000 
     59 H          20.1471  -37.1293   16.9806 H         1 IX6579      0.0000 
     60 H          19.1670  -37.8186   15.9080 H         1 IX6579      0.0000 
     61 H          19.5938  -36.2779   15.7335 H         1 IX6579      0.0000 
     62 H           9.7931  -44.3049   10.7160 H         1 IX6579      0.0000 
     63 H          10.4259  -45.7726   10.5385 H         1 IX6579      0.0000 
     64 H           9.1379  -45.5605   11.4778 H         1 IX6579      0.0000 
     65 H          12.3415  -45.6354   16.0587 H         1 IX6579      0.0000 
     66 H          11.7208  -44.1633   16.2424 H         1 IX6579      0.0000 
     67 H          10.7469  -45.4376   16.1246 H         1 IX6579      0.0000 
     68 H          16.5472  -44.9513   21.6036 H         1 IX6579      0.0000 
     69 H          15.1428  -44.1984   21.8202 H         1 IX6579      0.0000 
     70 H          15.1894  -45.6054   21.0428 H         1 IX6579      0.0000 
     71 H          10.8676  -39.7079   18.1567 H         1 IX6579      0.0000 
@<TRIPOS>BOND
     1    2    1 ar   
     2    6    1 ar   
     3   42    1 1    
     4    3    2 ar   
     5   43    2 1    
     6    4    3 ar   
     7   44    3 1    
     8    5    4 ar   
     9   29    4 1    
    10    6    5 ar   
    11   41    5 1    
    12   16    6 1    
    13   10    7 1    
    14   29    7 1    
    15   33    7 1    
    16   45    7 1    
    17   38    8 1    
    18   40    8 1    
    19   46    8 1    
    20   47    8 1    
    21   10    9 ar   
    22   11    9 ar   
    23   48    9 1    
    24   13   10 ar   
    25   12   11 ar   
    26   49   11 1    
    27   24   12 ar   
    28   25   12 1    
    29   23   13 1    
    30   24   13 ar   
    31   38   14 1    
    32   56   14 1    
    33   57   14 1    
    34   58   14 1    
    35   27   15 1    
    36   59   15 1    
    37   60   15 1    
    38   61   15 1    
    39   71   16 1    
    40   18   17 1    
    41   29   17 am   
    42   32   17 2    
    43   19   18 2    
    44   30   18 1    
    45   22   19 1    
    46   31   19 1    
    47   21   20 1    
    48   30   20 2    
    49   31   20 1    
    50   62   21 1    
    51   63   21 1    
    52   64   21 1    
    53   65   22 1    
    54   66   22 1    
    55   67   22 1    
    56   50   24 1    
    57   26   25 1    
    58   27   26 1    
    59   51   26 1    
    60   52   26 1    
    61   28   27 2    
    62   34   33 1    
    63   40   33 2    
    64   35   34 2    
    65   36   34 2    
    66   37   34 1    
    67   38   37 1    
    68   53   37 1    
    69   54   37 1    
    70   39   38 1    
    71   68   39 1    
    72   69   39 1    
    73   70   39 1    
    74   41   40 1    
    75   55   41 1    
@<TRIPOS>SUBSTRUCTURE
     1 IX6579      1 GROUP   
@<TRIPOS>SET

