#    Name: 4glo_NAD_2_INTS_M
#    Modification time : Mon Mar 24 22:31:11 2014

@<TRIPOS>MOLECULE
4glo_NAD_2_INTS_M
   79     0     9     0     0
SMALL
NO_CHARGES


@<TRIPOS>ATOM
      1 CA         90.3340  -23.2320   12.3595 C.3       3 GLC5        0.0000 
      2 CA         89.1570  -23.6540   11.0060 C.3       9 GLL5        0.0000 
      3 CA         91.5110  -22.8100   13.7130 C.3       6 GLP5        0.0000 
      4 CA         86.7495  -24.2200   12.1845 C.3       3 GLC5        0.0000 
      5 CA         87.8440  -22.9210   10.9970 C.3       9 GLL5        0.0000 
      6 CA         85.6550  -25.5190   13.3720 C.3       6 GLP5        0.0000 
      7 CA         90.5470  -22.1040   12.3290 C.3       3 GLC5        0.0000 
      8 CA         89.5830  -21.3980   10.9450 C.3       9 GLL5        0.0000 
      9 CA         91.6920  -21.5845   10.7040 C.3       3 GLC5        0.0000 
     10 CA         93.8010  -21.7710   10.4630 C.3       6 GLP5        0.0000 
     11 O          92.7440  -15.3895    8.5710 O.2       1 ALC1        0.0000 
     12 O          92.7180  -16.8920    8.4890 O.2       7 ALL1        0.0000 
     13 O          92.7700  -13.8870    8.6530 O.2       4 ALP1        0.0000 
     14 N          93.1810  -15.8135   11.1215 N.am      2 SEC2        0.0000 
     15 N          92.1350  -16.9120   10.8290 N.am      8 SEL2        0.0000 
     16 N          94.2270  -14.7150   11.4140 N.am      5 SEP2        0.0000 
     17 CA         90.8785  -18.0815   13.6755 C.3       3 GLC5        0.0000 
     18 CA         91.5470  -17.5520   11.8410 C.3       9 GLL5        0.0000 
     19 CA         90.2100  -18.6110   15.5100 C.3       6 GLP5        0.0000 
     20 CA         89.9600  -16.8720   11.8450 C.3       3 GLC5        0.0000 
     21 CA         88.3730  -16.1920   11.8490 C.3       6 GLP5        0.0000 
     22 CA         91.9970  -15.3720   11.9555 C.3       3 GLC5        0.0000 
     23 CA         92.4470  -13.1920   12.0700 C.3       6 GLP5        0.0000 
     24 CA         93.1800  -18.1955   11.8930 C.3       3 GLC5        0.0000 
     25 CA         94.8130  -18.8390   11.9450 C.3       6 GLP5        0.0000 
     26 N          89.9825  -17.9835   12.8265 N.am      2 SEC2        0.0000 
     27 N          90.9140  -18.7370   11.7370 N.am      8 SEL2        0.0000 
     28 N          89.0510  -17.2300   13.9160 N.am      5 SEP2        0.0000 
     29 CA         89.6080  -17.7795   11.2060 C.3       3 GLC5        0.0000 
     30 CA         90.8430  -19.3670   10.5630 C.3       9 GLL5        0.0000 
     31 N          89.2400  -29.6755   11.0940 N.am      2 SEC2        0.0000 
     32 N          89.4120  -28.7880    9.8780 N.am      8 SEL2        0.0000 
     33 N          89.0680  -30.5630   12.3100 N.am      5 SEP2        0.0000 
     34 CA         91.7180  -29.6560   10.4170 C.3       3 GLC5        0.0000 
     35 CA         92.0450  -28.0670    9.1130 C.3       9 GLL5        0.0000 
     36 CA         91.3910  -31.2450   11.7210 C.3       6 GLP5        0.0000 
     37 CA         92.5850  -30.3275    8.9525 C.3       3 GLC5        0.0000 
     38 CA         93.3830  -28.4310    8.5280 C.3       9 GLL5        0.0000 
     39 CA         91.7870  -32.2240    9.3770 C.3       6 GLP5        0.0000 
     40 CA         94.8130  -29.5505    8.9495 C.3       3 GLC5        0.0000 
     41 CA         96.2430  -30.6700    9.3710 C.3       6 GLP5        0.0000 
     42 CA         93.6540  -25.4300    6.7800 C.3       3 GLC5        0.0000 
     43 CA         93.7200  -27.4950    7.3670 C.3       9 GLL5        0.0000 
     44 CA         93.5880  -23.3650    6.1930 C.3       6 GLP5        0.0000 
     45 N          96.1075  -27.0365    6.4950 N.am      2 SEC2        0.0000 
     46 N          95.0490  -27.2160    7.4250 N.am      8 SEL2        0.0000 
     47 N          97.1660  -26.8570    5.5650 N.am      5 SEP2        0.0000 
     48 O          94.7815  -26.5275    8.5255 O.2       1 ALC1        0.0000 
     49 O          95.0490  -27.2160    7.4250 O.2       7 ALL1        0.0000 
     50 O          94.5140  -25.8390    9.6260 O.2       4 ALP1        0.0000 
     51 N          94.1185  -28.2595    3.8210 N.am      2 SEC2        0.0000 
     52 N          94.3020  -27.9080    5.0660 N.am      8 SEL2        0.0000 
     53 N          93.9350  -28.6110    2.5760 N.am      5 SEP2        0.0000 
     54 N          95.7340  -27.3825    5.3155 N.am      2 SEC2        0.0000 
     55 CA         92.7700  -30.9765    8.0015 C.3       3 GLC5        0.0000 
     56 CA         93.7530  -29.7290    6.6260 C.3       9 GLL5        0.0000 
     57 CA         94.9980  -30.1995    7.9985 C.3       3 GLC5        0.0000 
     58 CA         91.0050  -33.9395    6.3675 C.3       3 GLC5        0.0000 
     59 CA         91.3410  -32.1610    5.1470 C.3       9 GLL5        0.0000 
     60 CA         90.6690  -35.7180    7.5880 C.3       6 GLP5        0.0000 
     61 N          89.1655  -34.7405    4.9550 N.am      2 SEC2        0.0000 
     62 N          89.5570  -33.4370    4.4610 N.am      8 SEL2        0.0000 
     63 N          88.7740  -36.0440    5.4490 N.am      5 SEP2        0.0000 
     64 O          87.9275  -33.1070    6.2260 O.2       1 ALC1        0.0000 
     65 O          89.0700  -31.9490    6.0050 O.2       7 ALL1        0.0000 
     66 O          86.7850  -34.2650    6.4470 O.2       4 ALP1        0.0000 
     67 CA         94.4805  -32.7465    6.3045 C.3       3 GLC5        0.0000 
     68 CA         93.9430  -31.4390    4.9750 C.3       9 GLL5        0.0000 
     69 CA         95.0180  -34.0540    7.6340 C.3       6 GLP5        0.0000 
     70 CA         92.4815  -20.4145   10.2185 C.3       3 GLC5        0.0000 
     71 CA         91.4810  -18.7490    9.3850 C.3       9 GLL5        0.0000 
     72 CA         93.0687  -18.7874   10.9829 C.3       3 GLC5        0.0000 
     73 CA         91.7010  -31.9390    7.4497 C.3       3 GLC5        0.0000 
     74 CA         91.8890  -31.1470    5.8980 C.3       9 GLL5        0.0000 
     75 CA         95.1265  -31.4908    3.4798 C.3       3 GLC5        0.0000 
     76 CA         93.4550  -32.4360    4.1620 C.3       9 GLL5        0.0000 
     77 CA         96.5540  -31.0440    2.3910 C.3       6 GLP5        0.0000 
     78 CA         93.3995  -33.7706    5.6540 C.3       3 GLC5        0.0000 
     79 CA         94.1980  -35.0790    6.8700 C.3       6 GLP5        0.0000 
@<TRIPOS>BOND
@<TRIPOS>SUBSTRUCTURE
     1 ALC1       11 GROUP        1 X    ALC  0     ROOT ALC X 1
     2 SEC2       14 GROUP        1 X    SEC  0     **** SEC X 2
     3 GLC5        1 GROUP        1 X    GLC  0     **** GLC X 6
     4 ALP1       13 GROUP        1 Y    ALP  0     ROOT ALP Y 8
     5 SEP2       16 GROUP        1 Y    SEP  0     **** SEP Y 9
     6 GLP5        3 GROUP        1 Y    GLP  0     **** GLP Y 13
     7 ALL1       12 GROUP        1 Z    ALL  0     ROOT ALL Z 15
     8 SEL2       15 GROUP        1 Z    SEL  0     **** SEL Z 16
     9 GLL5        2 GROUP        1 Z    GLL  0     **** GLL Z 20
@<TRIPOS>SET

