#    Name: 4glo_NAD_2_ligand
#    Modification time : Mon Mar 24 22:31:11 2014

@<TRIPOS>MOLECULE
4glo_NAD_2_ligand
   70    74     1     0     0
SMALL
NO_CHARGES


@<TRIPOS>ATOM
      1 PA         87.6700  -26.5130    8.8780 P.3       1 NAD301      0.0000 
      2 O1A        87.3530  -25.4420    7.9890 O.co2     1 NAD301      0.0000 
      3 O2A        86.5700  -27.4000    9.3360 O.co2     1 NAD301      0.0000 
      4 O5B        88.2840  -25.7070   10.0730 O.3       1 NAD301      0.0000 
      5 C5B        89.2640  -24.7030    9.9140 C.3       1 NAD301      0.0000 
      6 C4B        89.1570  -23.6540   11.0060 C.3       1 NAD301      0.0000 
      7 O4B        90.1570  -22.6560   10.8620 O.3       1 NAD301      0.0000 
      8 C3B        87.8440  -22.9210   10.9970 C.3       1 NAD301      0.0000 
      9 O3B        87.4140  -22.6020   12.2930 O.3       1 NAD301      0.0000 
     10 C2B        88.2070  -21.6100   10.3300 C.3       1 NAD301      0.0000 
     11 O2B        87.3120  -20.5610   10.5860 O.3       1 NAD301      0.0000 
     12 C1B        89.5830  -21.3980   10.9450 C.3       1 NAD301      0.0000 
     13 N9A        90.3200  -20.4730   10.1300 N.pl3     1 NAD301      0.0000 
     14 C8A        90.5760  -20.5670    8.8150 C.2       1 NAD301      0.0000 
     15 N7A        91.3040  -19.5470    8.3650 N.2       1 NAD301      0.0000 
     16 C5A        91.4810  -18.7490    9.3850 C.ar      1 NAD301      0.0000 
     17 C6A        92.1310  -17.4600    9.5720 C.ar      1 NAD301      0.0000 
     18 N6A        92.7180  -16.8920    8.4890 N.pl3     1 NAD301      0.0000 
     19 N1A        92.1350  -16.9120   10.8290 N.ar      1 NAD301      0.0000 
     20 C2A        91.5470  -17.5520   11.8410 C.ar      1 NAD301      0.0000 
     21 N3A        90.9140  -18.7370   11.7370 N.ar      1 NAD301      0.0000 
     22 C4A        90.8430  -19.3670   10.5630 C.ar      1 NAD301      0.0000 
     23 O3         88.8560  -27.2260    8.1700 O.3       1 NAD301      0.0000 
     24 PN         89.5360  -28.5630    8.5340 P.3       1 NAD301      0.0000 
     25 O1N        89.0900  -29.4300    7.4740 O.co2     1 NAD301      0.0000 
     26 O2N        89.4120  -28.7880    9.8780 O.co2     1 NAD301      0.0000 
     27 O5D        91.0110  -28.2520    8.1920 O.3       1 NAD301      0.0000 
     28 C5D        92.0450  -28.0670    9.1130 C.3       1 NAD301      0.0000 
     29 C4D        93.3830  -28.4310    8.5280 C.3       1 NAD301      0.0000 
     30 O4D        93.2620  -29.6890    7.9670 O.3       1 NAD301      0.0000 
     31 C3D        93.7200  -27.4950    7.3670 C.3       1 NAD301      0.0000 
     32 O3D        95.0490  -27.2160    7.4250 O.3       1 NAD301      0.0000 
     33 C2D        93.4490  -28.3310    6.1110 C.3       1 NAD301      0.0000 
     34 O2D        94.3020  -27.9080    5.0660 O.3       1 NAD301      0.0000 
     35 C1D        93.7530  -29.7290    6.6260 C.3       1 NAD301      0.0000 
     36 N1N        93.1700  -30.8160    5.8040 N.pl3     1 NAD301      0.0000 
     37 C2N        91.8890  -31.1470    5.8980 C.ar      1 NAD301      0.0000 
     38 C3N        91.3410  -32.1610    5.1470 C.ar      1 NAD301      0.0000 
     39 C7N        89.9120  -32.5830    5.1940 C.2       1 NAD301      0.0000 
     40 O7N        89.5570  -33.4370    4.4610 O.2       1 NAD301      0.0000 
     41 N7N        89.0700  -31.9490    6.0050 N.am      1 NAD301      0.0000 
     42 C4N        92.1530  -32.8160    4.2810 C.ar      1 NAD301      0.0000 
     43 C5N        93.4550  -32.4360    4.1620 C.ar      1 NAD301      0.0000 
     44 C6N        93.9430  -31.4390    4.9750 C.ar      1 NAD301      0.0000 
     45 H          89.1675  -24.1846    8.9427 H         1 NAD301      0.0000 
     46 H          90.2875  -25.1184    9.9495 H         1 NAD301      0.0000 
     47 H          89.2586  -24.1429   11.9730 H         1 NAD301      0.0000 
     48 H          87.1526  -23.4177   10.4039 H         1 NAD301      0.0000 
     49 H          88.3686  -21.8239    9.2883 H         1 NAD301      0.0000 
     50 H          89.4554  -21.0666   11.9309 H         1 NAD301      0.0000 
     51 H          90.2545  -21.3182    8.2454 H         1 NAD301      0.0000 
     52 H          92.7753  -15.8936    8.4926 H         1 NAD301      0.0000 
     53 H          93.0416  -17.5219    7.7829 H         1 NAD301      0.0000 
     54 H          91.5775  -17.0922   12.8151 H         1 NAD301      0.0000 
     55 H          91.9004  -28.6808   10.0271 H         1 NAD301      0.0000 
     56 H          92.1064  -27.0143    9.4611 H         1 NAD301      0.0000 
     57 H          94.1346  -28.3656    9.2556 H         1 NAD301      0.0000 
     58 H          93.0716  -26.6831    7.3839 H         1 NAD301      0.0000 
     59 H          92.4163  -28.2622    5.9050 H         1 NAD301      0.0000 
     60 H          94.8442  -29.8151    6.6504 H         1 NAD301      0.0000 
     61 H          91.2534  -30.6296    6.5629 H         1 NAD301      0.0000 
     62 H          88.1249  -32.2757    6.0007 H         1 NAD301      0.0000 
     63 H          89.4579  -31.2028    6.5460 H         1 NAD301      0.0000 
     64 H          91.7875  -33.6011    3.7122 H         1 NAD301      0.0000 
     65 H          94.0742  -32.8866    3.4718 H         1 NAD301      0.0000 
     66 H          94.9684  -31.2062    4.8935 H         1 NAD301      0.0000 
     67 H          87.0531  -21.6719   12.2243 H         1 NAD301      0.0000 
     68 H          87.8849  -19.8014   10.8940 H         1 NAD301      0.0000 
     69 H          95.1591  -26.6498    8.2419 H         1 NAD301      0.0000 
     70 H          94.2172  -26.9117    5.0502 H         1 NAD301      0.0000 
@<TRIPOS>BOND
     1    2    1 ar   
     2    3    1 ar   
     3    4    1 1    
     4   23    1 1    
     5    5    4 1    
     6    6    5 1    
     7   45    5 1    
     8   46    5 1    
     9    7    6 1    
    10    8    6 1    
    11   47    6 1    
    12   12    7 1    
    13    9    8 1    
    14   10    8 1    
    15   48    8 1    
    16   67    9 1    
    17   11   10 1    
    18   12   10 1    
    19   49   10 1    
    20   68   11 1    
    21   13   12 1    
    22   50   12 1    
    23   14   13 1    
    24   22   13 1    
    25   15   14 2    
    26   51   14 1    
    27   16   15 1    
    28   17   16 ar   
    29   22   16 ar   
    30   18   17 1    
    31   19   17 ar   
    32   52   18 1    
    33   53   18 1    
    34   20   19 ar   
    35   21   20 ar   
    36   54   20 1    
    37   22   21 ar   
    38   24   23 1    
    39   25   24 ar   
    40   26   24 ar   
    41   27   24 1    
    42   28   27 1    
    43   29   28 1    
    44   55   28 1    
    45   56   28 1    
    46   30   29 1    
    47   31   29 1    
    48   57   29 1    
    49   35   30 1    
    50   32   31 1    
    51   33   31 1    
    52   58   31 1    
    53   69   32 1    
    54   34   33 1    
    55   35   33 1    
    56   59   33 1    
    57   70   34 1    
    58   36   35 1    
    59   60   35 1    
    60   37   36 ar   
    61   44   36 ar   
    62   38   37 ar   
    63   61   37 1    
    64   39   38 1    
    65   42   38 ar   
    66   40   39 2    
    67   41   39 am   
    68   62   41 1    
    69   63   41 1    
    70   43   42 ar   
    71   64   42 1    
    72   44   43 ar   
    73   65   43 1    
    74   66   44 1    
@<TRIPOS>SUBSTRUCTURE
     1 NAD301      1 GROUP   
@<TRIPOS>SET

