#    Name: 3ans_S38_2_INTS_M
#    Modification time : Mon Mar 24 17:56:22 2014

@<TRIPOS>MOLECULE
3ans_S38_2_INTS_M
   51     0     9     0     0
SMALL
NO_CHARGES


@<TRIPOS>ATOM
      1 CA         52.0645   52.0525   76.0450 C.3       3 GLC5        0.0000 
      2 CA         53.1080   53.2520   74.6980 C.3       9 GLL5        0.0000 
      3 CA         51.0210   50.8530   77.3920 C.3       6 GLP5        0.0000 
      4 CA         54.6785   57.1940   73.5405 C.3       3 GLC5        0.0000 
      5 CA         55.0170   55.0980   73.9020 C.3       9 GLL5        0.0000 
      6 CA         54.3400   59.2900   73.1790 C.3       6 GLP5        0.0000 
      7 O          52.6855   56.3850   76.9315 O.2       1 ALC1        0.0000 
      8 O          53.9190   56.8130   76.8330 O.2       7 ALL1        0.0000 
      9 O          51.4520   55.9570   77.0300 O.2       4 ALP1        0.0000 
     10 CA         53.8005   59.6145   75.9520 C.3       3 GLC5        0.0000 
     11 CA         54.2880   58.0460   77.4390 C.3       9 GLL5        0.0000 
     12 CA         53.3130   61.1830   74.4650 C.3       6 GLP5        0.0000 
     13 CA         52.3110   58.3735   77.1955 C.3       3 GLC5        0.0000 
     14 CA         50.3340   58.7010   76.9520 C.3       6 GLP5        0.0000 
     15 CA         55.4190   56.9040   80.2365 C.3       3 GLC5        0.0000 
     16 CA         54.6600   58.1040   78.8850 C.3       9 GLL5        0.0000 
     17 CA         56.1780   55.7040   81.5880 C.3       6 GLP5        0.0000 
     18 CA         51.9135   59.4740   78.5145 C.3       3 GLC5        0.0000 
     19 CA         53.4520   58.8340   78.3990 C.3       9 GLL5        0.0000 
     20 CA         50.3750   60.1140   78.6300 C.3       6 GLP5        0.0000 
     21 CA         52.7775   59.5335   80.1700 C.3       3 GLC5        0.0000 
     22 CA         52.1030   60.2330   81.9410 C.3       6 GLP5        0.0000 
     23 CA         59.6585   60.9150   80.9840 C.3       3 GLC5        0.0000 
     24 CA         58.0960   60.2160   80.2370 C.3       9 GLL5        0.0000 
     25 CA         61.2210   61.6140   81.7310 C.3       6 GLP5        0.0000 
     26 CA         55.0355   58.3295   82.3440 C.3       3 GLC5        0.0000 
     27 CA         56.0090   59.1450   80.6700 C.3       9 GLL5        0.0000 
     28 CA         54.0620   57.5140   84.0180 C.3       6 GLP5        0.0000 
     29 N          56.5280   57.1335   75.0275 N.am      2 SEC2        0.0000 
     30 N          56.0430   56.5130   76.0440 N.am      8 SEL2        0.0000 
     31 N          57.0130   57.7540   74.0110 N.am      5 SEP2        0.0000 
     32 N          56.3840   55.9185   77.1700 N.am      2 SEC2        0.0000 
     33 N          56.7250   55.3240   78.2960 N.am      5 SEP2        0.0000 
     34 CA         54.6295   50.7795   73.6515 C.3       3 GLC5        0.0000 
     35 CA         53.2970   52.1490   72.5790 C.3       9 GLL5        0.0000 
     36 CA         55.9620   49.4100   74.7240 C.3       6 GLP5        0.0000 
     37 CA         52.3075   51.0450   71.6395 C.3       3 GLC5        0.0000 
     38 CA         51.3180   49.9410   70.7000 C.3       6 GLP5        0.0000 
     39 CA         51.1225   52.1925   72.3395 C.3       3 GLC5        0.0000 
     40 CA         48.9480   52.2360   72.1000 C.3       6 GLP5        0.0000 
     41 CA         52.6675   54.9494   72.9232 C.3       3 GLC5        0.0000 
     42 CA         53.6880   53.1870   73.4520 C.3       9 GLL5        0.0000 
     43 CA         51.7000   56.4530   71.8740 C.3       6 GLP5        0.0000 
     44 CA         53.2127   55.7905   73.1995 C.3       3 GLC5        0.0000 
     45 CA         57.3905   61.4778   78.5847 C.3       3 GLC5        0.0000 
     46 CA         56.8390   59.2400   78.4620 C.3       9 GLL5        0.0000 
     47 CA         57.3850   63.3750   78.4880 C.3       6 GLP5        0.0000 
     48 CA         57.4962   61.6970   79.5840 C.3       3 GLC5        0.0000 
     49 CA         57.1190   59.8220   81.1230 C.3       9 GLL5        0.0000 
     50 CA         56.7311   61.0280   81.9040 C.3       3 GLC5        0.0000 
     51 CA         56.6540   62.4740   83.1330 C.3       6 GLP5        0.0000 
@<TRIPOS>BOND
@<TRIPOS>SUBSTRUCTURE
     1 ALC1        7 GROUP        1 X    ALC  0     ROOT ALC X 1
     2 SEC2       29 GROUP        1 X    SEC  0     **** SEC X 2
     3 GLC5        1 GROUP        1 X    GLC  0     **** GLC X 6
     4 ALP1        9 GROUP        1 Y    ALP  0     ROOT ALP Y 8
     5 SEP2       31 GROUP        1 Y    SEP  0     **** SEP Y 9
     6 GLP5        3 GROUP        1 Y    GLP  0     **** GLP Y 13
     7 ALL1        8 GROUP        1 Z    ALL  0     ROOT ALL Z 15
     8 SEL2       30 GROUP        1 Z    SEL  0     **** SEL Z 16
     9 GLL5        2 GROUP        1 Z    GLL  0     **** GLL Z 20
@<TRIPOS>SET

