#    Name: 3ans_S38_2_ligand
#    Modification time : Mon Mar 24 17:56:22 2014

@<TRIPOS>MOLECULE
3ans_S38_2_ligand
   34    36     1     0     0
SMALL
NO_CHARGES


@<TRIPOS>ATOM
      1 C1         54.6360   54.0920   73.0420 C.ar      1 S38602      0.0000 
      2 C2         53.6880   53.1870   73.4520 C.ar      1 S38602      0.0000 
      3 C3         53.1080   53.2520   74.6980 C.ar      1 S38602      0.0000 
      4 C4         53.4890   54.2500   75.5590 C.ar      1 S38602      0.0000 
      5 C5         54.4340   55.1580   75.1480 C.ar      1 S38602      0.0000 
      6 C6         55.0170   55.0980   73.9020 C.ar      1 S38602      0.0000 
      7 C7         54.8620   56.2200   76.0430 C.2       1 S38602      0.0000 
      8 N8         53.9190   56.8130   76.8330 N.am      1 S38602      0.0000 
      9 C9         54.2880   58.0460   77.4390 C.3       1 S38602      0.0000 
     10 C10        54.6600   58.1040   78.8850 C.3       1 S38602      0.0000 
     11 C11        53.4520   58.8340   78.3990 C.3       1 S38602      0.0000 
     12 C12        55.8500   58.8430   79.3360 C.ar      1 S38602      0.0000 
     13 C13        56.8390   59.2400   78.4620 C.ar      1 S38602      0.0000 
     14 C14        57.9530   59.9210   78.9010 C.ar      1 S38602      0.0000 
     15 C15        58.0960   60.2160   80.2370 C.ar      1 S38602      0.0000 
     16 C16        57.1190   59.8220   81.1230 C.ar      1 S38602      0.0000 
     17 C17        56.0090   59.1450   80.6700 C.ar      1 S38602      0.0000 
     18 O18        56.0430   56.5130   76.0440 O.2       1 S38602      0.0000 
     19 C19        53.2970   52.1490   72.5790 C.1       1 S38602      0.0000 
     20 N20        53.0060   51.2810   71.8690 N.1       1 S38602      0.0000 
     21 H          55.0561   54.0212   72.1075 H         1 S38602      0.0000 
     22 H          52.4000   52.5623   74.9780 H         1 S38602      0.0000 
     23 H          53.0745   54.3176   76.4962 H         1 S38602      0.0000 
     24 H          55.7195   55.7872   73.6205 H         1 S38602      0.0000 
     25 H          53.0100   56.4236   76.9942 H         1 S38602      0.0000 
     26 H          54.9060   58.7607   77.0225 H         1 S38602      0.0000 
     27 H          54.3105   57.2553   79.2797 H         1 S38602      0.0000 
     28 H          52.6806   58.3206   78.6162 H         1 S38602      0.0000 
     29 H          53.6732   59.7548   78.3033 H         1 S38602      0.0000 
     30 H          56.7417   59.0203   77.4480 H         1 S38602      0.0000 
     31 H          58.6801   60.2096   78.2268 H         1 S38602      0.0000 
     32 H          58.9245   60.7258   80.5709 H         1 S38602      0.0000 
     33 H          57.2186   60.0345   82.1294 H         1 S38602      0.0000 
     34 H          55.2747   58.8554   81.3501 H         1 S38602      0.0000 
@<TRIPOS>BOND
     1    2    1 ar   
     2    6    1 ar   
     3   21    1 1    
     4    3    2 ar   
     5   19    2 1    
     6    4    3 ar   
     7   22    3 1    
     8    5    4 ar   
     9   23    4 1    
    10    6    5 ar   
    11    7    5 1    
    12   24    6 1    
    13    8    7 am   
    14   18    7 2    
    15    9    8 1    
    16   25    8 1    
    17   10    9 1    
    18   11    9 1    
    19   26    9 1    
    20   11   10 1    
    21   12   10 1    
    22   27   10 1    
    23   28   11 1    
    24   29   11 1    
    25   13   12 ar   
    26   17   12 ar   
    27   14   13 ar   
    28   30   13 1    
    29   15   14 ar   
    30   31   14 1    
    31   16   15 ar   
    32   32   15 1    
    33   17   16 ar   
    34   33   16 1    
    35   34   17 1    
    36   20   19 3    
@<TRIPOS>SUBSTRUCTURE
     1 S38602      1 GROUP   
@<TRIPOS>SET

