#    Name: 3ggs_2FD_1_INTS_M
#    Modification time : Tue Mar 25 12:30:36 2014

@<TRIPOS>MOLECULE
3ggs_2FD_1_INTS_M
   35     0     6     0     0
SMALL
NO_CHARGES


@<TRIPOS>ATOM
      1 N         -13.0660    0.3595  -44.4090 N.am      1 SEC2        0.0000 
      2 N         -14.6890    0.5640  -44.5820 N.am      5 SEL2        0.0000 
      3 N         -11.4430    0.1550  -44.2360 N.am      3 SEP2        0.0000 
      4 CA        -13.8970    1.2085  -43.4555 C.3       2 GLC5        0.0000 
      5 CA        -15.8600    0.2370  -43.8070 C.3       6 GLL5        0.0000 
      6 CA        -11.9340    2.1800  -43.1040 C.3       4 GLP5        0.0000 
      7 CA        -15.4290    1.6360  -42.6390 C.3       2 GLC5        0.0000 
      8 CA        -14.9980    3.0350  -41.4710 C.3       4 GLP5        0.0000 
      9 CA        -14.6050   -0.2115  -42.4795 C.3       2 GLC5        0.0000 
     10 CA        -13.3500   -0.6600  -41.1520 C.3       4 GLP5        0.0000 
     11 CA        -19.2180   -0.8560  -42.4070 C.3       2 GLC5        0.0000 
     12 CA        -19.2020   -0.6870  -44.6140 C.3       6 GLL5        0.0000 
     13 CA        -19.2340   -1.0250  -40.2000 C.3       4 GLP5        0.0000 
     14 CA        -18.3725    5.6205  -41.1750 C.3       2 GLC5        0.0000 
     15 CA        -18.6320    3.9160  -41.7700 C.3       6 GLL5        0.0000 
     16 CA        -18.1130    7.3250  -40.5800 C.3       4 GLP5        0.0000 
     17 CA        -22.5095    3.6530  -41.8855 C.3       2 GLC5        0.0000 
     18 CA        -21.6540    2.0430  -41.3800 C.3       6 GLL5        0.0000 
     19 CA        -23.3650    5.2630  -42.3910 C.3       4 GLP5        0.0000 
     20 CA        -23.7985    2.2080  -41.0840 C.3       2 GLC5        0.0000 
     21 CA        -25.9430    2.3730  -40.7880 C.3       4 GLP5        0.0000 
     22 CA        -20.4820    1.0900  -46.4770 C.3       2 GLC5        0.0000 
     23 CA        -18.8580    0.2590  -45.7310 C.3       6 GLL5        0.0000 
     24 CA        -22.1060    1.9210  -47.2230 C.3       4 GLP5        0.0000 
     25 CA        -20.2207    5.1077  -42.0397 C.3       2 GLC5        0.0000 
     26 CA        -19.5630    2.9610  -41.9210 C.3       6 GLL5        0.0000 
     27 CA        -21.3440    6.7770  -42.2340 C.3       4 GLP5        0.0000 
     28 CA        -19.1203    4.2982  -43.4813 C.3       2 GLC5        0.0000 
     29 CA        -19.1430    5.1580  -45.1170 C.3       4 GLP5        0.0000 
     30 CA        -17.7288    3.0817  -41.0922 C.3       2 GLC5        0.0000 
     31 CA        -16.3600    2.7250  -40.3390 C.3       4 GLP5        0.0000 
     32 CA        -23.0335    1.6102  -43.0793 C.3       2 GLC5        0.0000 
     33 CA        -24.5340    1.6990  -44.3420 C.3       4 GLP5        0.0000 
     34 CA        -18.7985   -0.6542  -47.2646 C.3       2 GLC5        0.0000 
     35 CA        -19.4090   -1.3090  -49.0200 C.3       4 GLP5        0.0000 
@<TRIPOS>BOND
@<TRIPOS>SUBSTRUCTURE
     1 SEC2        1 GROUP        1 X    SEC  0     ROOT SEC X 2
     2 GLC5        4 GROUP        1 X    GLC  0     **** GLC X 6
     3 SEP2        3 GROUP        1 Y    SEP  0     ROOT SEP Y 9
     4 GLP5        6 GROUP        1 Y    GLP  0     **** GLP Y 13
     5 SEL2        2 GROUP        1 Z    SEL  0     ROOT SEL Z 16
     6 GLL5        5 GROUP        1 Z    GLL  0     **** GLL Z 20
@<TRIPOS>SET

