#    Name: 3ggs_2FD_1_ligand
#    Modification time : Tue Mar 25 12:30:36 2014

@<TRIPOS>MOLECULE
3ggs_2FD_1_ligand
   31    33     1     0     0
SMALL
NO_CHARGES


@<TRIPOS>ATOM
      1 O5'       -14.6890    0.5640  -44.5820 O.3       1 2FD300      0.0000 
      2 C5'       -15.8600    0.2370  -43.8070 C.3       1 2FD300      0.0000 
      3 C4'       -16.8410   -0.5740  -44.6480 C.3       1 2FD300      0.0000 
      4 O4'       -17.9890   -0.9210  -43.8780 O.3       1 2FD300      0.0000 
      5 C1'       -19.2020   -0.6870  -44.6140 C.3       1 2FD300      0.0000 
      6 N9        -20.2580   -0.1600  -43.7130 N.pl3     1 2FD300      0.0000 
      7 C4        -20.2210    0.9480  -42.9550 C.ar      1 2FD300      0.0000 
      8 N3        -19.3060    1.9380  -42.7750 N.ar      1 2FD300      0.0000 
      9 C2        -19.5630    2.9610  -41.9210 C.ar      1 2FD300      0.0000 
     10 F         -18.6320    3.9160  -41.7700 F         1 2FD300      0.0000 
     11 N1        -20.7270    3.0210  -41.2280 N.ar      1 2FD300      0.0000 
     12 C6        -21.6540    2.0430  -41.3800 C.ar      1 2FD300      0.0000 
     13 N6        -22.8380    2.0480  -40.7180 N.pl3     1 2FD300      0.0000 
     14 C5        -21.4120    1.0000  -42.2530 C.ar      1 2FD300      0.0000 
     15 N7        -22.1390   -0.0790  -42.5950 N.2       1 2FD300      0.0000 
     16 C8        -21.4210   -0.7840  -43.4910 C.2       1 2FD300      0.0000 
     17 C2'       -18.8580    0.2590  -45.7310 C.3       1 2FD300      0.0000 
     18 C3'       -17.3460    0.2150  -45.8460 C.3       1 2FD300      0.0000 
     19 O3'       -16.9580   -0.4210  -47.0720 O.3       1 2FD300      0.0000 
     20 H         -16.3763    1.1413  -43.4627 H         1 2FD300      0.0000 
     21 H         -15.6003   -0.3574  -42.9226 H         1 2FD300      0.0000 
     22 H         -16.3442   -1.4568  -45.0132 H         1 2FD300      0.0000 
     23 H         -19.5383   -1.6219  -45.0584 H         1 2FD300      0.0000 
     24 H         -23.4448    1.2733  -40.8958 H         1 2FD300      0.0000 
     25 H         -22.9993    2.8260  -40.1107 H         1 2FD300      0.0000 
     26 H         -21.7076   -1.6155  -43.9081 H         1 2FD300      0.0000 
     27 H         -19.1706    1.2523  -45.4825 H         1 2FD300      0.0000 
     28 H         -19.2979   -0.0769  -46.6475 H         1 2FD300      0.0000 
     29 H         -16.9728    1.2154  -45.7722 H         1 2FD300      0.0000 
     30 H         -14.6772    1.5630  -44.6239 H         1 2FD300      0.0000 
     31 H         -17.5442   -0.0129  -47.7719 H         1 2FD300      0.0000 
@<TRIPOS>BOND
     1    2    1 1    
     2   30    1 1    
     3    3    2 1    
     4   20    2 1    
     5   21    2 1    
     6    4    3 1    
     7   18    3 1    
     8   22    3 1    
     9    5    4 1    
    10    6    5 1    
    11   17    5 1    
    12   23    5 1    
    13    7    6 1    
    14   16    6 1    
    15    8    7 ar   
    16   14    7 ar   
    17    9    8 ar   
    18   10    9 1    
    19   11    9 ar   
    20   12   11 ar   
    21   13   12 1    
    22   14   12 ar   
    23   24   13 1    
    24   25   13 1    
    25   15   14 1    
    26   16   15 2    
    27   26   16 1    
    28   18   17 1    
    29   27   17 1    
    30   28   17 1    
    31   19   18 1    
    32   29   18 1    
    33   31   19 1    
@<TRIPOS>SUBSTRUCTURE
     1 2FD300      1 GROUP   
@<TRIPOS>SET

