#    Name: 3JQ7_2_CAVITY_N1_ALL.mol2
#    Modification time : Tue Mar 11 04:12:49 2014

@<TRIPOS>MOLECULE
3JQ7_2_CAVITY_N1_ALL.mol2
  101     0     6     0     0
SMALL
NO_CHARGES


@<TRIPOS>ATOM
      1 CZ        -21.9204   20.6614    3.2913 C.ar      4 PHE5        0.0000 
      2 N         -13.2202   17.7272    6.1101 N.2       2 ALA2        0.0000 
      3 N         -13.3537   17.1006    7.4664 N.2       2 ALA2        0.0000 
      4 CA        -13.4872   16.4740    8.8228 C.3       5 GLY6        0.0000 
      5 N         -14.7142   17.7804    5.9876 N.2       2 ALA2        0.0000 
      6 N         -14.8477   17.1538    7.3439 N.2       2 ALA2        0.0000 
      7 DU        -14.9812   16.5272    8.7002 H         6 CUB7        0.0000 
      8 CA        -15.1148   15.9007   10.0566 C.3       5 GLY6        0.0000 
      9 N         -16.0747   18.4602    4.5088 N.2       2 ALA2        0.0000 
     10 CZ        -16.2082   17.8336    5.8651 C.ar      4 PHE5        0.0000 
     11 CZ        -16.3418   17.2070    7.2214 C.ar      4 PHE5        0.0000 
     12 CZ        -16.4753   16.5804    8.5777 C.ar      4 PHE5        0.0000 
     13 NZ        -16.6088   15.9539    9.9340 N.2       3 LYS4        0.0000 
     14 O         -16.7423   15.3273   11.2904 O.2       2 ALA2        0.0000 
     15 N         -17.3017   19.7665    1.6737 N.2       2 ALA2        0.0000 
     16 N         -17.4352   19.1399    3.0300 N.2       2 ALA2        0.0000 
     17 CZ        -17.5688   18.5134    4.3863 C.ar      4 PHE5        0.0000 
     18 CZ        -18.1029   16.0071    9.8115 C.ar      4 PHE5        0.0000 
     19 CA        -18.7957   19.8197    1.5512 C.3       5 GLY6        0.0000 
     20 CZ        -18.9293   19.1931    2.9075 C.ar      4 PHE5        0.0000 
     21 CA        -20.1563   20.4995    0.0723 C.3       5 GLY6        0.0000 
     22 CA        -20.2898   19.8729    1.4286 C.3       5 GLY6        0.0000 
     23 CZ        -20.4233   19.2463    2.7850 C.ar      4 PHE5        0.0000 
     24 CZ        -21.9174   19.2995    2.6625 C.ar      4 PHE5        0.0000 
     25 CA        -17.4414   21.8636    4.2876 C.3       5 GLY6        0.0000 
     26 CA        -17.5749   21.2370    5.6439 C.3       5 GLY6        0.0000 
     27 CZ        -17.7084   20.6104    7.0002 C.ar      4 PHE5        0.0000 
     28 CZ        -17.8419   19.9839    8.3565 C.ar      4 PHE5        0.0000 
     29 CZ        -19.0689   21.2902    5.5214 C.ar      4 PHE5        0.0000 
     30 CZ        -19.2025   20.6636    6.8777 C.ar      4 PHE5        0.0000 
     31 CZ        -19.3360   20.0371    8.2340 C.ar      4 PHE5        0.0000 
     32 CZ        -20.6965   20.7168    6.7552 C.ar      4 PHE5        0.0000 
     33 CA        -13.0897   19.7156    5.3826 C.3       5 GLY6        0.0000 
     34 CA        -13.2232   19.0890    6.7389 C.3       5 GLY6        0.0000 
     35 CZ        -13.4903   17.8359    9.4516 C.ar      4 PHE5        0.0000 
     36 CA        -13.6238   17.2093   10.8079 C.3       5 GLY6        0.0000 
     37 CA        -14.5837   19.7688    5.2601 C.3       5 GLY6        0.0000 
     38 DU        -14.7173   19.1422    6.6164 H         6 CUB7        0.0000 
     39 DU        -14.8508   18.5156    7.9727 H         6 CUB7        0.0000 
     40 CA        -14.9843   17.8891    9.3291 C.3       5 GLY6        0.0000 
     41 CA        -15.1178   17.2625   10.6854 C.3       5 GLY6        0.0000 
     42 CA        -15.9443   20.4486    3.7813 C.3       5 GLY6        0.0000 
     43 DU        -16.0778   19.8220    5.1376 H         6 CUB7        0.0000 
     44 CZ        -16.2113   19.1954    6.4939 C.ar      4 PHE5        0.0000 
     45 CZ        -16.3448   18.5688    7.8502 C.ar      4 PHE5        0.0000 
     46 CA        -16.4784   17.9423    9.2066 C.3       5 GLY6        0.0000 
     47 CA        -17.4383   20.5018    3.6588 C.3       5 GLY6        0.0000 
     48 CZ        -17.5718   19.8752    5.0151 C.ar      4 PHE5        0.0000 
     49 CZ        -17.7053   19.2486    6.3714 C.ar      4 PHE5        0.0000 
     50 CZ        -17.9724   17.9955    9.0840 C.ar      4 PHE5        0.0000 
     51 CA        -18.9323   20.5550    3.5363 C.3       5 GLY6        0.0000 
     52 CA        -20.4264   20.6082    3.4138 C.3       5 GLY6        0.0000 
     53 O         -17.7146   23.3341    8.2579 O.2       2 ALA2        0.0000 
     54 CZ        -17.8481   22.7075    9.6142 C.ar      4 PHE5        0.0000 
     55 CA        -17.9816   22.0810   10.9705 C.3       5 GLY6        0.0000 
     56 DU        -19.2086   23.3873    8.1354 H         6 CUB7        0.0000 
     57 CZ        -14.8447   15.7920    6.7151 C.ar      4 PHE5        0.0000 
     58 NZ        -14.9782   15.1654    8.0714 N.2       3 LYS4        0.0000 
     59 N         -16.0716   17.0983    3.8800 N.2       2 ALA2        0.0000 
     60 CZ        -16.2052   16.4718    5.2363 C.ar      4 PHE5        0.0000 
     61 CZ        -16.3387   15.8452    6.5926 C.ar      4 PHE5        0.0000 
     62 NZ        -16.4722   15.2186    7.9489 N.2       3 LYS4        0.0000 
     63 O         -17.4322   17.7781    2.4012 O.2       2 ALA2        0.0000 
     64 CZ        -17.5657   17.1515    3.7575 C.ar      4 PHE5        0.0000 
     65 CZ        -17.6992   16.5250    5.1138 C.ar      4 PHE5        0.0000 
     66 O         -18.7927   18.4579    0.9223 O.2       2 ALA2        0.0000 
     67 CZ        -18.9262   17.8313    2.2787 C.ar      4 PHE5        0.0000 
     68 CZ        -19.0597   17.2047    3.6350 C.ar      4 PHE5        0.0000 
     69 O         -20.2867   18.5111    0.7998 O.2       2 ALA2        0.0000 
     70 CZ        -20.4202   17.8845    2.1561 C.ar      4 PHE5        0.0000 
     71 NZ        -21.7808   18.5643    0.6773 N.2       3 LYS4        0.0000 
     72 CZ        -16.3356   14.4834    5.9638 C.ar      4 PHE5        0.0000 
     73 O         -17.5626   15.7897    3.1287 O.2       2 ALA2        0.0000 
     74 CZ        -17.6961   15.1631    4.4850 C.ar      4 PHE5        0.0000 
     75 NZ        -18.9231   16.4695    1.6498 N.2       3 LYS4        0.0000 
     76 CZ        -19.0567   15.8429    3.0061 C.ar      4 PHE5        0.0000 
     77 CZ        -19.1902   15.2163    4.3625 C.ar      4 PHE5        0.0000 
     78 CZ        -20.5507   15.8961    2.8836 C.ar      4 PHE5        0.0000 
     79 NZ        -19.0536   14.4811    2.3773 N.2       3 LYS4        0.0000 
     80 OG        -19.1871   13.8545    3.7336 O.2       1 SER1        0.0000 
     81 DU        -19.2055   22.0255    7.5065 H         6 CUB7        0.0000 
     82 CZ        -19.3391   21.3989    8.8629 C.ar      4 PHE5        0.0000 
     83 CZ        -20.8331   21.4521    8.7403 C.ar      4 PHE5        0.0000 
     84 CA        -12.1328   18.5179   11.5592 C.3       5 GLY6        0.0000 
     85 CZ        -13.6269   18.5711   11.4367 C.ar      4 PHE5        0.0000 
     86 N         -13.7604   17.9446   12.7930 N.2       2 ALA2        0.0000 
     87 CA        -14.5868   21.1306    5.8889 C.3       5 GLY6        0.0000 
     88 CZ        -14.7203   20.5040    7.2453 C.ar      4 PHE5        0.0000 
     89 CZ        -14.8539   19.8775    8.6016 C.ar      4 PHE5        0.0000 
     90 CA        -15.9473   21.8104    4.4101 C.3       5 GLY6        0.0000 
     91 DU        -16.0808   21.1838    5.7664 H         6 CUB7        0.0000 
     92 CZ        -16.2144   20.5572    7.1227 C.ar      4 PHE5        0.0000 
     93 CA        -16.3479   19.9307    8.4791 C.3       5 GLY6        0.0000 
     94 CA        -13.7635   19.3064   13.4218 C.3       5 GLY6        0.0000 
     95 O         -16.0839   22.5456    6.3953 O.2       2 ALA2        0.0000 
     96 CZ        -16.2174   21.9191    7.7516 C.ar      4 PHE5        0.0000 
     97 CA        -17.5780   22.5988    6.2727 C.3       5 GLY6        0.0000 
     98 DU        -17.7115   21.9723    7.6291 H         6 CUB7        0.0000 
     99 CA        -17.8450   21.3457    8.9854 C.3       5 GLY6        0.0000 
    100 CA        -18.9385   23.2786    4.7939 C.3       5 GLY6        0.0000 
    101 CA        -19.0720   22.6520    6.1502 C.3       5 GLY6        0.0000 
@<TRIPOS>BOND
@<TRIPOS>SUBSTRUCTURE
     1 SER1       80 GROUP   
     2 ALA2        2 GROUP   
     3 LYS4       13 GROUP   
     4 PHE5        1 GROUP   
     5 GLY6        4 GROUP   
     6 CUB7        7 GROUP   
@<TRIPOS>SET

