#    Name: 3jq7_DX2_2_INTS_M
#    Modification time : Tue Mar 25 17:42:31 2014

@<TRIPOS>MOLECULE
3jq7_DX2_2_INTS_M
   32     0     6     0     0
SMALL
NO_CHARGES


@<TRIPOS>ATOM
      1 CA        -17.9330   12.9385    3.3455 C.3       2 GLC5        0.0000 
      2 CA        -18.2580   14.5950    4.3730 C.3       6 GLL5        0.0000 
      3 CA        -17.6080   11.2820    2.3180 C.3       4 GLP5        0.0000 
      4 O         -21.0615   11.8530    2.6965 O.2       1 ALC1        0.0000 
      5 O         -20.5820   13.0140    2.1710 O.2       5 ALL1        0.0000 
      6 O         -21.5410   10.6920    3.2220 O.2       3 ALP1        0.0000 
      7 O         -20.8270   13.9985    0.9610 O.2       1 ALC1        0.0000 
      8 O         -21.0720   14.9830   -0.2490 O.2       3 ALP1        0.0000 
      9 CA        -16.0710   23.0945    4.7455 C.3       2 GLC5        0.0000 
     10 CA        -15.2550   21.1390    4.5280 C.3       6 GLL5        0.0000 
     11 CA        -16.8870   25.0500    4.9630 C.3       4 GLP5        0.0000 
     12 O         -17.8545   13.1370    6.1650 O.2       1 ALC1        0.0000 
     13 O         -17.5450   14.2840    5.4760 O.2       5 ALL1        0.0000 
     14 O         -18.1640   11.9900    6.8540 O.2       3 ALP1        0.0000 
     15 CA        -20.6345   12.0085    2.3155 C.3       2 GLC5        0.0000 
     16 CA        -19.7750   13.9410    2.7080 C.3       6 GLL5        0.0000 
     17 CA        -21.4940   10.0760    1.9230 C.3       4 GLP5        0.0000 
     18 CA        -21.0515   14.4915    3.6325 C.3       2 GLC5        0.0000 
     19 CA        -22.3280   15.0420    4.5570 C.3       4 GLP5        0.0000 
     20 CA        -18.6915   12.6115    2.5130 C.3       2 GLC5        0.0000 
     21 CA        -14.4863   21.4147    3.6200 C.3       2 GLC5        0.0000 
     22 CA        -16.1340   20.2600    3.8560 C.3       6 GLL5        0.0000 
     23 CA        -13.2780   22.1300    3.0480 C.3       4 GLP5        0.0000 
     24 CA        -16.4402   21.7473    3.0635 C.3       2 GLC5        0.0000 
     25 CA        -17.1860   22.7950    1.9350 C.3       4 GLP5        0.0000 
     26 CA        -12.6118   19.7328    6.2515 C.3       2 GLC5        0.0000 
     27 CA        -14.5690   20.7760    5.6880 C.3       6 GLL5        0.0000 
     28 CA        -10.5570   19.3270    6.5840 C.3       4 GLP5        0.0000 
     29 CA        -13.9723   21.1343    4.4835 C.3       2 GLC5        0.0000 
     30 CA        -14.7640   19.5010    6.1500 C.3       6 GLL5        0.0000 
     31 CA        -20.4273   15.3561    3.9441 C.3       2 GLC5        0.0000 
     32 CA        -18.1300   15.8500    3.7560 C.3       6 GLL5        0.0000 
@<TRIPOS>BOND
@<TRIPOS>SUBSTRUCTURE
     1 ALC1        4 GROUP        1 X    ALC  0     ROOT ALC X 1
     2 GLC5        1 GROUP        1 X    GLC  0     **** GLC X 6
     3 ALP1        6 GROUP        1 Y    ALP  0     ROOT ALP Y 8
     4 GLP5        3 GROUP        1 Y    GLP  0     **** GLP Y 13
     5 ALL1        5 GROUP        1 Z    ALL  0     ROOT ALL Z 15
     6 GLL5        2 GROUP        1 Z    GLL  0     **** GLL Z 20
@<TRIPOS>SET

