#    Name: 3jq7_DX2_2_ligand
#    Modification time : Tue Mar 25 17:42:32 2014

@<TRIPOS>MOLECULE
3jq7_DX2_2_ligand
   30    32     1     0     0
SMALL
NO_CHARGES


@<TRIPOS>ATOM
      1 C4        -18.2580   14.5950    4.3730 C.ar      1 DX2271      0.0000 
      2 C6        -17.2150   18.0460    3.6990 C.ar      1 DX2271      0.0000 
      3 C7        -17.9580   18.2950    2.5190 C.ar      1 DX2271      0.0000 
      4 N1        -19.6690   15.1570    2.1090 N.ar      1 DX2271      0.0000 
      5 N2        -20.5820   13.0140    2.1710 N.pl3     1 DX2271      0.0000 
      6 N3        -19.0690   13.6480    3.8250 N.ar      1 DX2271      0.0000 
      7 CAG       -16.1340   20.2600    3.8560 C.ar      1 DX2271      0.0000 
      8 CAE       -15.2550   21.1390    4.5280 C.ar      1 DX2271      0.0000 
      9 CAD       -14.5690   20.7760    5.6880 C.ar      1 DX2271      0.0000 
     10 CAF       -14.7640   19.5010    6.1500 C.ar      1 DX2271      0.0000 
     11 CAH       -15.6390   18.6360    5.4730 C.ar      1 DX2271      0.0000 
     12 CAN       -16.3460   18.9750    4.3200 C.ar      1 DX2271      0.0000 
     13 N5        -17.3300   16.8250    4.2730 N.ar      1 DX2271      0.0000 
     14 C4A       -18.1300   15.8500    3.7560 C.ar      1 DX2271      0.0000 
     15 N4        -17.5450   14.2840    5.4760 N.pl3     1 DX2271      0.0000 
     16 C2        -19.7750   13.9410    2.7080 C.ar      1 DX2271      0.0000 
     17 C8A       -18.8590   16.1180    2.5980 C.ar      1 DX2271      0.0000 
     18 N8        -18.7610   17.3330    1.9900 N.ar      1 DX2271      0.0000 
     19 NAB       -17.8900   19.4860    1.8800 N.pl3     1 DX2271      0.0000 
     20 H         -21.0472   13.2727    1.3244 H         1 DX2271      0.0000 
     21 H         -20.6463   12.1471    2.6652 H         1 DX2271      0.0000 
     22 H         -16.6184   20.5947    3.0078 H         1 DX2271      0.0000 
     23 H         -15.1184   22.0952    4.1359 H         1 DX2271      0.0000 
     24 H         -13.9602   21.4314    6.1558 H         1 DX2271      0.0000 
     25 H         -14.2768   19.1628    6.9912 H         1 DX2271      0.0000 
     26 H         -15.7675   17.6640    5.8669 H         1 DX2271      0.0000 
     27 H         -16.9250   14.9923    5.8134 H         1 DX2271      0.0000 
     28 H         -17.7001   13.3728    5.8578 H         1 DX2271      0.0000 
     29 H         -17.0104   19.9596    1.9244 H         1 DX2271      0.0000 
     30 H         -18.7254   19.7869    1.4201 H         1 DX2271      0.0000 
@<TRIPOS>BOND
     1    6    1 ar   
     2   14    1 ar   
     3   15    1 1    
     4    3    2 ar   
     5   12    2 1    
     6   13    2 ar   
     7   18    3 ar   
     8   19    3 1    
     9   16    4 ar   
    10   17    4 ar   
    11   16    5 1    
    12   20    5 1    
    13   21    5 1    
    14   16    6 ar   
    15    8    7 ar   
    16   12    7 ar   
    17   22    7 1    
    18    9    8 ar   
    19   23    8 1    
    20   10    9 ar   
    21   24    9 1    
    22   11   10 ar   
    23   25   10 1    
    24   12   11 ar   
    25   26   11 1    
    26   14   13 ar   
    27   17   14 ar   
    28   27   15 1    
    29   28   15 1    
    30   18   17 ar   
    31   29   19 1    
    32   30   19 1    
@<TRIPOS>SUBSTRUCTURE
     1 DX2271      1 GROUP   
@<TRIPOS>SET

