#    Name: 1d2s_DHT_1_INTS_M
#    Modification time : Mon Mar 24 21:22:22 2014

@<TRIPOS>MOLECULE
1d2s_DHT_1_INTS_M
   68     0     9     0     0
SMALL
NO_CHARGES


@<TRIPOS>ATOM
      1 CA         23.6665    8.2780   30.2285 C.3       3 GLC5        0.0000 
      2 CA         24.1170   10.0290   30.8710 C.3       9 GLL5        0.0000 
      3 CA         23.2160    6.5270   29.5860 C.3       6 GLP5        0.0000 
      4 CA         27.1230   10.5115   29.2555 C.3       3 GLC5        0.0000 
      5 CA         25.6170   10.2080   30.7070 C.3       9 GLL5        0.0000 
      6 CA         28.6290   10.8150   27.8040 C.3       6 GLP5        0.0000 
      7 CA         26.7145    9.6685   32.4145 C.3       3 GLC5        0.0000 
      8 CA         27.8120    9.1290   34.1220 C.3       6 GLP5        0.0000 
      9 CA         27.1405    8.7375   30.3370 C.3       3 GLC5        0.0000 
     10 CA         28.6640    7.2670   29.9670 C.3       6 GLP5        0.0000 
     11 N          27.4550   13.3940   30.3380 N.am      2 SEC2        0.0000 
     12 N          26.7490   12.2160   30.1970 N.am      8 SEL2        0.0000 
     13 N          28.1610   14.5720   30.4790 N.am      5 SEP2        0.0000 
     14 CA         25.8085   13.3285   33.7215 C.3       3 GLC5        0.0000 
     15 CA         25.3280   12.3550   32.0980 C.3       9 GLL5        0.0000 
     16 CA         26.2890   14.3020   35.3450 C.3       6 GLP5        0.0000 
     17 CA         24.9615   12.9995   30.0055 C.3       3 GLC5        0.0000 
     18 CA         24.5950   13.6440   27.9130 C.3       6 GLP5        0.0000 
     19 CA         24.7285   13.5570   34.3780 C.3       3 GLC5        0.0000 
     20 CA         23.1680   12.8120   33.4110 C.3       9 GLL5        0.0000 
     21 CA         23.4945   12.2655   35.2470 C.3       3 GLC5        0.0000 
     22 CA         23.8210   11.7190   37.0830 C.3       6 GLP5        0.0000 
     23 CA         21.0925   13.4875   31.5310 C.3       3 GLC5        0.0000 
     24 CA         21.6550   12.6940   33.3480 C.3       9 GLL5        0.0000 
     25 CA         20.5300   14.2810   29.7140 C.3       6 GLP5        0.0000 
     26 CA         22.3055    7.7900   30.7690 C.3       3 GLC5        0.0000 
     27 CA         21.3950    9.0530   31.9520 C.3       9 GLL5        0.0000 
     28 CA         22.3585    7.2770   32.6180 C.3       3 GLC5        0.0000 
     29 CA         23.3220    5.5010   33.2840 C.3       6 GLP5        0.0000 
     30 CA         20.7075    7.6330   30.4285 C.3       3 GLC5        0.0000 
     31 CA         19.8950    8.8690   31.9120 C.3       9 GLL5        0.0000 
     32 CA         21.5200    6.3970   28.9450 C.3       6 GLP5        0.0000 
     33 CA         19.3925   12.1635   31.3600 C.3       3 GLC5        0.0000 
     34 CA         19.7140   11.0760   33.0650 C.3       9 GLL5        0.0000 
     35 CA         19.0710   13.2510   29.6550 C.3       6 GLP5        0.0000 
     36 CA         18.1500   13.6800   34.4670 C.3       3 GLC5        0.0000 
     37 CA         18.8010   11.7140   34.1110 C.3       9 GLL5        0.0000 
     38 CA         17.4990   15.6460   34.8230 C.3       6 GLP5        0.0000 
     39 CA         15.6125   11.3250   34.9085 C.3       3 GLC5        0.0000 
     40 CA         17.4270   11.0930   33.8070 C.3       9 GLL5        0.0000 
     41 CA         13.7980   11.5570   36.0100 C.3       6 GLP5        0.0000 
     42 N          16.7005    7.5560   33.8870 N.am      2 SEC2        0.0000 
     43 N          16.8630    8.8090   33.1480 N.am      8 SEL2        0.0000 
     44 N          16.5380    6.3030   34.6260 N.am      5 SEP2        0.0000 
     45 O          15.7105    9.4235   33.5385 O.2       1 ALC1        0.0000 
     46 O          16.8630    8.8090   33.1480 O.2       7 ALL1        0.0000 
     47 O          14.5580   10.0380   33.9290 O.2       4 ALP1        0.0000 
     48 CA         20.3765   10.1825   35.7045 C.3       3 GLC5        0.0000 
     49 CA         19.4690    8.9360   34.4120 C.3       9 GLL5        0.0000 
     50 CA         21.2840   11.4290   36.9970 C.3       6 GLP5        0.0000 
     51 CA         20.1270    7.4480   35.7425 C.3       3 GLC5        0.0000 
     52 CA         20.7850    5.9600   37.0730 C.3       6 GLP5        0.0000 
     53 CA         24.0710    9.4260   35.1870 C.3       3 GLC5        0.0000 
     54 CA         24.0060    9.8790   33.4240 C.3       9 GLL5        0.0000 
     55 CA         24.1360    8.9730   36.9500 C.3       6 GLP5        0.0000 
     56 CA         25.9090    9.5040   33.7730 C.3       3 GLC5        0.0000 
     57 CA         24.7675    7.9770   33.8990 C.3       3 GLC5        0.0000 
     58 CA         25.5290    6.0750   34.3740 C.3       6 GLP5        0.0000 
     59 CA         24.1943   14.3930   32.3570 C.3       3 GLC5        0.0000 
     60 CA         23.8150   12.1130   32.2100 C.3       9 GLL5        0.0000 
     61 CA         23.8170   16.5520   32.5600 C.3       6 GLP5        0.0000 
     62 CA         21.7993   14.3550   34.4297 C.3       3 GLC5        0.0000 
     63 CA         21.1870   15.9570   35.4800 C.3       6 GLP5        0.0000 
     64 CA         23.1142   14.6525   32.9698 C.3       3 GLC5        0.0000 
     65 CA         21.3595   11.6917   35.1487 C.3       3 GLC5        0.0000 
     66 CA         20.2707   11.4120   35.2925 C.3       3 GLC5        0.0000 
     67 CA         17.5670   12.0358   35.7930 C.3       3 GLC5        0.0000 
     68 CA         17.0200   12.6680   37.6270 C.3       6 GLP5        0.0000 
@<TRIPOS>BOND
@<TRIPOS>SUBSTRUCTURE
     1 ALC1       45 GROUP        1 X    ALC  0     ROOT ALC X 1
     2 SEC2       11 GROUP        1 X    SEC  0     **** SEC X 2
     3 GLC5        1 GROUP        1 X    GLC  0     **** GLC X 6
     4 ALP1       47 GROUP        1 Y    ALP  0     ROOT ALP Y 8
     5 SEP2       13 GROUP        1 Y    SEP  0     **** SEP Y 9
     6 GLP5        3 GROUP        1 Y    GLP  0     **** GLP Y 13
     7 ALL1       46 GROUP        1 Z    ALL  0     ROOT ALL Z 15
     8 SEL2       12 GROUP        1 Z    SEL  0     **** SEL Z 16
     9 GLL5        2 GROUP        1 Z    GLL  0     **** GLL Z 20
@<TRIPOS>SET

