#    Name: 1d2s_DHT_1_ligand
#    Modification time : Mon Mar 24 21:22:22 2014

@<TRIPOS>MOLECULE
1d2s_DHT_1_ligand
   51    54     1     0     0
SMALL
NO_CHARGES


@<TRIPOS>ATOM
      1 C1         24.1170   10.0290   30.8710 C.3       1 DHT301      0.0000 
      2 C2         25.6170   10.2080   30.7070 C.3       1 DHT301      0.0000 
      3 C3         25.9240   11.6880   30.9260 C.2       1 DHT301      0.0000 
      4 O3         26.7490   12.2160   30.1970 O.2       1 DHT301      0.0000 
      5 C4         25.3280   12.3550   32.0980 C.3       1 DHT301      0.0000 
      6 C5         23.8150   12.1130   32.2100 C.3       1 DHT301      0.0000 
      7 C6         23.1680   12.8120   33.4110 C.3       1 DHT301      0.0000 
      8 C7         21.6550   12.6940   33.3480 C.3       1 DHT301      0.0000 
      9 C8         21.2150   11.2150   33.2530 C.3       1 DHT301      0.0000 
     10 C9         21.9310   10.4950   32.0790 C.3       1 DHT301      0.0000 
     11 C10        23.4820   10.5860   32.1520 C.3       1 DHT301      0.0000 
     12 C11        21.3950    9.0530   31.9520 C.3       1 DHT301      0.0000 
     13 C12        19.8950    8.8690   31.9120 C.3       1 DHT301      0.0000 
     14 C13        19.2090    9.6180   33.0450 C.3       1 DHT301      0.0000 
     15 C14        19.7140   11.0760   33.0650 C.3       1 DHT301      0.0000 
     16 C15        18.8010   11.7140   34.1110 C.3       1 DHT301      0.0000 
     17 C16        17.4270   11.0930   33.8070 C.3       1 DHT301      0.0000 
     18 C17        17.7320    9.9090   32.8670 C.3       1 DHT301      0.0000 
     19 O17        16.8630    8.8090   33.1480 O.3       1 DHT301      0.0000 
     20 C18        19.4690    8.9360   34.4120 C.3       1 DHT301      0.0000 
     21 C19        24.0060    9.8790   33.4240 C.3       1 DHT301      0.0000 
     22 H          23.8751    8.9406   30.8059 H         1 DHT301      0.0000 
     23 H          23.6013   10.4924   29.9954 H         1 DHT301      0.0000 
     24 H          25.9105    9.9247   29.7124 H         1 DHT301      0.0000 
     25 H          26.1360    9.6218   31.4437 H         1 DHT301      0.0000 
     26 H          25.4962   13.4427   32.0491 H         1 DHT301      0.0000 
     27 H          25.7999   11.9963   33.0267 H         1 DHT301      0.0000 
     28 H          23.3536   12.5540   31.2874 H         1 DHT301      0.0000 
     29 H          23.4524   13.8626   33.4054 H         1 DHT301      0.0000 
     30 H          23.5318   12.3516   34.3277 H         1 DHT301      0.0000 
     31 H          21.2807   13.2256   32.4743 H         1 DHT301      0.0000 
     32 H          21.2144   13.1317   34.2426 H         1 DHT301      0.0000 
     33 H          21.5006   10.7092   34.1680 H         1 DHT301      0.0000 
     34 H          21.6149   11.0306   31.1513 H         1 DHT301      0.0000 
     35 H          21.8142    8.4557   32.7991 H         1 DHT301      0.0000 
     36 H          21.8435    8.6003   31.0333 H         1 DHT301      0.0000 
     37 H          19.6559    7.8040   31.9910 H         1 DHT301      0.0000 
     38 H          19.5081    9.2345   30.9558 H         1 DHT301      0.0000 
     39 H          19.4121   11.4980   32.0890 H         1 DHT301      0.0000 
     40 H          18.7576   12.7599   33.9632 H         1 DHT301      0.0000 
     41 H          19.1105   11.4315   35.0816 H         1 DHT301      0.0000 
     42 H          16.8185   11.8001   33.3015 H         1 DHT301      0.0000 
     43 H          16.9913   10.7310   34.7041 H         1 DHT301      0.0000 
     44 H          17.5900   10.2903   31.8540 H         1 DHT301      0.0000 
     45 H          20.4444    8.8994   34.6292 H         1 DHT301      0.0000 
     46 H          19.0199    9.4228   35.1613 H         1 DHT301      0.0000 
     47 H          19.1296    7.9955   34.4284 H         1 DHT301      0.0000 
     48 H          24.9957    9.9810   33.5246 H         1 DHT301      0.0000 
     49 H          23.5874   10.2487   34.2535 H         1 DHT301      0.0000 
     50 H          23.8123    8.8980   33.4101 H         1 DHT301      0.0000 
     51 H          16.0065    9.2268   33.4511 H         1 DHT301      0.0000 
@<TRIPOS>BOND
     1    2    1 1    
     2   11    1 1    
     3   22    1 1    
     4   23    1 1    
     5    3    2 1    
     6   24    2 1    
     7   25    2 1    
     8    4    3 2    
     9    5    3 1    
    10    6    5 1    
    11   26    5 1    
    12   27    5 1    
    13    7    6 1    
    14   11    6 1    
    15   28    6 1    
    16    8    7 1    
    17   29    7 1    
    18   30    7 1    
    19    9    8 1    
    20   31    8 1    
    21   32    8 1    
    22   10    9 1    
    23   15    9 1    
    24   33    9 1    
    25   11   10 1    
    26   12   10 1    
    27   34   10 1    
    28   21   11 1    
    29   13   12 1    
    30   35   12 1    
    31   36   12 1    
    32   14   13 1    
    33   37   13 1    
    34   38   13 1    
    35   15   14 1    
    36   18   14 1    
    37   20   14 1    
    38   16   15 1    
    39   39   15 1    
    40   17   16 1    
    41   40   16 1    
    42   41   16 1    
    43   18   17 1    
    44   42   17 1    
    45   43   17 1    
    46   19   18 1    
    47   44   18 1    
    48   51   19 1    
    49   45   20 1    
    50   46   20 1    
    51   47   20 1    
    52   48   21 1    
    53   49   21 1    
    54   50   21 1    
@<TRIPOS>SUBSTRUCTURE
     1 DHT301      1 GROUP   
@<TRIPOS>SET

