#    Name: 3d94_D94_1_INTS_M
#    Modification time : Mon Mar 24 22:56:39 2014

@<TRIPOS>MOLECULE
3d94_D94_1_INTS_M
   91     0     9     0     0
SMALL
NO_CHARGES


@<TRIPOS>ATOM
      1 O          25.6875   12.4300   -8.4415 O.2       1 ALC1        0.0000 
      2 O          25.4110   13.5940   -7.6470 O.2       7 ALL1        0.0000 
      3 O          25.9640   11.2660   -9.2360 O.2       4 ALP1        0.0000 
      4 CA         23.1660   13.7400   -7.2380 C.3       3 GLC5        0.0000 
      5 CA         24.2220   14.8190   -5.8410 C.3       9 GLL5        0.0000 
      6 CA         22.1100   12.6610   -8.6350 C.3       6 GLP5        0.0000 
      7 CA         25.1305   14.2770   -4.1580 C.3       3 GLC5        0.0000 
      8 CA         26.0390   13.7350   -2.4750 C.3       6 GLP5        0.0000 
      9 CA         21.6335   14.6095   -5.5550 C.3       3 GLC5        0.0000 
     10 CA         22.9520   13.4880   -4.2750 C.3       9 GLL5        0.0000 
     11 CA         20.3150   15.7310   -6.8350 C.3       6 GLP5        0.0000 
     12 CA         22.7230   12.5280   -6.8025 C.3       3 GLC5        0.0000 
     13 CA         23.3360   12.3950   -4.9700 C.3       9 GLL5        0.0000 
     14 CA         22.5680   10.7590   -5.7925 C.3       3 GLC5        0.0000 
     15 CA         21.8000    9.1230   -6.6150 C.3       6 GLP5        0.0000 
     16 CA         25.2290   11.5090   -4.8185 C.3       3 GLC5        0.0000 
     17 CA         27.1220   10.6230   -4.6670 C.3       6 GLP5        0.0000 
     18 N          24.8460   11.0000   -6.1670 N.am      2 SEC2        0.0000 
     19 N          24.1530   12.4190   -6.0860 N.am      8 SEL2        0.0000 
     20 N          25.5390    9.5810   -6.2480 N.am      5 SEP2        0.0000 
     21 CA         20.6465   14.9245   -3.0965 C.3       3 GLC5        0.0000 
     22 CA         22.3500   16.3460   -3.0250 C.3       9 GLL5        0.0000 
     23 CA         18.9430   13.5030   -3.1680 C.3       6 GLP5        0.0000 
     24 CA         21.8550   19.9035   -3.1590 C.3       3 GLC5        0.0000 
     25 CA         22.1470   17.8370   -2.6380 C.3       9 GLL5        0.0000 
     26 CA         21.5630   21.9700   -3.6800 C.3       6 GLP5        0.0000 
     27 CA         21.9225   20.8370   -2.0510 C.3       3 GLC5        0.0000 
     28 CA         22.2820   19.7040   -0.4220 C.3       9 GLL5        0.0000 
     29 CA         25.8265   20.8740    2.8960 C.3       3 GLC5        0.0000 
     30 CA         23.6940   21.1880    2.8030 C.3       9 GLL5        0.0000 
     31 CA         27.9590   20.5600    2.9890 C.3       6 GLP5        0.0000 
     32 CA         24.6090   15.0150   -2.0925 C.3       3 GLC5        0.0000 
     33 CA         23.1790   16.2950   -1.7100 C.3       9 GLL5        0.0000 
     34 CA         26.0975   19.6220   -6.2455 C.3       3 GLC5        0.0000 
     35 CA         25.0300   18.1480   -7.4770 C.3       9 GLL5        0.0000 
     36 CA         27.1650   21.0960   -5.0140 C.3       6 GLP5        0.0000 
     37 CA         27.6915   15.4995   -5.3145 C.3       3 GLC5        0.0000 
     38 CA         26.6420   16.4030   -7.0190 C.3       9 GLL5        0.0000 
     39 CA         28.7410   14.5960   -3.6100 C.3       6 GLP5        0.0000 
     40 N          24.5690   20.6295   -8.1615 N.am      2 SEC2        0.0000 
     41 N          25.6130   20.0080   -8.8560 N.am      8 SEL2        0.0000 
     42 N          23.5250   21.2510   -7.4670 N.am      5 SEP2        0.0000 
     43 CA         28.5040   19.6720  -11.3810 C.3       3 GLC5        0.0000 
     44 CA         27.8420   20.1790   -9.7920 C.3       9 GLL5        0.0000 
     45 CA         29.1660   19.1650  -12.9700 C.3       6 GLP5        0.0000 
     46 CA         29.0535   18.3175  -10.8035 C.3       3 GLC5        0.0000 
     47 CA         28.2070   18.9680   -9.1950 C.3       9 GLL5        0.0000 
     48 CA         29.9000   17.6670  -12.4120 C.3       6 GLP5        0.0000 
     49 CA         29.3775   18.3675   -7.4660 C.3       3 GLC5        0.0000 
     50 CA         30.5480   17.7670   -5.7370 C.3       6 GLP5        0.0000 
     51 CA         26.6625   23.5705  -13.0475 C.3       3 GLC5        0.0000 
     52 CA         26.3910   24.2580  -10.9590 C.3       9 GLL5        0.0000 
     53 CA         26.9340   22.8830  -15.1360 C.3       6 GLP5        0.0000 
     54 CA         22.3275   15.6142   -6.3788 C.3       3 GLC5        0.0000 
     55 CA         24.4580   16.1760   -6.0040 C.3       9 GLL5        0.0000 
     56 CA         21.3895   12.4492   -4.8212 C.3       3 GLC5        0.0000 
     57 CA         19.6350   11.9570   -5.0200 C.3       6 GLP5        0.0000 
     58 CA         24.5915   13.3382   -3.5488 C.3       3 GLC5        0.0000 
     59 CA         21.3062   17.6242   -4.4272 C.3       3 GLC5        0.0000 
     60 CA         20.3640   18.1570   -6.0230 C.3       6 GLP5        0.0000 
     61 CA         20.0872   17.5907   -1.4438 C.3       3 GLC5        0.0000 
     62 CA         18.0430   17.6210   -0.9750 C.3       6 GLP5        0.0000 
     63 CA         25.2440   17.0805    1.2993 C.3       3 GLC5        0.0000 
     64 CA         23.7000   17.9910    0.5990 C.3       9 GLL5        0.0000 
     65 CA         26.7080   15.7390    1.3700 C.3       6 GLP5        0.0000 
     66 CA         23.8190   19.6590   -7.8087 C.3       3 GLC5        0.0000 
     67 CA         22.1390   20.8260   -7.7460 C.3       6 GLP5        0.0000 
     68 CA         27.0792   17.3195   -9.8515 C.3       3 GLC5        0.0000 
     69 CA         25.9680   18.8360   -8.2660 C.3       9 GLL5        0.0000 
     70 CA         27.5370   16.0840  -11.3630 C.3       6 GLP5        0.0000 
     71 CA         27.8905   15.1638   -8.2882 C.3       3 GLC5        0.0000 
     72 CA         27.6120   17.0500   -7.7860 C.3       9 GLL5        0.0000 
     73 CA         28.6540   13.6010   -9.1740 C.3       6 GLP5        0.0000 
     74 CA         27.3320   16.4052   -9.3827 C.3       3 GLC5        0.0000 
     75 CA         28.7954   17.3998   -6.6482 C.3       3 GLC5        0.0000 
     76 CA         27.2750   18.2740   -8.4140 C.3       9 GLL5        0.0000 
     77 CA         27.8098   20.6760   -7.7925 C.3       3 GLC5        0.0000 
     78 CA         28.4240   20.9200   -5.8880 C.3       6 GLP5        0.0000 
     79 CA         27.7807   17.8287  -10.4283 C.3       3 GLC5        0.0000 
     80 CA         28.0429   19.6526   -7.2585 C.3       3 GLC5        0.0000 
     81 CA         26.9187   24.8920   -9.1753 C.3       3 GLC5        0.0000 
     82 CA         26.8600   23.1160  -10.2980 C.3       9 GLL5        0.0000 
     83 CA         27.2120   26.0970   -7.7220 C.3       6 GLP5        0.0000 
     84 CA         26.4985   25.7005  -12.4187 C.3       3 GLC5        0.0000 
     85 CA         27.2300   27.1510  -13.5610 C.3       6 GLP5        0.0000 
     86 CA         23.1210   21.8927  -10.1758 C.3       3 GLC5        0.0000 
     87 CA         24.3670   23.0950  -11.5630 C.3       9 GLL5        0.0000 
     88 CA         21.6340   21.2590   -9.1120 C.3       6 GLP5        0.0000 
     89 CA         25.1765   22.5451  -13.2041 C.3       3 GLC5        0.0000 
     90 CA         24.8490   21.9580  -10.9160 C.3       9 GLL5        0.0000 
     91 CA         25.5510   22.2770  -15.1610 C.3       6 GLP5        0.0000 
@<TRIPOS>BOND
@<TRIPOS>SUBSTRUCTURE
     1 ALC1        1 GROUP        1 X    ALC  0     ROOT ALC X 1
     2 SEC2       18 GROUP        1 X    SEC  0     **** SEC X 2
     3 GLC5        4 GROUP        1 X    GLC  0     **** GLC X 6
     4 ALP1        3 GROUP        1 Y    ALP  0     ROOT ALP Y 8
     5 SEP2       20 GROUP        1 Y    SEP  0     **** SEP Y 9
     6 GLP5        6 GROUP        1 Y    GLP  0     **** GLP Y 13
     7 ALL1        2 GROUP        1 Z    ALL  0     ROOT ALL Z 15
     8 SEL2       19 GROUP        1 Z    SEL  0     **** SEL Z 16
     9 GLL5        5 GROUP        1 Z    GLL  0     **** GLL Z 20
@<TRIPOS>SET

