#    Name: 3d94_D94_1_ligand
#    Modification time : Mon Mar 24 22:56:39 2014

@<TRIPOS>MOLECULE
3d94_D94_1_ligand
   69    75     1     0     0
SMALL
NO_CHARGES


@<TRIPOS>ATOM
      1 N5         25.4110   13.5940   -7.6470 N.pl3     1 D941        0.0000 
      2 C3         24.5920   13.5810   -6.5360 C.2       1 D941        0.0000 
      3 C4         24.2220   14.8190   -5.8410 C.2       1 D941        0.0000 
      4 N2         23.4050   14.7300   -4.7190 N.pl3     1 D941        0.0000 
      5 C2         22.9520   13.4880   -4.2750 C.2       1 D941        0.0000 
      6 C1         23.3360   12.3950   -4.9700 C.2       1 D941        0.0000 
      7 N1         24.1530   12.4190   -6.0860 N.2       1 D941        0.0000 
      8 C5         23.1950   16.0030   -4.2520 C.2       1 D941        0.0000 
      9 C22        22.3500   16.3460   -3.0250 C.3       1 D941        0.0000 
     10 C23        22.1470   17.8370   -2.6380 C.3       1 D941        0.0000 
     11 C24        22.1160   17.2840   -1.1870 C.3       1 D941        0.0000 
     12 N6         22.4270   18.2710   -0.1040 N.4       1 D941        0.0000 
     13 C26        22.2820   19.7040   -0.4220 C.3       1 D941        0.0000 
     14 C27        22.3280   20.5830    0.8250 C.3       1 D941        0.0000 
     15 N7         23.6150   20.3230    1.5740 N.3       1 D941        0.0000 
     16 C30        23.6940   21.1880    2.8030 C.3       1 D941        0.0000 
     17 C28        23.8600   18.8530    1.8580 C.3       1 D941        0.0000 
     18 C29        23.7000   17.9910    0.5990 C.3       1 D941        0.0000 
     19 C25        23.1790   16.2950   -1.7100 C.3       1 D941        0.0000 
     20 N3         23.8300   16.8880   -5.0040 N.2       1 D941        0.0000 
     21 C6         24.4580   16.1760   -6.0040 C.2       1 D941        0.0000 
     22 C7         25.3340   16.8980   -6.8990 C.ar      1 D941        0.0000 
     23 C8         25.0300   18.1480   -7.4770 C.ar      1 D941        0.0000 
     24 C12        25.9680   18.8360   -8.2660 C.ar      1 D941        0.0000 
     25 C11        27.2750   18.2740   -8.4140 C.ar      1 D941        0.0000 
     26 C9         27.6120   17.0500   -7.7860 C.ar      1 D941        0.0000 
     27 C10        26.6420   16.4030   -7.0190 C.ar      1 D941        0.0000 
     28 N4         25.6130   20.0080   -8.8560 N.ar      1 D941        0.0000 
     29 C13        26.5490   20.6850   -9.6020 C.ar      1 D941        0.0000 
     30 C14        27.8420   20.1790   -9.7920 C.ar      1 D941        0.0000 
     31 C15        28.2070   18.9680   -9.1950 C.ar      1 D941        0.0000 
     32 C16        26.0940   21.9370  -10.2520 C.ar      1 D941        0.0000 
     33 C17        26.8600   23.1160  -10.2980 C.ar      1 D941        0.0000 
     34 C18        26.3910   24.2580  -10.9590 C.ar      1 D941        0.0000 
     35 C19        25.1430   24.2420  -11.5940 C.ar      1 D941        0.0000 
     36 C20        24.3670   23.0950  -11.5630 C.ar      1 D941        0.0000 
     37 C21        24.8490   21.9580  -10.9160 C.ar      1 D941        0.0000 
     38 H          25.5939   12.7062   -8.0693 H         1 D941        0.0000 
     39 H          25.7503   14.4901   -7.9331 H         1 D941        0.0000 
     40 H          22.3533   13.4288   -3.4533 H         1 D941        0.0000 
     41 H          22.9908   11.4373   -4.6447 H         1 D941        0.0000 
     42 H          21.4968   15.8467   -2.8530 H         1 D941        0.0000 
     43 H          21.2364   18.1223   -2.8997 H         1 D941        0.0000 
     44 H          22.9921   18.3310   -2.7827 H         1 D941        0.0000 
     45 H          21.2194   16.7474   -1.1264 H         1 D941        0.0000 
     46 H          21.6118   18.0674    0.7179 H         1 D941        0.0000 
     47 H          21.3263   19.8865   -0.9383 H         1 D941        0.0000 
     48 H          23.0850   20.0280   -1.1029 H         1 D941        0.0000 
     49 H          21.4804   20.3467    1.4590 H         1 D941        0.0000 
     50 H          22.2802   21.6251    0.5284 H         1 D941        0.0000 
     51 H          23.1526   18.5047    2.6165 H         1 D941        0.0000 
     52 H          24.8728   18.7206    2.2501 H         1 D941        0.0000 
     53 H          24.5535   18.1879   -0.0631 H         1 D941        0.0000 
     54 H          23.7478   16.9353    0.8969 H         1 D941        0.0000 
     55 H          24.0379   16.7701   -1.8478 H         1 D941        0.0000 
     56 H          23.0530   15.4111   -1.2796 H         1 D941        0.0000 
     57 H          24.0995   18.5643   -7.3162 H         1 D941        0.0000 
     58 H          28.5407   16.6600   -7.8971 H         1 D941        0.0000 
     59 H          26.8929   15.5261   -6.5192 H         1 D941        0.0000 
     60 H          28.5150   20.6941  -10.3651 H         1 D941        0.0000 
     61 H          29.1482   18.5914   -9.3277 H         1 D941        0.0000 
     62 H          27.7824   23.1369   -9.8362 H         1 D941        0.0000 
     63 H          26.9639   25.1096  -10.9781 H         1 D941        0.0000 
     64 H          24.8096   25.0829  -12.0801 H         1 D941        0.0000 
     65 H          23.4453   23.0782  -12.0109 H         1 D941        0.0000 
     66 H          24.2749   21.0894  -10.9188 H         1 D941        0.0000 
     67 H          24.5398   21.0321    3.3132 H         1 D941        0.0000 
     68 H          23.6646   22.1612    2.5747 H         1 D941        0.0000 
     69 H          22.9361   21.0112    3.4310 H         1 D941        0.0000 
@<TRIPOS>BOND
     1    2    1 1    
     2   38    1 1    
     3   39    1 1    
     4    3    2 1    
     5    7    2 2    
     6    4    3 1    
     7   21    3 2    
     8    5    4 1    
     9    8    4 1    
    10    6    5 2    
    11   40    5 1    
    12    7    6 1    
    13   41    6 1    
    14    9    8 1    
    15   20    8 2    
    16   10    9 1    
    17   19    9 1    
    18   42    9 1    
    19   11   10 1    
    20   43   10 1    
    21   44   10 1    
    22   12   11 1    
    23   19   11 1    
    24   45   11 1    
    25   13   12 1    
    26   18   12 1    
    27   46   12 1    
    28   14   13 1    
    29   47   13 1    
    30   48   13 1    
    31   15   14 1    
    32   49   14 1    
    33   50   14 1    
    34   16   15 1    
    35   17   15 1    
    36   67   16 1    
    37   68   16 1    
    38   69   16 1    
    39   18   17 1    
    40   51   17 1    
    41   52   17 1    
    42   53   18 1    
    43   54   18 1    
    44   55   19 1    
    45   56   19 1    
    46   21   20 1    
    47   22   21 1    
    48   23   22 ar   
    49   27   22 ar   
    50   24   23 ar   
    51   57   23 1    
    52   25   24 ar   
    53   28   24 ar   
    54   26   25 ar   
    55   31   25 ar   
    56   27   26 ar   
    57   58   26 1    
    58   59   27 1    
    59   29   28 ar   
    60   30   29 ar   
    61   32   29 1    
    62   31   30 ar   
    63   60   30 1    
    64   61   31 1    
    65   33   32 ar   
    66   37   32 ar   
    67   34   33 ar   
    68   62   33 1    
    69   35   34 ar   
    70   63   34 1    
    71   36   35 ar   
    72   64   35 1    
    73   37   36 ar   
    74   65   36 1    
    75   66   37 1    
@<TRIPOS>SUBSTRUCTURE
     1 D941        1 GROUP   
@<TRIPOS>SET

