#    Name: 2d2i_NAP_5_INTS_M
#    Modification time : Tue Mar 25 01:35:24 2014

@<TRIPOS>MOLECULE
2d2i_NAP_5_INTS_M
   73     0     9     0     0
SMALL
NO_CHARGES


@<TRIPOS>ATOM
      1 N         118.2800   95.8805   79.0170 N.am      2 SEC2        0.0000 
      2 N         119.5080   95.6140   78.3060 N.am      8 SEL2        0.0000 
      3 N         117.0520   96.1470   79.7280 N.am      5 SEP2        0.0000 
      4 CA        121.4500   99.4180   82.6100 C.3       3 GLC5        0.0000 
      5 CA        121.6080   98.4320   80.9660 C.3       9 GLL5        0.0000 
      6 CA        121.2920  100.4040   84.2540 C.3       6 GLP5        0.0000 
      7 CA        119.9825   98.7000   79.9135 C.3       3 GLC5        0.0000 
      8 CA        121.7310   99.1870   79.6110 C.3       9 GLL5        0.0000 
      9 CA        118.2340   98.2130   80.2160 C.3       6 GLP5        0.0000 
     10 CA        122.3210  100.2335   82.6660 C.3       3 GLC5        0.0000 
     11 CA        123.3500  100.0630   81.0780 C.3       9 GLL5        0.0000 
     12 CA        125.7850   99.4095   83.7475 C.3       3 GLC5        0.0000 
     13 CA        126.5670  100.7260   82.5900 C.3       9 GLL5        0.0000 
     14 CA        125.0030   98.0930   84.9050 C.3       6 GLP5        0.0000 
     15 CA        128.4815  102.7140   82.3860 C.3       3 GLC5        0.0000 
     16 CA        127.3100  101.4790   83.5190 C.3       9 GLL5        0.0000 
     17 CA        129.6530  103.9490   81.2530 C.3       6 GLP5        0.0000 
     18 CA        125.8290  100.3600   84.5770 C.3       3 GLC5        0.0000 
     19 CA        124.3480   99.2410   85.6350 C.3       6 GLP5        0.0000 
     20 O         129.5820  102.4675   84.7215 O.2       1 ALC1        0.0000 
     21 O         128.6340  101.3850   83.7820 O.2       7 ALL1        0.0000 
     22 O         130.5300  103.5500   85.6610 O.2       4 ALP1        0.0000 
     23 CA        125.1525  103.0565   82.0620 C.3       3 GLC5        0.0000 
     24 CA        125.2350  102.6550   84.0630 C.3       9 GLL5        0.0000 
     25 CA        125.0700  103.4580   80.0610 C.3       6 GLP5        0.0000 
     26 CA        124.7915  100.9480   84.8490 C.3       3 GLC5        0.0000 
     27 CA        123.2420  100.6870   83.3525 C.3       3 GLC5        0.0000 
     28 CA        125.1920  100.9700   82.4510 C.3       9 GLL5        0.0000 
     29 CA        124.7700  100.1055   84.0430 C.3       3 GLC5        0.0000 
     30 N         117.5465   94.3075   81.3940 N.am      2 SEC2        0.0000 
     31 N         118.9140   94.1050   80.7820 N.am      8 SEL2        0.0000 
     32 N         116.1790   94.5100   82.0060 N.am      5 SEP2        0.0000 
     33 CA        118.9730   91.1180   83.7705 C.3       3 GLC5        0.0000 
     34 CA        120.8320   90.0510   84.1250 C.3       9 GLL5        0.0000 
     35 CA        117.1140   92.1850   83.4160 C.3       6 GLP5        0.0000 
     36 CA        118.1465   90.8165   82.8585 C.3       3 GLC5        0.0000 
     37 CA        119.1790   89.4480   82.3010 C.3       9 GLL5        0.0000 
     38 N         115.8945   87.1470   79.3975 N.am      2 SEC2        0.0000 
     39 N         116.5860   88.1790   80.1830 N.am      8 SEL2        0.0000 
     40 N         115.2030   86.1150   78.6120 N.am      5 SEP2        0.0000 
     41 CA        115.8770   87.5400   84.9815 C.3       3 GLC5        0.0000 
     42 CA        117.9670   87.6780   84.1930 C.3       9 GLL5        0.0000 
     43 CA        113.7870   87.4020   85.7700 C.3       6 GLP5        0.0000 
     44 CA        118.1055   90.3105   84.0070 C.3       3 GLC5        0.0000 
     45 CA        119.0970   88.4360   84.5980 C.3       9 GLL5        0.0000 
     46 N         126.9390  101.6210   77.9945 N.am      2 SEC2        0.0000 
     47 N         125.8160  100.3440   77.8880 N.am      8 SEL2        0.0000 
     48 N         128.0620  102.8980   78.1010 N.am      5 SEP2        0.0000 
     49 N         123.7820  102.7850   77.5520 N.am      2 SEC2        0.0000 
     50 N         124.2880  101.9390   76.6740 N.am      8 SEL2        0.0000 
     51 N         123.2760  103.6310   78.4300 N.am      5 SEP2        0.0000 
     52 CA        120.0012   97.9400   80.5793 C.3       3 GLC5        0.0000 
     53 CA        122.8657   97.3725   82.6947 C.3       3 GLC5        0.0000 
     54 CA        123.9630   97.0780   84.4470 C.3       6 GLP5        0.0000 
     55 CA        124.1598  101.6575   80.1977 C.3       3 GLC5        0.0000 
     56 CA        125.4748  102.1530   81.2908 C.3       3 GLC5        0.0000 
     57 CA        127.6573   99.3937   83.9158 C.3       3 GLC5        0.0000 
     58 CA        128.3760   97.6850   84.7770 C.3       6 GLP5        0.0000 
     59 CA        119.1437   92.5305   83.4405 C.3       3 GLC5        0.0000 
     60 CA        120.9420   93.3910   82.9500 C.3       9 GLL5        0.0000 
     61 CA        121.0952   94.4265   85.0190 C.3       3 GLC5        0.0000 
     62 CA        121.0170   95.9770   86.5730 C.3       6 GLP5        0.0000 
     63 CA        123.7775   92.7840   84.0280 C.3       3 GLC5        0.0000 
     64 CA        121.4050   92.3610   83.9800 C.3       9 GLL5        0.0000 
     65 CA        125.5460   93.6630   84.2760 C.3       6 GLP5        0.0000 
     66 CA        122.3715   89.9267   85.4785 C.3       3 GLC5        0.0000 
     67 CA        122.6130   91.4490   83.5800 C.3       9 GLL5        0.0000 
     68 CA        123.1840   89.4280   87.2030 C.3       6 GLP5        0.0000 
     69 CA        116.8911   89.6201   83.2731 C.3       3 GLC5        0.0000 
     70 CA        115.9210   91.2810   83.2500 C.3       6 GLP5        0.0000 
     71 CA        117.8186   86.1921   83.1356 C.3       3 GLC5        0.0000 
     72 CA        118.0790   88.6980   81.9280 C.3       9 GLL5        0.0000 
     73 CA        117.7760   84.4250   82.9750 C.3       6 GLP5        0.0000 
@<TRIPOS>BOND
@<TRIPOS>SUBSTRUCTURE
     1 ALC1       20 GROUP        1 X    ALC  0     ROOT ALC X 1
     2 SEC2        1 GROUP        1 X    SEC  0     **** SEC X 2
     3 GLC5        4 GROUP        1 X    GLC  0     **** GLC X 6
     4 ALP1       22 GROUP        1 Y    ALP  0     ROOT ALP Y 8
     5 SEP2        3 GROUP        1 Y    SEP  0     **** SEP Y 9
     6 GLP5        6 GROUP        1 Y    GLP  0     **** GLP Y 13
     7 ALL1       21 GROUP        1 Z    ALL  0     ROOT ALL Z 15
     8 SEL2        2 GROUP        1 Z    SEL  0     **** SEL Z 16
     9 GLL5        5 GROUP        1 Z    GLL  0     **** GLL Z 20
@<TRIPOS>SET

