#    Name: 2d2i_NAP_5_ligand
#    Modification time : Tue Mar 25 01:35:24 2014

@<TRIPOS>MOLECULE
2d2i_NAP_5_ligand
   72    76     1     0     0
SMALL
NO_CHARGES


@<TRIPOS>ATOM
      1 PA        120.9020   95.5430   78.8670 P.3       1 NAP5341     0.0000 
      2 O1A       122.0970   95.8030   78.1820 O.co2     1 NAP5341     0.0000 
      3 O2A       119.5080   95.6140   78.3060 O.co2     1 NAP5341     0.0000 
      4 O5B       120.7790   96.4420   80.1710 O.3       1 NAP5341     0.0000 
      5 C5B       121.9290   96.9020   80.9190 C.3       1 NAP5341     0.0000 
      6 C4B       121.6080   98.4320   80.9660 C.3       1 NAP5341     0.0000 
      7 O4B       122.6850   99.0530   81.7720 O.3       1 NAP5341     0.0000 
      8 C3B       121.7310   99.1870   79.6110 C.3       1 NAP5341     0.0000 
      9 O3B       120.8120  100.2690   79.6980 O.3       1 NAP5341     0.0000 
     10 C2B       123.1490   99.6510   79.5910 C.3       1 NAP5341     0.0000 
     11 O2B       123.3800  100.7220   78.6870 O.3       1 NAP5341     0.0000 
     12 C1B       123.3500  100.0630   81.0780 C.3       1 NAP5341     0.0000 
     13 N9A       124.7480  100.0960   81.4940 N.pl3     1 NAP5341     0.0000 
     14 C8A       125.8510   99.3610   81.1030 C.2       1 NAP5341     0.0000 
     15 N7A       126.9720   99.6970   81.7330 N.2       1 NAP5341     0.0000 
     16 C5A       126.5670  100.7260   82.5900 C.ar      1 NAP5341     0.0000 
     17 C6A       127.3100  101.4790   83.5190 C.ar      1 NAP5341     0.0000 
     18 N6A       128.6340  101.3850   83.7820 N.pl3     1 NAP5341     0.0000 
     19 N1A       126.6140  102.4490   84.2430 N.ar      1 NAP5341     0.0000 
     20 C2A       125.2350  102.6550   84.0630 C.ar      1 NAP5341     0.0000 
     21 N3A       124.4800  101.9330   83.1650 N.ar      1 NAP5341     0.0000 
     22 C4A       125.1920  100.9700   82.4510 C.ar      1 NAP5341     0.0000 
     23 O3        121.0070   94.0930   79.4820 O.3       1 NAP5341     0.0000 
     24 PN        120.0600   93.2180   80.3990 P.3       1 NAP5341     0.0000 
     25 O1N       119.7160   91.9580   79.7180 O.co2     1 NAP5341     0.0000 
     26 O2N       118.9140   94.1050   80.7820 O.co2     1 NAP5341     0.0000 
     27 O5D       121.0720   92.8240   81.5930 O.3       1 NAP5341     0.0000 
     28 C5D       120.9420   93.3910   82.9500 C.3       1 NAP5341     0.0000 
     29 C4D       121.4050   92.3610   83.9800 C.3       1 NAP5341     0.0000 
     30 O4D       120.3360   91.4270   84.2930 O.3       1 NAP5341     0.0000 
     31 C3D       122.6130   91.4490   83.5800 C.3       1 NAP5341     0.0000 
     32 O3D       123.4950   91.2820   84.7060 O.3       1 NAP5341     0.0000 
     33 C2D       121.9590   90.1510   83.1860 C.3       1 NAP5341     0.0000 
     34 O2D       122.8000   89.0210   83.2800 O.3       1 NAP5341     0.0000 
     35 C1D       120.8320   90.0510   84.1250 C.3       1 NAP5341     0.0000 
     36 N1N       119.6750   89.3100   83.6260 N.pl3     1 NAP5341     0.0000 
     37 C2N       119.1790   89.4480   82.3010 C.ar      1 NAP5341     0.0000 
     38 C3N       118.0790   88.6980   81.9280 C.ar      1 NAP5341     0.0000 
     39 C7N       117.5450   88.8520   80.4830 C.2       1 NAP5341     0.0000 
     40 O7N       116.5860   88.1790   80.1830 O.2       1 NAP5341     0.0000 
     41 N7N       118.1130   89.6690   79.6310 N.am      1 NAP5341     0.0000 
     42 C4N       117.4320   87.7830   82.8710 C.ar      1 NAP5341     0.0000 
     43 C5N       117.9670   87.6780   84.1930 C.ar      1 NAP5341     0.0000 
     44 C6N       119.0970   88.4360   84.5980 C.ar      1 NAP5341     0.0000 
     45 P2B       124.3740  100.6050   77.3780 P.3       1 NAP5341     0.0000 
     46 O1X       125.8160  100.3440   77.8880 O.co2     1 NAP5341     0.0000 
     47 O2X       123.7720   99.4480   76.6540 O.co2     1 NAP5341     0.0000 
     48 O3X       124.2880  101.9390   76.6740 O.co2     1 NAP5341     0.0000 
     49 H         122.8298   96.7785   80.3931 H         1 NAP5341     0.0000 
     50 H         121.9387   96.5450   81.9068 H         1 NAP5341     0.0000 
     51 H         120.6836   98.6126   81.4018 H         1 NAP5341     0.0000 
     52 H         121.5371   98.5091   78.8518 H         1 NAP5341     0.0000 
     53 H         123.7784   98.7976   79.4305 H         1 NAP5341     0.0000 
     54 H         122.8679  101.0048   81.2118 H         1 NAP5341     0.0000 
     55 H         125.7835   98.6473   80.4072 H         1 NAP5341     0.0000 
     56 H         124.7709  103.3946   84.6443 H         1 NAP5341     0.0000 
     57 H         119.9052   93.6495   83.1604 H         1 NAP5341     0.0000 
     58 H         121.5561   94.2844   83.0533 H         1 NAP5341     0.0000 
     59 H         121.6928   92.8725   84.9025 H         1 NAP5341     0.0000 
     60 H         123.0713   91.8863   82.7377 H         1 NAP5341     0.0000 
     61 H         121.5469   90.2851   82.1921 H         1 NAP5341     0.0000 
     62 H         121.1455   89.6885   85.0707 H         1 NAP5341     0.0000 
     63 H         119.6338   90.0862   81.6580 H         1 NAP5341     0.0000 
     64 H         117.6914   89.7237   78.7259 H         1 NAP5341     0.0000 
     65 H         118.9162   90.1631   79.9638 H         1 NAP5341     0.0000 
     66 H         116.6375   87.2524   82.5826 H         1 NAP5341     0.0000 
     67 H         117.5203   87.0382   84.8617 H         1 NAP5341     0.0000 
     68 H         119.4735   88.3651   85.5172 H         1 NAP5341     0.0000 
     69 H         121.1584  100.9548   79.0579 H         1 NAP5341     0.0000 
     70 H         128.8362  102.1651   84.3740 H         1 NAP5341     0.0000 
     71 H         124.3928   91.5750   84.3771 H         1 NAP5341     0.0000 
     72 H         123.5076   89.2792   83.9378 H         1 NAP5341     0.0000 
@<TRIPOS>BOND
     1    2    1 ar   
     2    3    1 ar   
     3    4    1 1    
     4   23    1 1    
     5    5    4 1    
     6    6    5 1    
     7   49    5 1    
     8   50    5 1    
     9    7    6 1    
    10    8    6 1    
    11   51    6 1    
    12   12    7 1    
    13    9    8 1    
    14   10    8 1    
    15   52    8 1    
    16   69    9 1    
    17   11   10 1    
    18   12   10 1    
    19   53   10 1    
    20   45   11 1    
    21   13   12 1    
    22   54   12 1    
    23   14   13 1    
    24   22   13 1    
    25   15   14 2    
    26   55   14 1    
    27   16   15 1    
    28   17   16 ar   
    29   22   16 ar   
    30   18   17 1    
    31   19   17 ar   
    32   70   18 1    
    33   20   19 ar   
    34   21   20 ar   
    35   56   20 1    
    36   22   21 ar   
    37   24   23 1    
    38   25   24 ar   
    39   26   24 ar   
    40   27   24 1    
    41   28   27 1    
    42   29   28 1    
    43   57   28 1    
    44   58   28 1    
    45   30   29 1    
    46   31   29 1    
    47   59   29 1    
    48   35   30 1    
    49   32   31 1    
    50   33   31 1    
    51   60   31 1    
    52   71   32 1    
    53   34   33 1    
    54   35   33 1    
    55   61   33 1    
    56   72   34 1    
    57   36   35 1    
    58   62   35 1    
    59   37   36 ar   
    60   44   36 ar   
    61   38   37 ar   
    62   63   37 1    
    63   39   38 1    
    64   42   38 ar   
    65   40   39 2    
    66   41   39 am   
    67   64   41 1    
    68   65   41 1    
    69   43   42 ar   
    70   66   42 1    
    71   44   43 ar   
    72   67   43 1    
    73   68   44 1    
    74   46   45 ar   
    75   47   45 ar   
    76   48   45 ar   
@<TRIPOS>SUBSTRUCTURE
     1 NAP5341     1 GROUP   
@<TRIPOS>SET

