#    Name: 2fr0_NDP_1_INTS_M
#    Modification time : Tue Mar 25 13:03:52 2014

@<TRIPOS>MOLECULE
2fr0_NDP_1_INTS_M
   78     0     9     0     0
SMALL
NO_CHARGES


@<TRIPOS>ATOM
      1 CA        -20.7890   -9.6870  -30.6990 C.3       3 GLC5        0.0000 
      2 CA        -21.9400   -9.5600  -29.1830 C.3       9 GLL5        0.0000 
      3 CA        -19.6380   -9.8140  -32.2150 C.3       6 GLP5        0.0000 
      4 CA        -21.9075  -15.7365  -27.0055 C.3       3 GLC5        0.0000 
      5 CA        -21.1580  -13.7510  -26.6120 C.3       9 GLL5        0.0000 
      6 CA        -22.6570  -17.7220  -27.3990 C.3       6 GLP5        0.0000 
      7 CA        -19.5955  -14.5890  -26.8600 C.3       3 GLC5        0.0000 
      8 CA        -18.0330  -15.4270  -27.1080 C.3       6 GLP5        0.0000 
      9 O         -21.4660  -15.7710  -25.1115 O.2       1 ALC1        0.0000 
     10 O         -21.1160  -14.3700  -25.4420 O.2       7 ALL1        0.0000 
     11 O         -21.8160  -17.1720  -24.7810 O.2       4 ALP1        0.0000 
     12 N         -20.6170  -15.9165  -27.6555 N.am      2 SEC2        0.0000 
     13 N         -21.0030  -14.4640  -27.7880 N.am      8 SEL2        0.0000 
     14 N         -20.2310  -17.3690  -27.5230 N.am      5 SEP2        0.0000 
     15 CA        -22.1500  -13.5125  -30.3580 C.3       3 GLC5        0.0000 
     16 CA        -21.0240  -13.8720  -28.9990 C.3       9 GLL5        0.0000 
     17 CA        -23.2760  -13.1530  -31.7170 C.3       6 GLP5        0.0000 
     18 CA        -22.8555  -14.1000  -27.8775 C.3       3 GLC5        0.0000 
     19 CA        -24.6870  -14.3280  -26.7560 C.3       6 GLP5        0.0000 
     20 CA        -21.8405  -15.7970  -28.1990 C.3       3 GLC5        0.0000 
     21 CA        -19.5970  -15.1045  -29.2155 C.3       3 GLC5        0.0000 
     22 CA        -18.1700  -16.3370  -29.4320 C.3       6 GLP5        0.0000 
     23 CA        -19.3725  -12.7620  -28.8375 C.3       3 GLC5        0.0000 
     24 CA        -17.7210  -11.6520  -28.6760 C.3       6 GLP5        0.0000 
     25 CA        -22.3270  -12.4795  -29.9045 C.3       3 GLC5        0.0000 
     26 CA        -21.3780  -11.8060  -28.0920 C.3       9 GLL5        0.0000 
     27 N         -18.4340   -2.7270  -32.3430 N.am      2 SEC2        0.0000 
     28 N         -18.6150   -3.1240  -30.9680 N.am      8 SEL2        0.0000 
     29 N         -18.2530   -2.3300  -33.7180 N.am      5 SEP2        0.0000 
     30 CA        -15.7990   -3.5100  -31.6155 C.3       3 GLC5        0.0000 
     31 CA        -15.7090   -4.2780  -30.1540 C.3       9 GLL5        0.0000 
     32 CA        -15.8890   -2.7420  -33.0770 C.3       6 GLP5        0.0000 
     33 CA        -15.5530   -6.0245  -31.2470 C.3       3 GLC5        0.0000 
     34 CA        -15.3970   -7.7710  -32.3400 C.3       6 GLP5        0.0000 
     35 CA        -15.1740   -2.6795  -30.8320 C.3       3 GLC5        0.0000 
     36 CA        -14.3960   -3.8230  -29.5110 C.3       9 GLL5        0.0000 
     37 CA        -15.9520   -1.5360  -32.1530 C.3       6 GLP5        0.0000 
     38 N         -13.2785   -6.2565  -26.6015 N.am      2 SEC2        0.0000 
     39 N         -14.2450   -5.3010  -27.5070 N.am      8 SEL2        0.0000 
     40 N         -12.3120   -7.2120  -25.6960 N.am      5 SEP2        0.0000 
     41 O         -10.4965   -3.8755  -27.8615 O.2       1 ALC1        0.0000 
     42 O         -11.7560   -4.1520  -28.1540 O.2       7 ALL1        0.0000 
     43 O          -9.2370   -3.5990  -27.5690 O.2       4 ALP1        0.0000 
     44 CA        -14.4865   -1.7870  -30.4675 C.3       3 GLC5        0.0000 
     45 CA        -13.0210   -2.0380  -28.7820 C.3       9 GLL5        0.0000 
     46 CA        -11.2175   -1.3620  -29.5860 C.3       3 GLC5        0.0000 
     47 CA         -9.4140   -0.6860  -30.3900 C.3       6 GLP5        0.0000 
     48 CA        -13.3930    3.8075  -27.0450 C.3       3 GLC5        0.0000 
     49 CA        -13.6360    1.8170  -26.6290 C.3       9 GLL5        0.0000 
     50 CA        -13.1500    5.7980  -27.4610 C.3       6 GLP5        0.0000 
     51 CA        -10.8670   -0.4365  -28.7355 C.3       3 GLC5        0.0000 
     52 CA        -12.3200   -0.1870  -27.0810 C.3       9 GLL5        0.0000 
     53 N         -27.7480   -9.5690  -29.7085 N.am      2 SEC2        0.0000 
     54 N         -26.6730   -8.7260  -29.6750 N.am      8 SEL2        0.0000 
     55 N         -28.8230  -10.4120  -29.7420 N.am      5 SEP2        0.0000 
     56 N         -25.4035   -9.6285  -32.8240 N.am      2 SEC2        0.0000 
     57 N         -26.2120  -10.2050  -31.6470 N.am      8 SEL2        0.0000 
     58 N         -24.5950   -9.0520  -34.0010 N.am      5 SEP2        0.0000 
     59 N         -26.7825  -11.5520  -30.9380 N.am      2 SEC2        0.0000 
     60 N         -27.3530  -12.8990  -30.2290 N.am      5 SEP2        0.0000 
     61 N         -26.8370  -11.7010  -32.2970 N.am      2 SEC2        0.0000 
     62 N         -27.4620  -13.1970  -32.9470 N.am      5 SEP2        0.0000 
     63 N         -26.5800  -12.0085  -29.7645 N.am      2 SEC2        0.0000 
     64 N         -25.8070  -11.1180  -29.3000 N.am      8 SEL2        0.0000 
     65 CA        -21.9300   -5.9305  -31.3622 C.3       3 GLC5        0.0000 
     66 CA        -22.2560   -7.0850  -29.1600 C.3       9 GLL5        0.0000 
     67 CA        -22.1380   -5.2630  -33.1600 C.3       6 GLP5        0.0000 
     68 CA        -23.2350  -10.5940  -30.6280 C.3       3 GLC5        0.0000 
     69 CA        -23.7850  -11.7400  -32.0580 C.3       6 GLP5        0.0000 
     70 CA        -19.5565  -11.8610  -28.0557 C.3       3 GLC5        0.0000 
     71 CA        -21.4060  -12.3340  -26.7790 C.3       9 GLL5        0.0000 
     72 CA        -19.9165  -12.6623  -25.4168 C.3       3 GLC5        0.0000 
     73 CA        -18.5510  -12.2820  -24.1380 C.3       6 GLP5        0.0000 
     74 CA        -23.0085  -13.3761  -27.0749 C.3       3 GLC5        0.0000 
     75 CA        -13.6017   -4.8997  -31.0887 C.3       3 GLC5        0.0000 
     76 CA        -12.1510   -5.7490  -32.3450 C.3       6 GLP5        0.0000 
     77 CA        -10.9860   -0.7208  -25.7347 C.3       3 GLC5        0.0000 
     78 CA         -9.5870   -1.8740  -24.6920 C.3       6 GLP5        0.0000 
@<TRIPOS>BOND
@<TRIPOS>SUBSTRUCTURE
     1 ALC1        9 GROUP        1 X    ALC  0     ROOT ALC X 1
     2 SEC2       12 GROUP        1 X    SEC  0     **** SEC X 2
     3 GLC5        1 GROUP        1 X    GLC  0     **** GLC X 6
     4 ALP1       11 GROUP        1 Y    ALP  0     ROOT ALP Y 8
     5 SEP2       14 GROUP        1 Y    SEP  0     **** SEP Y 9
     6 GLP5        3 GROUP        1 Y    GLP  0     **** GLP Y 13
     7 ALL1       10 GROUP        1 Z    ALL  0     ROOT ALL Z 15
     8 SEL2       13 GROUP        1 Z    SEL  0     **** SEL Z 16
     9 GLL5        2 GROUP        1 Z    GLL  0     **** GLL Z 20
@<TRIPOS>SET

