#    Name: 2fr0_NDP_1_ligand
#    Modification time : Tue Mar 25 13:03:52 2014

@<TRIPOS>MOLECULE
2fr0_NDP_1_ligand
   74    78     1     0     0
SMALL
NO_CHARGES


@<TRIPOS>ATOM
      1 PA        -20.7780   -3.7130  -28.7160 P.3       1 NDP201      0.0000 
      2 O1A       -21.1690   -3.9380  -27.3070 O.co2     1 NDP201      0.0000 
      3 O2A       -21.4300   -2.5760  -29.5020 O.co2     1 NDP201      0.0000 
      4 O5B       -21.1540   -5.1940  -28.9720 O.3       1 NDP201      0.0000 
      5 C5B       -21.1880   -6.1110  -29.9690 C.3       1 NDP201      0.0000 
      6 C4B       -22.2560   -7.0850  -29.1600 C.3       1 NDP201      0.0000 
      7 O4B       -21.3470   -8.2760  -29.4500 O.3       1 NDP201      0.0000 
      8 C3B       -23.4380   -7.9410  -28.5260 C.3       1 NDP201      0.0000 
      9 O3B       -24.7580   -7.5190  -28.5460 O.3       1 NDP201      0.0000 
     10 C2B       -23.4300   -9.3360  -29.2130 C.3       1 NDP201      0.0000 
     11 O2B       -24.2320   -9.4470  -30.3340 O.3       1 NDP201      0.0000 
     12 C1B       -21.9400   -9.5600  -29.1830 C.3       1 NDP201      0.0000 
     13 N9A       -21.6960  -10.4880  -28.0070 N.pl3     1 NDP201      0.0000 
     14 C8A       -21.7870  -10.2450  -26.6400 C.2       1 NDP201      0.0000 
     15 N7A       -21.6130  -11.3480  -25.8750 N.2       1 NDP201      0.0000 
     16 C5A       -21.4060  -12.3340  -26.7790 C.ar      1 NDP201      0.0000 
     17 C6A       -21.1580  -13.7510  -26.6120 C.ar      1 NDP201      0.0000 
     18 N6A       -21.1160  -14.3700  -25.4420 N.pl3     1 NDP201      0.0000 
     19 N1A       -21.0030  -14.4640  -27.7880 N.ar      1 NDP201      0.0000 
     20 C2A       -21.0240  -13.8720  -28.9990 C.ar      1 NDP201      0.0000 
     21 N3A       -21.1280  -12.5230  -29.2450 N.ar      1 NDP201      0.0000 
     22 C4A       -21.3780  -11.8060  -28.0920 C.ar      1 NDP201      0.0000 
     23 O3        -19.1750   -3.3010  -28.5670 O.3       1 NDP201      0.0000 
     24 PN        -17.9990   -2.9580  -29.5990 P.3       1 NDP201      0.0000 
     25 O1N       -17.4170   -1.6110  -29.2710 O.co2     1 NDP201      0.0000 
     26 O2N       -18.6150   -3.1240  -30.9680 O.co2     1 NDP201      0.0000 
     27 O5D       -16.9080   -4.1190  -29.3610 O.3       1 NDP201      0.0000 
     28 C5D       -15.7090   -4.2780  -30.1540 C.3       1 NDP201      0.0000 
     29 C4D       -14.3960   -3.8230  -29.5110 C.3       1 NDP201      0.0000 
     30 O4D       -14.0280   -2.4130  -29.7470 O.3       1 NDP201      0.0000 
     31 C3D       -14.1800   -3.9820  -27.9890 C.3       1 NDP201      0.0000 
     32 O3D       -14.2450   -5.3010  -27.5070 O.3       1 NDP201      0.0000 
     33 C2D       -12.8500   -3.2730  -27.8310 C.3       1 NDP201      0.0000 
     34 O2D       -11.7560   -4.1520  -28.1540 O.3       1 NDP201      0.0000 
     35 C1D       -13.0210   -2.0380  -28.7820 C.3       1 NDP201      0.0000 
     36 N1N       -13.2830   -0.6440  -28.0620 N.pl3     1 NDP201      0.0000 
     37 C2N       -14.4960    0.0630  -28.1600 C.2       1 NDP201      0.0000 
     38 C3N       -14.6780    1.3140  -27.5050 C.2       1 NDP201      0.0000 
     39 C7N       -15.9370    2.1640  -27.6410 C.2       1 NDP201      0.0000 
     40 O7N       -16.0570    3.1890  -26.9670 O.2       1 NDP201      0.0000 
     41 N7N       -16.8570    1.6900  -28.4940 N.am      1 NDP201      0.0000 
     42 C4N       -13.6360    1.8170  -26.6290 C.3       1 NDP201      0.0000 
     43 C5N       -12.4500    1.0520  -26.4740 C.2       1 NDP201      0.0000 
     44 C6N       -12.3200   -0.1870  -27.0810 C.2       1 NDP201      0.0000 
     45 P2B       -25.8160   -9.8820  -30.2630 P.3       1 NDP201      0.0000 
     46 O1X       -26.6730   -8.7260  -29.6750 O.co2     1 NDP201      0.0000 
     47 O2X       -26.2120  -10.2050  -31.6470 O.co2     1 NDP201      0.0000 
     48 O3X       -25.8070  -11.1180  -29.3000 O.co2     1 NDP201      0.0000 
     49 H         -20.3442   -6.7031  -30.0815 H         1 NDP201      0.0000 
     50 H         -21.6986   -5.8394  -30.8296 H         1 NDP201      0.0000 
     51 H         -21.5094   -7.0152  -27.9810 H         1 NDP201      0.0000 
     52 H         -23.1037   -8.1822  -27.4783 H         1 NDP201      0.0000 
     53 H         -23.8124   -9.9911  -28.3443 H         1 NDP201      0.0000 
     54 H         -21.8021  -10.2176  -30.1283 H         1 NDP201      0.0000 
     55 H         -21.9641   -9.3378  -26.2780 H         1 NDP201      0.0000 
     56 H         -21.3241  -13.8099  -24.6402 H         1 NDP201      0.0000 
     57 H         -20.8800  -15.3415  -25.4663 H         1 NDP201      0.0000 
     58 H         -20.9526  -14.5118  -29.8689 H         1 NDP201      0.0000 
     59 H         -15.8076   -3.7302  -31.1296 H         1 NDP201      0.0000 
     60 H         -15.5762   -5.3521  -30.4545 H         1 NDP201      0.0000 
     61 H         -13.5511   -4.4266  -29.9770 H         1 NDP201      0.0000 
     62 H         -14.9282   -3.3119  -27.5326 H         1 NDP201      0.0000 
     63 H         -12.8117   -2.8889  -26.8291 H         1 NDP201      0.0000 
     64 H         -12.0439   -1.9435  -29.3150 H         1 NDP201      0.0000 
     65 H         -15.2710   -0.3260  -28.7144 H         1 NDP201      0.0000 
     66 H         -16.6504    0.8086  -28.9188 H         1 NDP201      0.0000 
     67 H         -17.6672    2.2604  -28.6289 H         1 NDP201      0.0000 
     68 H         -14.0975    2.0153  -25.6020 H         1 NDP201      0.0000 
     69 H         -13.3647    2.8748  -26.9673 H         1 NDP201      0.0000 
     70 H         -11.6852    1.4356  -25.9004 H         1 NDP201      0.0000 
     71 H         -11.5375   -0.8116  -26.8500 H         1 NDP201      0.0000 
     72 H         -25.2453   -8.2185  -29.0687 H         1 NDP201      0.0000 
     73 H         -14.4103   -5.8644  -28.3165 H         1 NDP201      0.0000 
     74 H         -10.9796   -3.5460  -28.3267 H         1 NDP201      0.0000 
@<TRIPOS>BOND
     1    2    1 ar   
     2    3    1 ar   
     3    4    1 1    
     4   23    1 1    
     5    5    4 1    
     6    6    5 1    
     7   49    5 1    
     8   50    5 1    
     9    7    6 1    
    10    8    6 1    
    11   51    6 1    
    12   12    7 1    
    13    9    8 1    
    14   10    8 1    
    15   52    8 1    
    16   72    9 1    
    17   11   10 1    
    18   12   10 1    
    19   53   10 1    
    20   45   11 1    
    21   13   12 1    
    22   54   12 1    
    23   14   13 1    
    24   22   13 1    
    25   15   14 2    
    26   55   14 1    
    27   16   15 1    
    28   17   16 ar   
    29   22   16 ar   
    30   18   17 1    
    31   19   17 ar   
    32   56   18 1    
    33   57   18 1    
    34   20   19 ar   
    35   21   20 ar   
    36   58   20 1    
    37   22   21 ar   
    38   24   23 1    
    39   25   24 ar   
    40   26   24 ar   
    41   27   24 1    
    42   28   27 1    
    43   29   28 1    
    44   59   28 1    
    45   60   28 1    
    46   30   29 1    
    47   31   29 1    
    48   61   29 1    
    49   35   30 1    
    50   32   31 1    
    51   33   31 1    
    52   62   31 1    
    53   73   32 1    
    54   34   33 1    
    55   35   33 1    
    56   63   33 1    
    57   74   34 1    
    58   36   35 1    
    59   64   35 1    
    60   37   36 1    
    61   44   36 1    
    62   38   37 2    
    63   65   37 1    
    64   39   38 1    
    65   42   38 1    
    66   40   39 2    
    67   41   39 am   
    68   66   41 1    
    69   67   41 1    
    70   43   42 1    
    71   68   42 1    
    72   69   42 1    
    73   44   43 2    
    74   70   43 1    
    75   71   44 1    
    76   46   45 ar   
    77   47   45 ar   
    78   48   45 ar   
@<TRIPOS>SUBSTRUCTURE
     1 NDP201      1 GROUP   
@<TRIPOS>SET

