#    Name: 4d86_ADP_2_INTS_M
#    Modification time : Tue Mar 25 09:25:00 2014

@<TRIPOS>MOLECULE
4d86_ADP_2_INTS_M
   59     0     9     0     0
SMALL
NO_CHARGES


@<TRIPOS>ATOM
      1 N           6.6060   27.7000   10.2695 N.am      2 SEC2        0.0000 
      2 N           7.1650   28.9370   10.0050 N.am      8 SEL2        0.0000 
      3 N           6.0470   26.4630   10.5340 N.am      5 SEP2        0.0000 
      4 N           8.0285   28.3510    8.6890 N.am      2 SEC2        0.0000 
      5 N           8.8920   27.7650    7.3730 N.am      5 SEP2        0.0000 
      6 N           8.3675   32.2265   11.5760 N.am      2 SEC2        0.0000 
      7 N           8.0340   30.9920   11.3350 N.am      8 SEL2        0.0000 
      8 N           8.7010   33.4610   11.8170 N.am      5 SEP2        0.0000 
      9 N           8.5285   30.0545   12.2510 N.am      2 SEC2        0.0000 
     10 N           9.0230   29.1170   13.1670 N.am      5 SEP2        0.0000 
     11 N           2.0690   32.3745   10.5210 N.am      2 SEC2        0.0000 
     12 N           3.3130   31.6660   10.0330 N.am      8 SEL2        0.0000 
     13 N           0.8250   33.0830   11.0090 N.am      5 SEP2        0.0000 
     14 N           5.2135   28.7545    8.0215 N.am      2 SEC2        0.0000 
     15 N           4.4150   29.8190    8.6540 N.am      8 SEL2        0.0000 
     16 N           6.0120   27.6900    7.3890 N.am      5 SEP2        0.0000 
     17 CA          4.3955   31.0500   13.3610 C.3       3 GLC5        0.0000 
     18 CA          4.3530   29.2360   12.2860 C.3       9 GLL5        0.0000 
     19 CA          4.4380   32.8640   14.4360 C.3       6 GLP5        0.0000 
     20 CA          4.7655   27.8870   10.8150 C.3       3 GLC5        0.0000 
     21 CA          5.1780   26.5380    9.3440 C.3       6 GLP5        0.0000 
     22 CA          3.9930   26.8935   10.9420 C.3       3 GLC5        0.0000 
     23 CA          2.8080   27.2490   12.5400 C.3       9 GLL5        0.0000 
     24 O           4.3460   25.8010   13.6495 O.2       1 ALC1        0.0000 
     25 O           3.0520   26.0460   13.2890 O.2       7 ALL1        0.0000 
     26 O           5.6400   25.5560   14.0100 O.2       4 ALP1        0.0000 
     27 O           0.7115   25.4140   13.8645 O.2       1 ALC1        0.0000 
     28 O           0.5800   26.4240   12.7570 O.2       7 ALL1        0.0000 
     29 O           0.8430   24.4040   14.9720 O.2       4 ALP1        0.0000 
     30 CA         -2.9645   31.8415   17.3575 C.3       3 GLC5        0.0000 
     31 CA         -1.8260   31.6750   15.5990 C.3       9 GLL5        0.0000 
     32 CA         -4.1030   32.0080   19.1160 C.3       6 GLP5        0.0000 
     33 CA         -0.8245   33.1260   16.5845 C.3       3 GLC5        0.0000 
     34 CA          0.1770   34.5770   17.5700 C.3       6 GLP5        0.0000 
     35 CA         -2.4810   33.5225   14.5625 C.3       3 GLC5        0.0000 
     36 CA         -3.1360   35.3700   13.5260 C.3       6 GLP5        0.0000 
     37 O          -3.4360   33.6390   16.0725 O.2       1 ALC1        0.0000 
     38 O          -2.7990   32.5280   15.2680 O.2       7 ALL1        0.0000 
     39 O          -4.0730   34.7500   16.8770 O.2       4 ALP1        0.0000 
     40 O          -3.0740   33.4035   13.9575 O.2       1 ALC1        0.0000 
     41 O          -3.3490   34.2790   12.6470 O.2       4 ALP1        0.0000 
     42 N          -1.7155   32.3765   18.0620 N.am      2 SEC2        0.0000 
     43 N          -1.4390   31.5530   16.8730 N.am      8 SEL2        0.0000 
     44 N          -1.9920   33.2000   19.2510 N.am      5 SEP2        0.0000 
     45 CA         -2.2905   31.3570   18.1760 C.3       3 GLC5        0.0000 
     46 CA         -0.4780   30.7060   17.2360 C.3       9 GLL5        0.0000 
     47 CA         -0.0700   32.4015   18.1180 C.3       3 GLC5        0.0000 
     48 CA          0.3380   34.0970   19.0000 C.3       6 GLP5        0.0000 
     49 CA          0.7595   31.7655   16.2270 C.3       3 GLC5        0.0000 
     50 CA          1.9970   32.8250   15.2180 C.3       6 GLP5        0.0000 
     51 CA          1.6200   31.1590   17.6475 C.3       3 GLC5        0.0000 
     52 CA          3.7180   31.6120   18.0590 C.3       6 GLP5        0.0000 
     53 CA         -1.7180   29.0490   16.8230 C.3       3 GLC5        0.0000 
     54 CA         -2.9580   27.3920   16.4100 C.3       6 GLP5        0.0000 
     55 CA          0.5620   31.7294   15.1513 C.3       3 GLC5        0.0000 
     56 CA         -1.2100   30.8800   14.6410 C.3       9 GLL5        0.0000 
     57 CA         -2.3940   29.7869   14.8188 C.3       3 GLC5        0.0000 
     58 CA         -0.2280   29.9900   15.0490 C.3       9 GLL5        0.0000 
     59 CA         -3.9150   28.9400   14.5530 C.3       6 GLP5        0.0000 
@<TRIPOS>BOND
@<TRIPOS>SUBSTRUCTURE
     1 ALC1       24 GROUP        1 X    ALC  0     ROOT ALC X 1
     2 SEC2        1 GROUP        1 X    SEC  0     **** SEC X 2
     3 GLC5       17 GROUP        1 X    GLC  0     **** GLC X 6
     4 ALP1       26 GROUP        1 Y    ALP  0     ROOT ALP Y 8
     5 SEP2        3 GROUP        1 Y    SEP  0     **** SEP Y 9
     6 GLP5       19 GROUP        1 Y    GLP  0     **** GLP Y 13
     7 ALL1       25 GROUP        1 Z    ALL  0     ROOT ALL Z 15
     8 SEL2        2 GROUP        1 Z    SEL  0     **** SEL Z 16
     9 GLL5       18 GROUP        1 Z    GLL  0     **** GLL Z 20
@<TRIPOS>SET

