#    Name: 4d86_ADP_2_ligand
#    Modification time : Tue Mar 25 09:25:00 2014

@<TRIPOS>MOLECULE
4d86_ADP_2_ligand
   39    41     1     0     0
SMALL
NO_CHARGES


@<TRIPOS>ATOM
      1 PB          7.0790   30.4230   10.1650 P.3       1 ADP1202     0.0000 
      2 O1B         7.1650   28.9370   10.0050 O.co2     1 ADP1202     0.0000 
      3 O2B         7.6470   31.1060    8.8150 O.co2     1 ADP1202     0.0000 
      4 O3B         8.0340   30.9920   11.3350 O.co2     1 ADP1202     0.0000 
      5 PA          4.2370   30.5190    9.9580 P.3       1 ADP1202     0.0000 
      6 O1A         3.3130   31.6660   10.0330 O.co2     1 ADP1202     0.0000 
      7 O2A         4.4150   29.8190    8.6540 O.co2     1 ADP1202     0.0000 
      8 O3A         5.6580   31.0250   10.5380 O.3       1 ADP1202     0.0000 
      9 O5'         3.6820   29.4580   11.0390 O.3       1 ADP1202     0.0000 
     10 C5'         4.3530   29.2360   12.2860 C.3       1 ADP1202     0.0000 
     11 C4'         3.5080   28.4170   13.2480 C.3       1 ADP1202     0.0000 
     12 O4'         2.4380   29.2440   13.8310 O.3       1 ADP1202     0.0000 
     13 C3'         2.8080   27.2490   12.5400 C.3       1 ADP1202     0.0000 
     14 O3'         3.0520   26.0460   13.2890 O.3       1 ADP1202     0.0000 
     15 C2'         1.3260   27.6150   12.6120 C.3       1 ADP1202     0.0000 
     16 O2'         0.5800   26.4240   12.7570 O.3       1 ADP1202     0.0000 
     17 C1'         1.2700   28.3740   13.9260 C.3       1 ADP1202     0.0000 
     18 N9          0.1880   29.3540   13.9590 N.pl3     1 ADP1202     0.0000 
     19 C8         -0.4870   29.8230   12.9010 C.2       1 ADP1202     0.0000 
     20 N7         -1.3390   30.7590   13.3150 N.2       1 ADP1202     0.0000 
     21 C5         -1.2100   30.8800   14.6410 C.ar      1 ADP1202     0.0000 
     22 C6         -1.8260   31.6750   15.5990 C.ar      1 ADP1202     0.0000 
     23 N6         -2.7990   32.5280   15.2680 N.pl3     1 ADP1202     0.0000 
     24 N1         -1.4390   31.5530   16.8730 N.ar      1 ADP1202     0.0000 
     25 C2         -0.4780   30.7060   17.2360 C.ar      1 ADP1202     0.0000 
     26 N3          0.1310   29.9280   16.3430 N.ar      1 ADP1202     0.0000 
     27 C4         -0.2280   29.9900   15.0490 C.ar      1 ADP1202     0.0000 
     28 H           4.6008   30.1916   12.7834 H         1 ADP1202     0.0000 
     29 H           5.3091   28.7015   12.1370 H         1 ADP1202     0.0000 
     30 H           4.1244   28.0167   14.0266 H         1 ADP1202     0.0000 
     31 H           3.1156   27.2127   11.5502 H         1 ADP1202     0.0000 
     32 H           1.0744   28.2237   11.8357 H         1 ADP1202     0.0000 
     33 H           1.3188   27.7687   14.7313 H         1 ADP1202     0.0000 
     34 H          -0.3703   29.5251   11.9814 H         1 ADP1202     0.0000 
     35 H          -3.2064   33.0445   16.0211 H         1 ADP1202     0.0000 
     36 H          -3.0328   32.5735   14.2968 H         1 ADP1202     0.0000 
     37 H          -0.1930   30.6499   18.2517 H         1 ADP1202     0.0000 
     38 H           4.0399   26.0333   13.4435 H         1 ADP1202     0.0000 
     39 H           0.9343   25.9964   13.5886 H         1 ADP1202     0.0000 
@<TRIPOS>BOND
     1    2    1 ar   
     2    3    1 ar   
     3    4    1 ar   
     4    8    1 1    
     5    6    5 ar   
     6    7    5 ar   
     7    8    5 1    
     8    9    5 1    
     9   10    9 1    
    10   11   10 1    
    11   28   10 1    
    12   29   10 1    
    13   12   11 1    
    14   13   11 1    
    15   30   11 1    
    16   17   12 1    
    17   14   13 1    
    18   15   13 1    
    19   31   13 1    
    20   38   14 1    
    21   16   15 1    
    22   17   15 1    
    23   32   15 1    
    24   39   16 1    
    25   18   17 1    
    26   33   17 1    
    27   19   18 1    
    28   27   18 1    
    29   20   19 2    
    30   34   19 1    
    31   21   20 1    
    32   22   21 ar   
    33   27   21 ar   
    34   23   22 1    
    35   24   22 ar   
    36   35   23 1    
    37   36   23 1    
    38   25   24 ar   
    39   26   25 ar   
    40   37   25 1    
    41   27   26 ar   
@<TRIPOS>SUBSTRUCTURE
     1 ADP1202     1 GROUP   
@<TRIPOS>SET

