#    Name: 3ibe_L64_1_INTS_M
#    Modification time : Tue Mar 25 16:10:55 2014

@<TRIPOS>MOLECULE
3ibe_L64_1_INTS_M
   90     0     9     0     0
SMALL
NO_CHARGES


@<TRIPOS>ATOM
      1 N          37.3340   13.5375   35.8380 N.am      2 SEC2        0.0000 
      2 N          37.2390   13.2090   34.4320 N.am      8 SEL2        0.0000 
      3 N          37.4290   13.8660   37.2440 N.am      5 SEP2        0.0000 
      4 N          48.9285   11.1670   28.4295 N.am      2 SEC2        0.0000 
      5 N          47.9190   11.9660   28.7350 N.am      8 SEL2        0.0000 
      6 N          49.9380   10.3680   28.1240 N.am      5 SEP2        0.0000 
      7 CA         44.3530   25.3560   30.8015 C.3       3 GLC5        0.0000 
      8 CA         44.5330   24.7440   32.6170 C.3       9 GLL5        0.0000 
      9 CA         44.1730   25.9680   28.9860 C.3       6 GLP5        0.0000 
     10 O          38.0325   10.9355   31.6085 O.2       1 ALC1        0.0000 
     11 O          38.2940   11.8360   32.9050 O.2       7 ALL1        0.0000 
     12 O          37.7710   10.0350   30.3120 O.2       4 ALP1        0.0000 
     13 O          35.9225   10.6850   32.2140 O.2       1 ALC1        0.0000 
     14 O          36.1680   11.4230   33.4070 O.2       7 ALL1        0.0000 
     15 O          35.6770    9.9470   31.0210 O.2       4 ALP1        0.0000 
     16 CA         45.1510   20.0445   31.0310 C.3       3 GLC5        0.0000 
     17 CA         44.3580   19.5250   32.8030 C.3       9 GLL5        0.0000 
     18 CA         45.9440   20.5640   29.2590 C.3       6 GLP5        0.0000 
     19 CA         45.0230   13.1105   32.9480 C.3       3 GLC5        0.0000 
     20 CA         43.3360   14.3390   32.1810 C.3       9 GLL5        0.0000 
     21 CA         46.7100   11.8820   33.7150 C.3       6 GLP5        0.0000 
     22 CA         43.2605   15.5900   30.5955 C.3       3 GLC5        0.0000 
     23 CA         43.1850   16.8410   29.0100 C.3       6 GLP5        0.0000 
     24 CA         32.6450    8.9670   35.5135 C.3       3 GLC5        0.0000 
     25 CA         32.6430   10.5990   34.1920 C.3       9 GLL5        0.0000 
     26 CA         32.6470    7.3350   36.8350 C.3       6 GLP5        0.0000 
     27 CA         31.8875    9.4020   32.5220 C.3       3 GLC5        0.0000 
     28 CA         31.1320    8.2050   30.8520 C.3       6 GLP5        0.0000 
     29 CA         32.5245   12.3320   32.8755 C.3       3 GLC5        0.0000 
     30 CA         32.4060   14.0650   31.5590 C.3       6 GLP5        0.0000 
     31 CA         49.0500   14.1170   32.1885 C.3       3 GLC5        0.0000 
     32 CA         47.8220   13.4140   30.6750 C.3       9 GLL5        0.0000 
     33 CA         50.2780   14.8200   33.7020 C.3       6 GLP5        0.0000 
     34 CA         47.2660   12.6480   32.1950 C.3       3 GLC5        0.0000 
     35 CA         48.8155   11.9620   31.6720 C.3       3 GLC5        0.0000 
     36 CA         49.8090   10.5100   32.6690 C.3       6 GLP5        0.0000 
     37 CA         48.9850   11.3885   29.8155 C.3       3 GLC5        0.0000 
     38 CA         48.3550   13.2300   29.2510 C.3       9 GLL5        0.0000 
     39 CA         49.6150    9.5470   30.3800 C.3       6 GLP5        0.0000 
     40 CA         49.0140   12.1730   27.5165 C.3       3 GLC5        0.0000 
     41 CA         49.6730   11.1160   25.7820 C.3       6 GLP5        0.0000 
     42 CA         45.1100   10.4490   27.7385 C.3       3 GLC5        0.0000 
     43 CA         46.4930   11.9370   28.6300 C.3       9 GLL5        0.0000 
     44 CA         43.7270    8.9610   26.8470 C.3       6 GLP5        0.0000 
     45 CA         48.0540   10.7420   29.5050 C.3       3 GLC5        0.0000 
     46 CA         47.4575   11.1205   27.1190 C.3       3 GLC5        0.0000 
     47 CA         48.4220   10.3040   25.6080 C.3       6 GLP5        0.0000 
     48 CA         46.3810   12.7780   26.6405 C.3       3 GLC5        0.0000 
     49 CA         46.2690   13.6190   24.6510 C.3       6 GLP5        0.0000 
     50 CA         46.2710   11.9665   31.8585 C.3       3 GLC5        0.0000 
     51 CA         45.8320   12.0510   30.0020 C.3       9 GLL5        0.0000 
     52 CA         44.9555   10.4900   30.6925 C.3       3 GLC5        0.0000 
     53 CA         44.0790    8.9290   31.3830 C.3       6 GLP5        0.0000 
     54 CA         42.9442   18.5583   36.8877 C.3       3 GLC5        0.0000 
     55 CA         44.6080   18.3490   35.0490 C.3       9 GLL5        0.0000 
     56 CA         41.8020   18.2880   38.4430 C.3       6 GLP5        0.0000 
     57 CA         45.6527   17.1935   34.8782 C.3       3 GLC5        0.0000 
     58 CA         46.8250   16.1150   35.4550 C.3       6 GLP5        0.0000 
     59 CA         46.0397   15.9145   33.7980 C.3       3 GLC5        0.0000 
     60 CA         44.7340   16.0310   32.4620 C.3       9 GLL5        0.0000 
     61 CA         46.1748   13.3140   32.6442 C.3       3 GLC5        0.0000 
     62 CA         45.7750   15.3970   31.8200 C.3       9 GLL5        0.0000 
     63 CA         45.9913   15.6605   29.7993 C.3       3 GLC5        0.0000 
     64 CA         45.5040   14.0950   31.3270 C.3       9 GLL5        0.0000 
     65 CA         46.3430   16.5750   28.0250 C.3       6 GLP5        0.0000 
     66 CA         44.2821   15.8727   30.3720 C.3       3 GLC5        0.0000 
     67 CA         41.8812   13.9505   30.1475 C.3       3 GLC5        0.0000 
     68 CA         42.0330   13.6960   32.3760 C.3       9 GLL5        0.0000 
     69 CA         41.8390   14.8490   28.1660 C.3       6 GLP5        0.0000 
     70 CA         39.5166   14.7473   32.0255 C.3       3 GLC5        0.0000 
     71 CA         39.7580   13.6810   33.2160 C.3       9 GLL5        0.0000 
     72 CA         38.4000   15.6480   31.0870 C.3       6 GLP5        0.0000 
     73 CA         41.3975   10.8644   33.0705 C.3       3 GLC5        0.0000 
     74 CA         39.5640   12.3950   32.7210 C.3       9 GLL5        0.0000 
     75 CA         41.8470    9.4850   34.0080 C.3       6 GLP5        0.0000 
     76 CA         39.5890   13.2834   31.2290 C.3       3 GLC5        0.0000 
     77 CA         40.6000   11.7640   32.0470 C.3       9 GLL5        0.0000 
     78 CA         38.2300   14.3230   30.3250 C.3       6 GLP5        0.0000 
     79 CA         35.9700    9.6210   34.1128 C.3       3 GLC5        0.0000 
     80 CA         34.8220   11.4750   33.8220 C.3       9 GLL5        0.0000 
     81 CA         37.5590    8.3020   34.4350 C.3       6 GLP5        0.0000 
     82 CA         33.9511   11.9354   36.0436 C.3       3 GLC5        0.0000 
     83 CA         33.0470   12.7920   34.7150 C.3       9 GLL5        0.0000 
     84 CA         34.0830   11.4320   37.6980 C.3       6 GLP5        0.0000 
     85 CA         33.1126   13.2519   32.9741 C.3       3 GLC5        0.0000 
     86 CA         33.6872   10.9670   35.8367 C.3       3 GLC5        0.0000 
     87 CA         48.0228   15.1175   29.3195 C.3       3 GLC5        0.0000 
     88 CA         47.9570   16.9130   28.6760 C.3       6 GLP5        0.0000 
     89 CA         44.6098   13.0720   28.4955 C.3       3 GLC5        0.0000 
     90 CA         43.0570   14.1500   27.6750 C.3       6 GLP5        0.0000 
@<TRIPOS>BOND
@<TRIPOS>SUBSTRUCTURE
     1 ALC1       10 GROUP        1 X    ALC  0     ROOT ALC X 1
     2 SEC2        1 GROUP        1 X    SEC  0     **** SEC X 2
     3 GLC5        7 GROUP        1 X    GLC  0     **** GLC X 6
     4 ALP1       12 GROUP        1 Y    ALP  0     ROOT ALP Y 8
     5 SEP2        3 GROUP        1 Y    SEP  0     **** SEP Y 9
     6 GLP5        9 GROUP        1 Y    GLP  0     **** GLP Y 13
     7 ALL1       11 GROUP        1 Z    ALL  0     ROOT ALL Z 15
     8 SEL2        2 GROUP        1 Z    SEL  0     **** SEL Z 16
     9 GLL5        8 GROUP        1 Z    GLL  0     **** GLL Z 20
@<TRIPOS>SET

