#    Name: 3ibe_L64_1_ligand
#    Modification time : Tue Mar 25 16:10:55 2014

@<TRIPOS>MOLECULE
3ibe_L64_1_ligand
   78    84     1     0     0
SMALL
NO_CHARGES


@<TRIPOS>ATOM
      1 C1         43.4790   24.8530   33.5320 C.ar      1 L641109     0.0000 
      2 N1         45.4330   23.7300   32.5890 N.ar      1 L641109     0.0000 
      3 O1         44.4730   21.8700   36.6080 O.2       1 L641109     0.0000 
      4 C2         43.3160   23.8580   34.4950 C.ar      1 L641109     0.0000 
      5 N2         43.6780   20.5380   34.8520 N.am      1 L641109     0.0000 
      6 O2         37.2390   13.2090   34.4320 O.2       1 L641109     0.0000 
      7 C3         44.2260   22.8120   34.4860 C.ar      1 L641109     0.0000 
      8 N3         45.1900   17.2480   32.8500 N.pl3     1 L641109     0.0000 
      9 O3         47.9190   11.9660   28.7350 O.3       1 L641109     0.0000 
     10 C4         45.2470   22.7800   33.5390 C.ar      1 L641109     0.0000 
     11 N4         46.4750   17.4900   32.5120 N.2       1 L641109     0.0000 
     12 C5         44.5330   24.7440   32.6170 C.ar      1 L641109     0.0000 
     13 N5         44.2590   13.6040   31.5380 N.ar      1 L641109     0.0000 
     14 C6         44.1410   21.7070   35.4320 C.2       1 L641109     0.0000 
     15 N6         43.4990   15.5690   32.6800 N.ar      1 L641109     0.0000 
     16 C7         43.5650   19.3080   35.6160 C.3       1 L641109     0.0000 
     17 N7         38.2940   11.8360   32.9050 N.am      1 L641109     0.0000 
     18 C8         44.6080   18.3490   35.0490 C.3       1 L641109     0.0000 
     19 N8         36.1680   11.4230   33.4070 N.am      1 L641109     0.0000 
     20 C9         44.3530   18.1950   33.5540 C.3       1 L641109     0.0000 
     21 N9         32.1770   11.7680   34.6700 N.pl3     1 L641109     0.0000 
     22 C10        44.3580   19.5250   32.8030 C.3       1 L641109     0.0000 
     23 N10        46.3630   13.2500   30.6440 N.3       1 L641109     0.0000 
     24 C11        43.3090   20.3950   33.4510 C.3       1 L641109     0.0000 
     25 C12        44.7340   16.0310   32.4620 C.ar      1 L641109     0.0000 
     26 C13        45.7750   15.3970   31.8200 C.ar      1 L641109     0.0000 
     27 C14        46.8210   16.3550   31.8870 C.2       1 L641109     0.0000 
     28 C15        45.5040   14.0950   31.3270 C.ar      1 L641109     0.0000 
     29 C16        43.3360   14.3390   32.1810 C.ar      1 L641109     0.0000 
     30 C17        42.0330   13.6960   32.3760 C.ar      1 L641109     0.0000 
     31 C18        40.9840   14.3280   33.0480 C.ar      1 L641109     0.0000 
     32 C19        39.7580   13.6810   33.2160 C.ar      1 L641109     0.0000 
     33 C20        39.5640   12.3950   32.7210 C.ar      1 L641109     0.0000 
     34 C21        40.6000   11.7640   32.0470 C.ar      1 L641109     0.0000 
     35 C22        41.8140   12.4080   31.8820 C.ar      1 L641109     0.0000 
     36 C23        37.2330   12.2700   33.6660 C.2       1 L641109     0.0000 
     37 C24        34.8220   11.4750   33.8220 C.ar      1 L641109     0.0000 
     38 C25        34.3610   12.6960   34.3050 C.ar      1 L641109     0.0000 
     39 C26        33.0470   12.7920   34.7150 C.ar      1 L641109     0.0000 
     40 C27        32.6430   10.5990   34.1920 C.ar      1 L641109     0.0000 
     41 C28        33.9400   10.4050   33.7590 C.ar      1 L641109     0.0000 
     42 C29        47.8220   13.4140   30.6750 C.3       1 L641109     0.0000 
     43 C30        48.3550   13.2300   29.2510 C.3       1 L641109     0.0000 
     44 C31        46.4930   11.9370   28.6300 C.3       1 L641109     0.0000 
     45 C32        45.8320   12.0510   30.0020 C.3       1 L641109     0.0000 
     46 H          42.8428   25.6476   33.4926 H         1 L641109     0.0000 
     47 H          42.5661   23.9007   35.1686 H         1 L641109     0.0000 
     48 H          45.9139   21.9538   33.5755 H         1 L641109     0.0000 
     49 H          44.6197   25.5249   31.8956 H         1 L641109     0.0000 
     50 H          42.5893   18.8594   35.5016 H         1 L641109     0.0000 
     51 H          43.7816   19.4703   36.6615 H         1 L641109     0.0000 
     52 H          38.1250   10.8992   32.3482 H         1 L641109     0.0000 
     53 H          44.5144   17.3891   35.5320 H         1 L641109     0.0000 
     54 H          45.5944   18.7558   35.2070 H         1 L641109     0.0000 
     55 H          36.4064   10.5545   32.7652 H         1 L641109     0.0000 
     56 H          43.2754   17.8260   33.4570 H         1 L641109     0.0000 
     57 H          31.2104   11.8710   34.9827 H         1 L641109     0.0000 
     58 H          44.1088   19.3524   31.7725 H         1 L641109     0.0000 
     59 H          45.3254   19.9824   32.8963 H         1 L641109     0.0000 
     60 H          43.2930   21.3568   32.9519 H         1 L641109     0.0000 
     61 H          42.3428   19.9150   33.3494 H         1 L641109     0.0000 
     62 H          47.7097   16.1638   31.4959 H         1 L641109     0.0000 
     63 H          41.1160   15.2782   33.4222 H         1 L641109     0.0000 
     64 H          38.9920   14.1615   33.7108 H         1 L641109     0.0000 
     65 H          40.4638   10.8150   31.6696 H         1 L641109     0.0000 
     66 H          42.5854   11.9256   31.3786 H         1 L641109     0.0000 
     67 H          34.9865   13.5010   34.3528 H         1 L641109     0.0000 
     68 H          32.7188   13.7330   35.0842 H         1 L641109     0.0000 
     69 H          31.9830    9.7652   34.1388 H         1 L641109     0.0000 
     70 H          34.2448    9.5011   33.4020 H         1 L641109     0.0000 
     71 H          48.2836   12.6689   31.3134 H         1 L641109     0.0000 
     72 H          48.0947   14.4059   31.0183 H         1 L641109     0.0000 
     73 H          47.9859   14.0638   28.6459 H         1 L641109     0.0000 
     74 H          49.4466   13.2963   29.2919 H         1 L641109     0.0000 
     75 H          46.1405   11.0009   28.1661 H         1 L641109     0.0000 
     76 H          46.1162   12.7656   28.0078 H         1 L641109     0.0000 
     77 H          44.7609   12.1226   29.8625 H         1 L641109     0.0000 
     78 H          46.0699   11.1625   30.5729 H         1 L641109     0.0000 
@<TRIPOS>BOND
     1    4    1 ar   
     2   12    1 ar   
     3   46    1 1    
     4   10    2 ar   
     5   12    2 ar   
     6   14    3 2    
     7    7    4 ar   
     8   47    4 1    
     9   14    5 am   
    10   16    5 1    
    11   24    5 1    
    12   36    6 2    
    13   10    7 ar   
    14   14    7 1    
    15   11    8 1    
    16   20    8 1    
    17   25    8 1    
    18   43    9 1    
    19   44    9 1    
    20   48   10 1    
    21   27   11 2    
    22   49   12 1    
    23   28   13 ar   
    24   29   13 ar   
    25   25   15 ar   
    26   29   15 ar   
    27   18   16 1    
    28   50   16 1    
    29   51   16 1    
    30   33   17 1    
    31   36   17 am   
    32   52   17 1    
    33   20   18 1    
    34   53   18 1    
    35   54   18 1    
    36   36   19 am   
    37   37   19 1    
    38   55   19 1    
    39   22   20 1    
    40   56   20 1    
    41   39   21 ar   
    42   40   21 ar   
    43   57   21 1    
    44   24   22 1    
    45   58   22 1    
    46   59   22 1    
    47   28   23 1    
    48   42   23 1    
    49   45   23 1    
    50   60   24 1    
    51   61   24 1    
    52   26   25 ar   
    53   27   26 1    
    54   28   26 ar   
    55   62   27 1    
    56   30   29 1    
    57   31   30 ar   
    58   35   30 ar   
    59   32   31 ar   
    60   63   31 1    
    61   33   32 ar   
    62   64   32 1    
    63   34   33 ar   
    64   35   34 ar   
    65   65   34 1    
    66   66   35 1    
    67   38   37 ar   
    68   41   37 ar   
    69   39   38 ar   
    70   67   38 1    
    71   68   39 1    
    72   41   40 ar   
    73   69   40 1    
    74   70   41 1    
    75   43   42 1    
    76   71   42 1    
    77   72   42 1    
    78   73   43 1    
    79   74   43 1    
    80   45   44 1    
    81   75   44 1    
    82   76   44 1    
    83   77   45 1    
    84   78   45 1    
@<TRIPOS>SUBSTRUCTURE
     1 L641109     1 GROUP   
@<TRIPOS>SET

