#    Name: 2viz_VG4_1_INTS_M
#    Modification time : Tue Mar 25 01:53:38 2014

@<TRIPOS>MOLECULE
2viz_VG4_1_INTS_M
   97     0    12     0     0
SMALL
NO_CHARGES


@<TRIPOS>ATOM
      1 CA         32.5375    1.9325   36.3120 C.3       4 GLC5        0.0000 
      2 CA         31.3940    0.2350   36.4430 C.3      12 GLL5        0.0000 
      3 CA         33.6810    3.6300   36.1810 C.3       8 GLP5        0.0000 
      4 CA         29.5555   -3.0730   37.9640 C.3       4 GLC5        0.0000 
      5 CA         31.0320   -2.1620   36.8280 C.3      12 GLL5        0.0000 
      6 CA         28.0790   -3.9840   39.1000 C.3       8 GLP5        0.0000 
      7 O          28.3700    0.5545   33.9325 O.2       1 ALC1        0.0000 
      8 O          29.4940    1.3460   33.5510 O.2       9 ALL1        0.0000 
      9 O          27.2460   -0.2370   34.3140 O.2       5 ALP1        0.0000 
     10 N          33.0525    1.8740   34.0020 N.am      2 SEC2        0.0000 
     11 N          31.5890    2.0580   34.0460 N.am     10 SEL2        0.0000 
     12 N          34.5160    1.6900   33.9580 N.am      6 SEP2        0.0000 
     13 CA         26.7240    2.1000   33.5005 C.3       4 GLC5        0.0000 
     14 CA         28.3700    3.5250   33.0850 C.3      12 GLL5        0.0000 
     15 CA         25.0780    0.6750   33.9160 C.3       8 GLP5        0.0000 
     16 O          26.4365    3.9770   32.1635 O.2       1 ALC1        0.0000 
     17 O          28.0910    4.4570   32.0560 O.2       9 ALL1        0.0000 
     18 O          24.7820    3.4970   32.2710 O.2       5 ALP1        0.0000 
     19 O          27.0515    4.1465   31.2660 O.2       1 ALC1        0.0000 
     20 O          26.0120    3.8360   30.4760 O.2       5 ALP1        0.0000 
     21 OD1        26.7095    4.6885   34.8825 O.co2     3 ASC3        0.0000 
     22 OD1        28.3790    5.5520   34.4680 O.co2    11 ASL3        0.0000 
     23 OD1        25.0400    3.8250   35.2970 O.co2     7 ASP3        0.0000 
     24 OD1        27.5875    5.0555   35.4310 O.co2     3 ASC3        0.0000 
     25 OD1        26.7960    4.5590   36.3940 O.co2     7 ASP3        0.0000 
     26 CA         28.4545    8.7305   34.9080 C.3       4 GLC5        0.0000 
     27 CA         29.0770    6.7470   34.9730 C.3      12 GLL5        0.0000 
     28 CA         27.8320   10.7140   34.8430 C.3       8 GLP5        0.0000 
     29 O          28.1865    7.7300   32.8660 O.2       1 ALC1        0.0000 
     30 O          29.6650    7.8810   32.9270 O.2       9 ALL1        0.0000 
     31 O          26.7080    7.5790   32.8050 O.2       5 ALP1        0.0000 
     32 N          32.0940    5.7835   35.2245 N.am      2 SEC2        0.0000 
     33 N          31.3230    6.7800   34.0550 N.am     10 SEL2        0.0000 
     34 N          32.8650    4.7870   36.3940 N.am      6 SEP2        0.0000 
     35 CA         29.8190   10.7990   33.5635 C.3       4 GLC5        0.0000 
     36 CA         30.9800    9.8000   32.1030 C.3      12 GLL5        0.0000 
     37 CA         28.6580   11.7980   35.0240 C.3       8 GLP5        0.0000 
     38 CA         31.5120   10.9985   27.6455 C.3       4 GLC5        0.0000 
     39 CA         31.1300   10.2120   29.5710 C.3      12 GLL5        0.0000 
     40 CA         31.8940   11.7850   25.7200 C.3       8 GLP5        0.0000 
     41 CA         31.1960    7.8120   27.9440 C.3       4 GLC5        0.0000 
     42 CA         30.5810    8.7850   29.3120 C.3      12 GLL5        0.0000 
     43 CA         31.8110    6.8390   26.5760 C.3       8 GLP5        0.0000 
     44 CA         30.2450    6.6965   29.0735 C.3       4 GLC5        0.0000 
     45 CA         29.9090    4.6080   28.8350 C.3       8 GLP5        0.0000 
     46 CA         30.4900   -4.3420   30.7560 C.3       4 GLC5        0.0000 
     47 CA         30.3560   -2.1900   30.2930 C.3      12 GLL5        0.0000 
     48 CA         30.6240   -6.4940   31.2190 C.3       8 GLP5        0.0000 
     49 CA         31.7010    1.8930   31.0085 C.3       4 GLC5        0.0000 
     50 CA         30.6750    0.1830   30.8250 C.3      12 GLL5        0.0000 
     51 CA         32.7270    3.6030   31.1920 C.3       8 GLP5        0.0000 
     52 CA         29.8580   -5.0375   32.5765 C.3       4 GLC5        0.0000 
     53 CA         29.0920   -3.5810   33.9340 C.3      12 GLL5        0.0000 
     54 CA         26.1165   -3.2965   31.5730 C.3       4 GLC5        0.0000 
     55 CA         26.6630   -3.4700   33.2430 C.3      12 GLL5        0.0000 
     56 CA         25.5700   -3.1230   29.9030 C.3       8 GLP5        0.0000 
     57 CA         25.8705   -1.3975   33.5795 C.3       4 GLC5        0.0000 
     58 CA         33.9725    1.5455   38.0535 C.3       4 GLC5        0.0000 
     59 CA         33.4440   -0.2710   38.6680 C.3      12 GLL5        0.0000 
     60 CA         34.5010    3.3620   37.4390 C.3       8 GLP5        0.0000 
     61 CA         30.9620   -1.3035   42.0005 C.3       4 GLC5        0.0000 
     62 CA         32.5450   -0.9630   40.8390 C.3      12 GLL5        0.0000 
     63 CA         29.3790   -1.6440   43.1620 C.3       8 GLP5        0.0000 
     64 N          28.9985   -1.6960   39.1140 N.am      2 SEC2        0.0000 
     65 N          30.4390   -1.6990   39.8990 N.am     10 SEL2        0.0000 
     66 N          27.5580   -1.6930   38.3290 N.am      6 SEP2        0.0000 
     67 N          29.1680   -1.7760   40.5560 N.am      2 SEC2        0.0000 
     68 N          27.8970   -1.8530   41.2130 N.am      6 SEP2        0.0000 
     69 CA         32.8245   -0.5330   35.4520 C.3       4 GLC5        0.0000 
     70 CA         31.5100   -0.9090   37.2850 C.3      12 GLL5        0.0000 
     71 CA         34.1970   -0.7290   34.0400 C.3       8 GLP5        0.0000 
     72 CA         29.9810    0.4155   37.9690 C.3       4 GLC5        0.0000 
     73 CA         28.5100    1.1680   39.0740 C.3       8 GLP5        0.0000 
     74 CA         32.3847   -0.6207   34.4928 C.3       4 GLC5        0.0000 
     75 CA         30.8080    0.1230   35.1650 C.3      12 GLL5        0.0000 
     76 CA         32.4668   -1.4817   35.1165 C.3       4 GLC5        0.0000 
     77 CA         30.4410   -2.3070   35.5580 C.3      12 GLL5        0.0000 
     78 CA         28.8734   -0.5274   36.1454 C.3       4 GLC5        0.0000 
     79 CA         27.2400    0.3550   37.0390 C.3       8 GLP5        0.0000 
     80 CA         29.6953    3.6595   31.2248 C.3       4 GLC5        0.0000 
     81 CA         29.2670    2.3960   32.5350 C.3      12 GLL5        0.0000 
     82 CA         30.7250    4.5260   29.9550 C.3       8 GLP5        0.0000 
     83 CA         27.9685    7.4560   36.8542 C.3       4 GLC5        0.0000 
     84 CA         26.5380    8.3080   38.0470 C.3       8 GLP5        0.0000 
     85 CA         30.4168    6.4223   30.5570 C.3       4 GLC5        0.0000 
     86 CA         30.5040    8.3530   31.8250 C.3      12 GLL5        0.0000 
     87 CA         28.4365    7.6743   29.7218 C.3       4 GLC5        0.0000 
     88 CA         29.7130    8.2840   30.4930 C.3      12 GLL5        0.0000 
     89 CA         26.7260    6.8140   29.5410 C.3       8 GLP5        0.0000 
     90 CA         27.1268   -2.2498   30.2265 C.3       4 GLC5        0.0000 
     91 CA         28.4140   -0.7390   30.7090 C.3      12 GLL5        0.0000 
     92 CA         27.7900    0.8990   29.4558 C.3       4 GLC5        0.0000 
     93 CA         26.8930    1.6430   28.0060 C.3       8 GLP5        0.0000 
     94 CA         25.7523   -4.5137   33.1943 C.3       4 GLC5        0.0000 
     95 CA         24.3530   -5.5550   32.5630 C.3       8 GLP5        0.0000 
     96 CA         32.1355    0.9592   40.7244 C.3       4 GLC5        0.0000 
     97 CA         31.1990    2.5500   41.3240 C.3       8 GLP5        0.0000 
@<TRIPOS>BOND
@<TRIPOS>SUBSTRUCTURE
     1 ALC1        7 GROUP        1 X    ALC  0     ROOT ALC X 1
     2 SEC2       10 GROUP        1 X    SEC  0     **** SEC X 2
     3 ASC3       21 GROUP        1 X    ASC  0     **** ASC X 3
     4 GLC5        1 GROUP        1 X    GLC  0     **** GLC X 6
     5 ALP1        9 GROUP        1 Y    ALP  0     ROOT ALP Y 8
     6 SEP2       12 GROUP        1 Y    SEP  0     **** SEP Y 9
     7 ASP3       23 GROUP        1 Y    ASP  0     **** ASP Y 10
     8 GLP5        3 GROUP        1 Y    GLP  0     **** GLP Y 13
     9 ALL1        8 GROUP        1 Z    ALL  0     ROOT ALL Z 15
    10 SEL2       11 GROUP        1 Z    SEL  0     **** SEL Z 16
    11 ASL3       22 GROUP        1 Z    ASL  0     **** ASL Z 17
    12 GLL5        2 GROUP        1 Z    GLL  0     **** GLL Z 20
@<TRIPOS>SET

