#    Name: 2viz_VG4_1_ligand
#    Modification time : Tue Mar 25 01:53:38 2014

@<TRIPOS>MOLECULE
2viz_VG4_1_ligand
   85    88     1     0     0
SMALL
NO_CHARGES


@<TRIPOS>ATOM
      1 C1         31.5100   -0.9090   37.2850 C.ar      1 VG41448     0.0000 
      2 C2         31.3940    0.2350   36.4430 C.ar      1 VG41448     0.0000 
      3 C3         30.8080    0.1230   35.1650 C.ar      1 VG41448     0.0000 
      4 C4         30.3370   -1.1480   34.7260 C.ar      1 VG41448     0.0000 
      5 C5         30.4410   -2.3070   35.5580 C.ar      1 VG41448     0.0000 
      6 C6         31.0320   -2.1620   36.8280 C.ar      1 VG41448     0.0000 
      7 C7         30.6730    1.2520   34.2370 C.2       1 VG41448     0.0000 
      8 N8         29.4940    1.3460   33.5510 N.am      1 VG41448     0.0000 
      9 O9         31.5890    2.0580   34.0460 O.2       1 VG41448     0.0000 
     10 C10        29.2670    2.3960   32.5350 C.3       1 VG41448     0.0000 
     11 C11        28.6550    1.7260   31.2730 C.3       1 VG41448     0.0000 
     12 C12        28.3700    3.5250   33.0850 C.3       1 VG41448     0.0000 
     13 O13        28.0910    4.4570   32.0560 O.3       1 VG41448     0.0000 
     14 C14        29.2650    0.3720   30.9310 C.ar      1 VG41448     0.0000 
     15 C15        29.0500    4.2820   34.2300 C.3       1 VG41448     0.0000 
     16 N16        28.3790    5.5520   34.4680 N.4       1 VG41448     0.0000 
     17 C17        29.0770    6.7470   34.9730 C.3       1 VG41448     0.0000 
     18 C18        30.1520    7.1400   33.9370 C.2       1 VG41448     0.0000 
     19 N19        29.6650    7.8810   32.9270 N.am      1 VG41448     0.0000 
     20 O20        31.3230    6.7800   34.0550 O.2       1 VG41448     0.0000 
     21 C21        30.5040    8.3530   31.8250 C.3       1 VG41448     0.0000 
     22 C22        29.7210    6.4610   36.3500 C.3       1 VG41448     0.0000 
     23 C23        30.9800    9.8000   32.1030 C.3       1 VG41448     0.0000 
     24 C24        31.8630   10.3140   30.9390 C.3       1 VG41448     0.0000 
     25 C25        31.1300   10.2120   29.5710 C.3       1 VG41448     0.0000 
     26 C26        30.5810    8.7850   29.3120 C.3       1 VG41448     0.0000 
     27 C27        29.7130    8.2840   30.4930 C.3       1 VG41448     0.0000 
     28 C56        28.4140   -0.7390   30.7090 C.ar      1 VG41448     0.0000 
     29 C57        28.9530   -2.0140   30.3910 C.ar      1 VG41448     0.0000 
     30 C58        30.3560   -2.1900   30.2930 C.ar      1 VG41448     0.0000 
     31 C59        31.2180   -1.0890   30.5100 C.ar      1 VG41448     0.0000 
     32 C60        30.6750    0.1830   30.8250 C.ar      1 VG41448     0.0000 
     33 O66        29.9560   -3.5530   35.0730 O.3       1 VG41448     0.0000 
     34 C67        29.0920   -3.5810   33.9340 C.3       1 VG41448     0.0000 
     35 C68        27.6400   -3.4750   34.4080 C.3       1 VG41448     0.0000 
     36 C71        26.6630   -3.4700   33.2430 C.3       1 VG41448     0.0000 
     37 N77        32.0900   -0.8130   38.5260 N.am      1 VG41448     0.0000 
     38 C78        33.4440   -0.2710   38.6680 C.2       1 VG41448     0.0000 
     39 C79        33.7540   -0.3290   40.1530 C.2       1 VG41448     0.0000 
     40 C80        32.5450   -0.9630   40.8390 C.3       1 VG41448     0.0000 
     41 C81        31.5470   -1.2080   39.7110 C.2       1 VG41448     0.0000 
     42 O88        30.4390   -1.6990   39.8990 O.2       1 VG41448     0.0000 
     43 H          31.7392    1.1383   36.7729 H         1 VG41448     0.0000 
     44 H          29.9148   -1.2362   33.7958 H         1 VG41448     0.0000 
     45 H          31.1207   -2.9860   37.4433 H         1 VG41448     0.0000 
     46 H          28.7143    0.6907   33.7119 H         1 VG41448     0.0000 
     47 H          30.2201    2.8259   32.2418 H         1 VG41448     0.0000 
     48 H          28.7851    2.4114   30.4221 H         1 VG41448     0.0000 
     49 H          27.5730    1.6093   31.4357 H         1 VG41448     0.0000 
     50 H          27.4651    3.0817   33.4669 H         1 VG41448     0.0000 
     51 H          30.0997    4.4356   33.9589 H         1 VG41448     0.0000 
     52 H          29.0197    3.6471   35.1216 H         1 VG41448     0.0000 
     53 H          28.3928    7.5656   35.0731 H         1 VG41448     0.0000 
     54 H          28.6605    8.1558   32.8813 H         1 VG41448     0.0000 
     55 H          31.3793    7.7282   31.7231 H         1 VG41448     0.0000 
     56 H          31.5573    9.8139   33.0190 H         1 VG41448     0.0000 
     57 H          30.1158   10.4447   32.2040 H         1 VG41448     0.0000 
     58 H          32.7738    9.7216   30.8946 H         1 VG41448     0.0000 
     59 H          32.1229   11.3540   31.1217 H         1 VG41448     0.0000 
     60 H          31.8275   10.4734   28.7778 H         1 VG41448     0.0000 
     61 H          30.3020   10.9180   29.5621 H         1 VG41448     0.0000 
     62 H          31.4174    8.1043   29.1726 H         1 VG41448     0.0000 
     63 H          29.9770    8.7973   28.4079 H         1 VG41448     0.0000 
     64 H          28.8295    8.9065   30.5734 H         1 VG41448     0.0000 
     65 H          29.4204    7.2571   30.3080 H         1 VG41448     0.0000 
     66 H          27.3988   -0.6229   30.7783 H         1 VG41448     0.0000 
     67 H          28.3277   -2.8043   30.2330 H         1 VG41448     0.0000 
     68 H          30.7408   -3.1048   30.0675 H         1 VG41448     0.0000 
     69 H          32.2275   -1.2082   30.4404 H         1 VG41448     0.0000 
     70 H          31.3009    0.9789   30.9791 H         1 VG41448     0.0000 
     71 H          29.1918   -4.5113   33.3702 H         1 VG41448     0.0000 
     72 H          29.2838   -2.7454   33.2571 H         1 VG41448     0.0000 
     73 H          27.5210   -2.5539   34.9854 H         1 VG41448     0.0000 
     74 H          27.4178   -4.3211   35.0644 H         1 VG41448     0.0000 
     75 H          33.9935    0.0353   38.0370 H         1 VG41448     0.0000 
     76 H          34.4962   -0.0488   40.5528 H         1 VG41448     0.0000 
     77 H          32.1328   -0.2806   41.5432 H         1 VG41448     0.0000 
     78 H          32.8266   -1.8896   41.2788 H         1 VG41448     0.0000 
     79 H          30.3865    5.7162   36.3013 H         1 VG41448     0.0000 
     80 H          30.2022    7.2610   36.7083 H         1 VG41448     0.0000 
     81 H          29.0382    6.1997   37.0323 H         1 VG41448     0.0000 
     82 H          26.8261   -2.7010   32.6249 H         1 VG41448     0.0000 
     83 H          26.7320   -4.3048   32.6968 H         1 VG41448     0.0000 
     84 H          25.7150   -3.4005   33.5536 H         1 VG41448     0.0000 
     85 H          27.3233    4.0626   31.5509 H         1 VG41448     0.0000 
@<TRIPOS>BOND
     1    2    1 ar   
     2    6    1 ar   
     3   37    1 1    
     4    3    2 ar   
     5   43    2 1    
     6    4    3 ar   
     7    7    3 1    
     8    5    4 ar   
     9   44    4 1    
    10    6    5 ar   
    11   33    5 1    
    12   45    6 1    
    13    8    7 am   
    14    9    7 2    
    15   10    8 1    
    16   46    8 1    
    17   11   10 1    
    18   12   10 1    
    19   47   10 1    
    20   14   11 1    
    21   48   11 1    
    22   49   11 1    
    23   13   12 1    
    24   15   12 1    
    25   50   12 1    
    26   85   13 1    
    27   28   14 ar   
    28   32   14 ar   
    29   16   15 1    
    30   51   15 1    
    31   52   15 1    
    32   17   16 1    
    33   18   17 1    
    34   22   17 1    
    35   53   17 1    
    36   19   18 am   
    37   20   18 2    
    38   21   19 1    
    39   54   19 1    
    40   23   21 1    
    41   27   21 1    
    42   55   21 1    
    43   79   22 1    
    44   80   22 1    
    45   81   22 1    
    46   24   23 1    
    47   56   23 1    
    48   57   23 1    
    49   25   24 1    
    50   58   24 1    
    51   59   24 1    
    52   26   25 1    
    53   60   25 1    
    54   61   25 1    
    55   27   26 1    
    56   62   26 1    
    57   63   26 1    
    58   64   27 1    
    59   65   27 1    
    60   29   28 ar   
    61   66   28 1    
    62   30   29 ar   
    63   67   29 1    
    64   31   30 ar   
    65   68   30 1    
    66   32   31 ar   
    67   69   31 1    
    68   70   32 1    
    69   34   33 1    
    70   35   34 1    
    71   71   34 1    
    72   72   34 1    
    73   36   35 1    
    74   73   35 1    
    75   74   35 1    
    76   82   36 1    
    77   83   36 1    
    78   84   36 1    
    79   38   37 1    
    80   41   37 am   
    81   39   38 2    
    82   75   38 1    
    83   40   39 1    
    84   76   39 1    
    85   41   40 1    
    86   77   40 1    
    87   78   40 1    
    88   42   41 2    
@<TRIPOS>SUBSTRUCTURE
     1 VG41448     1 GROUP   
@<TRIPOS>SET

