#    Name: 3zlo_X8U_1_INTS_M
#    Modification time : Tue Mar 25 03:39:14 2014

@<TRIPOS>MOLECULE
3zlo_X8U_1_INTS_M
  103     0    12     0     0
SMALL
NO_CHARGES


@<TRIPOS>ATOM
      1 N           8.9535  -30.9805    5.1045 N.am      2 SEC2        0.0000 
      2 N           8.7650  -31.1510    6.8190 N.am     10 SEL2        0.0000 
      3 N           9.1420  -30.8100    3.3900 N.am      6 SEP2        0.0000 
      4 NZ         10.0210  -33.0190    4.5965 N.4       3 LYC4        0.0000 
      5 NZ          8.9180  -32.9600    5.6190 N.4      11 LYL4        0.0000 
      6 NZ         10.6810  -33.9790    2.7150 N.4       7 LYP4        0.0000 
      7 N           9.0300  -31.8850    4.5045 N.am      2 SEC2        0.0000 
      8 N           8.9180  -32.9600    5.6190 N.am     10 SEL2        0.0000 
      9 N          10.0210  -33.0190    4.5965 N.am      2 SEC2        0.0000 
     10 N          11.1240  -33.0780    3.5740 N.am      6 SEP2        0.0000 
     11 N           9.2935  -33.8635    4.3285 N.am      2 SEC2        0.0000 
     12 N           9.6690  -34.7670    3.0380 N.am      6 SEP2        0.0000 
     13 N          11.2025  -33.4670    5.1700 N.am      2 SEC2        0.0000 
     14 N          11.2810  -33.8560    6.7660 N.am     10 SEL2        0.0000 
     15 CA         11.0955  -28.9975    7.7710 C.3       4 GLC5        0.0000 
     16 CA         11.0520  -30.6070    8.6790 C.3      12 GLL5        0.0000 
     17 CA         11.1390  -27.3880    6.8630 C.3       8 GLP5        0.0000 
     18 CA         12.4840  -30.0945    7.1120 C.3       4 GLC5        0.0000 
     19 CA         13.9160  -29.5820    5.5450 C.3       8 GLP5        0.0000 
     20 CA         10.0400  -31.0985   12.2615 C.3       4 GLC5        0.0000 
     21 CA         10.6100  -30.8470   10.1190 C.3      12 GLL5        0.0000 
     22 CA          9.4700  -31.3500   14.4040 C.3       8 GLP5        0.0000 
     23 CA         11.1870  -32.8785   10.8245 C.3       4 GLC5        0.0000 
     24 CA         11.7640  -34.9100   11.5300 C.3       8 GLP5        0.0000 
     25 CA         12.1520  -27.3465   12.5895 C.3       4 GLC5        0.0000 
     26 CA         10.4910  -27.1580   11.2200 C.3      12 GLL5        0.0000 
     27 CA         13.8130  -27.5350   13.9590 C.3       8 GLP5        0.0000 
     28 CA         12.7025  -32.0790    6.5175 C.3       4 GLC5        0.0000 
     29 CA         12.8500  -32.7850    8.5250 C.3      12 GLL5        0.0000 
     30 CA         12.5550  -31.3730    4.5100 C.3       8 GLP5        0.0000 
     31 CA         14.2940  -31.5500    8.7840 C.3       4 GLC5        0.0000 
     32 CA         15.7380  -30.3150    9.0430 C.3       8 GLP5        0.0000 
     33 CA         15.8050  -39.2405    4.4280 C.3       4 GLC5        0.0000 
     34 CA         16.2260  -38.2580    6.3250 C.3      12 GLL5        0.0000 
     35 CA         15.3840  -40.2230    2.5310 C.3       8 GLP5        0.0000 
     36 CA         15.8260  -37.8120   10.2370 C.3       4 GLC5        0.0000 
     37 CA         17.1500  -38.1490    8.6900 C.3      12 GLL5        0.0000 
     38 CA         14.5020  -37.4750   11.7840 C.3       8 GLP5        0.0000 
     39 CA         17.4010  -39.8660   10.0845 C.3       4 GLC5        0.0000 
     40 CA         17.6520  -41.5830   11.4790 C.3       8 GLP5        0.0000 
     41 CA         18.9305  -37.4870    8.7005 C.3       4 GLC5        0.0000 
     42 CA         20.7110  -36.8250    8.7110 C.3       8 GLP5        0.0000 
     43 O          17.9790  -37.3740   11.3300 O.2       1 ALC1        0.0000 
     44 O          17.8100  -36.2560   10.5090 O.2       9 ALL1        0.0000 
     45 O          18.1480  -38.4920   12.1510 O.2       5 ALP1        0.0000 
     46 CA         17.4305  -33.4835    8.7555 C.3       4 GLC5        0.0000 
     47 CA         17.9650  -33.5530   10.8620 C.3      12 GLL5        0.0000 
     48 CA         16.8960  -33.4140    6.6490 C.3       8 GLP5        0.0000 
     49 CA         16.8515  -31.9340    9.9525 C.3       4 GLC5        0.0000 
     50 CA         20.4915  -31.9400   10.9190 C.3       4 GLC5        0.0000 
     51 CA         19.0920  -33.1100   12.0460 C.3      12 GLL5        0.0000 
     52 CA         21.8910  -30.7700    9.7920 C.3       8 GLP5        0.0000 
     53 N          20.2810  -36.5470   11.9280 N.am      2 SEC2        0.0000 
     54 N          19.2590  -35.4410   12.0550 N.am     10 SEL2        0.0000 
     55 N          21.3030  -37.6530   11.8010 N.am      6 SEP2        0.0000 
     56 CA         20.7155  -35.3115   11.1745 C.3       4 GLC5        0.0000 
     57 CA         19.7000  -34.2400   12.6000 C.3      12 GLL5        0.0000 
     58 CA         21.7310  -36.3830    9.7490 C.3       8 GLP5        0.0000 
     59 CA         11.7995  -31.8380    6.0475 C.3       4 GLC5        0.0000 
     60 CA         11.4020  -31.9310    8.0640 C.3      12 GLL5        0.0000 
     61 CA         12.2775  -30.8210   10.8405 C.3       4 GLC5        0.0000 
     62 CA         13.7240  -30.9150   12.2820 C.3       8 GLP5        0.0000 
     63 CA         11.8985  -29.3445   11.6788 C.3       4 GLC5        0.0000 
     64 CA          9.9610  -29.5800   10.6550 C.3      12 GLL5        0.0000 
     65 CA         13.3390  -29.6810   12.7630 C.3       8 GLP5        0.0000 
     66 CA          9.9755  -29.4815   12.5282 C.3       4 GLC5        0.0000 
     67 CA         10.9550  -28.4360   10.5340 C.3      12 GLL5        0.0000 
     68 CA          9.4930  -29.9550   14.4620 C.3       8 GLP5        0.0000 
     69 CA         12.4730  -26.5920   10.8035 C.3       4 GLC5        0.0000 
     70 CA         14.2230  -25.3870   10.7300 C.3       8 GLP5        0.0000 
     71 CA         11.5648  -27.0822   14.0415 C.3       4 GLC5        0.0000 
     72 CA         10.4450  -27.0840   12.6120 C.3      12 GLL5        0.0000 
     73 CA         12.8990  -27.6710   15.1670 C.3       8 GLP5        0.0000 
     74 CA         10.0433  -24.8450   14.7035 C.3       4 GLC5        0.0000 
     75 CA         10.0160  -25.9030   13.2200 C.3      12 GLL5        0.0000 
     76 CA         10.2530  -24.3380   16.5720 C.3       8 GLP5        0.0000 
     77 CA         10.9497  -23.4102   11.8027 C.3       4 GLC5        0.0000 
     78 CA          9.6510  -24.8010   12.4500 C.3      12 GLL5        0.0000 
     79 CA         12.2240  -21.9840   11.8510 C.3       8 GLP5        0.0000 
     80 CA         11.5640  -24.8490    9.7335 C.3       4 GLC5        0.0000 
     81 CA          9.7000  -24.8720   11.0590 C.3      12 GLL5        0.0000 
     82 CA         13.2170  -24.2350    8.7130 C.3       8 GLP5        0.0000 
     83 CA         10.7808  -27.1568    8.7630 C.3       4 GLC5        0.0000 
     84 CA         10.1220  -26.0540   10.4490 C.3      12 GLL5        0.0000 
     85 CA         15.1350  -34.4393    6.6250 C.3       4 GLC5        0.0000 
     86 CA         13.4040  -35.1170    7.1980 C.3      12 GLL5        0.0000 
     87 CA         16.5001  -36.2724    5.2393 C.3       4 GLC5        0.0000 
     88 CA         14.2550  -36.8280    5.7420 C.3      12 GLL5        0.0000 
     89 CA         17.5130  -34.9210    4.2150 C.3       8 GLP5        0.0000 
     90 CA         14.6785  -36.7115    9.8920 C.3       4 GLC5        0.0000 
     91 CA         15.3120  -36.4630    7.8690 C.3      12 GLL5        0.0000 
     92 CA         15.8755  -34.6810    7.3245 C.3       4 GLC5        0.0000 
     93 CA         19.2310  -29.8300   12.8532 C.3       4 GLC5        0.0000 
     94 CA         19.4150  -31.8270   12.4790 C.3      12 GLL5        0.0000 
     95 CA         18.5690  -27.8990   12.7260 C.3       8 GLP5        0.0000 
     96 CA         22.2362  -31.4975   14.5305 C.3       4 GLC5        0.0000 
     97 CA         20.3710  -31.6950   13.4820 C.3      12 GLL5        0.0000 
     98 CA         23.7920  -30.7410   15.2980 C.3       8 GLP5        0.0000 
     99 CA         22.6210  -33.8780   13.7475 C.3       4 GLC5        0.0000 
    100 CA         20.9900  -32.8130   14.0440 C.3      12 GLL5        0.0000 
    101 CA         24.4190  -34.3060   13.6690 C.3       8 GLP5        0.0000 
    102 CA         21.2802  -31.1315   12.2961 C.3       4 GLC5        0.0000 
    103 CA         22.1190  -29.9760   11.0800 C.3       8 GLP5        0.0000 
@<TRIPOS>BOND
@<TRIPOS>SUBSTRUCTURE
     1 ALC1       43 GROUP        1 X    ALC  0     ROOT ALC X 1
     2 SEC2        1 GROUP        1 X    SEC  0     **** SEC X 2
     3 LYC4        4 GROUP        1 X    LYC  0     **** LYC X 4
     4 GLC5       15 GROUP        1 X    GLC  0     **** GLC X 6
     5 ALP1       45 GROUP        1 Y    ALP  0     ROOT ALP Y 8
     6 SEP2        3 GROUP        1 Y    SEP  0     **** SEP Y 9
     7 LYP4        6 GROUP        1 Y    LYP  0     **** LYP Y 11
     8 GLP5       17 GROUP        1 Y    GLP  0     **** GLP Y 13
     9 ALL1       44 GROUP        1 Z    ALL  0     ROOT ALL Z 15
    10 SEL2        2 GROUP        1 Z    SEL  0     **** SEL Z 16
    11 LYL4        5 GROUP        1 Z    LYL  0     **** LYL Z 18
    12 GLL5       16 GROUP        1 Z    GLL  0     **** GLL Z 20
@<TRIPOS>SET

