#    Name: 3zlo_X8U_1_ligand
#    Modification time : Tue Mar 25 03:39:14 2014

@<TRIPOS>MOLECULE
3zlo_X8U_1_ligand
   66    71     1     0     0
SMALL
NO_CHARGES


@<TRIPOS>ATOM
      1 O2          8.7650  -31.1510    6.8190 O.co2     1 X8U1198     0.0000 
      2 C20         9.3840  -32.2090    6.5020 C.2       1 X8U1198     0.0000 
      3 O1          8.9180  -32.9600    5.6190 O.co2     1 X8U1198     0.0000 
      4 C19        10.6860  -32.6750    7.1060 C.2       1 X8U1198     0.0000 
      5 N4         11.2810  -33.8560    6.7660 N.2       1 X8U1198     0.0000 
      6 C21        11.4020  -31.9310    8.0640 C.2       1 X8U1198     0.0000 
      7 C22        11.0520  -30.6070    8.6790 C.3       1 X8U1198     0.0000 
      8 C23        10.6100  -30.8470   10.1190 C.3       1 X8U1198     0.0000 
      9 C24         9.9610  -29.5800   10.6550 C.3       1 X8U1198     0.0000 
     10 C25        10.9550  -28.4360   10.5340 C.3       1 X8U1198     0.0000 
     11 C26        10.4910  -27.1580   11.2200 C.ar      1 X8U1198     0.0000 
     12 C31        10.4450  -27.0840   12.6120 C.ar      1 X8U1198     0.0000 
     13 C30        10.0160  -25.9030   13.2200 C.ar      1 X8U1198     0.0000 
     14 C29         9.6510  -24.8010   12.4500 C.ar      1 X8U1198     0.0000 
     15 C28         9.7000  -24.8720   11.0590 C.ar      1 X8U1198     0.0000 
     16 C27        10.1220  -26.0540   10.4490 C.ar      1 X8U1198     0.0000 
     17 S2         12.8500  -32.7850    8.5250 S.3       1 X8U1198     0.0000 
     18 C18        12.4450  -34.0800    7.4360 C.2       1 X8U1198     0.0000 
     19 C15        13.4040  -35.1170    7.1980 C.ar      1 X8U1198     0.0000 
     20 C16        13.3440  -35.8120    6.0040 C.ar      1 X8U1198     0.0000 
     21 C17        14.2550  -36.8280    5.7420 C.ar      1 X8U1198     0.0000 
     22 C12        15.2420  -37.1510    6.6620 C.ar      1 X8U1198     0.0000 
     23 C11        16.2260  -38.2580    6.3250 C.3       1 X8U1198     0.0000 
     24 C10        16.6510  -39.0450    7.5620 C.3       1 X8U1198     0.0000 
     25 C9         17.1500  -38.1490    8.6900 C.3       1 X8U1198     0.0000 
     26 C14        14.3980  -35.4330    8.1310 C.ar      1 X8U1198     0.0000 
     27 C13        15.3120  -36.4630    7.8690 C.ar      1 X8U1198     0.0000 
     28 C8         16.4220  -36.8230    8.8110 C.2       1 X8U1198     0.0000 
     29 N3         16.8080  -36.0010    9.6820 N.2       1 X8U1198     0.0000 
     30 N2         17.8100  -36.2560   10.5090 N.pl3     1 X8U1198     0.0000 
     31 C7         18.3820  -35.2210   11.1660 C.2       1 X8U1198     0.0000 
     32 S1         17.9650  -33.5530   10.8620 S.3       1 X8U1198     0.0000 
     33 C4         19.0920  -33.1100   12.0460 C.ar      1 X8U1198     0.0000 
     34 C3         19.4150  -31.8270   12.4790 C.ar      1 X8U1198     0.0000 
     35 C2         20.3710  -31.6950   13.4820 C.ar      1 X8U1198     0.0000 
     36 N1         19.2590  -35.4410   12.0550 N.2       1 X8U1198     0.0000 
     37 C5         19.7000  -34.2400   12.6000 C.ar      1 X8U1198     0.0000 
     38 C6         20.6560  -34.0870   13.6080 C.ar      1 X8U1198     0.0000 
     39 C1         20.9900  -32.8130   14.0440 C.ar      1 X8U1198     0.0000 
     40 H          10.2410  -30.1455    8.1315 H         1 X8U1198     0.0000 
     41 H          11.9162  -29.9562    8.6773 H         1 X8U1198     0.0000 
     42 H          11.4727  -31.0955   10.7229 H         1 X8U1198     0.0000 
     43 H           9.8953  -31.6589   10.1448 H         1 X8U1198     0.0000 
     44 H           9.6969  -29.7212   11.6939 H         1 X8U1198     0.0000 
     45 H           9.0770  -29.3539   10.0750 H         1 X8U1198     0.0000 
     46 H          11.1339  -28.2257    9.4682 H         1 X8U1198     0.0000 
     47 H          11.9170  -28.7474   10.9697 H         1 X8U1198     0.0000 
     48 H          10.7224  -27.8859   13.1815 H         1 X8U1198     0.0000 
     49 H           9.9693  -25.8470   14.2486 H         1 X8U1198     0.0000 
     50 H           9.3447  -23.9331   12.9087 H         1 X8U1198     0.0000 
     51 H           9.4296  -24.0665   10.4904 H         1 X8U1198     0.0000 
     52 H          10.1617  -26.1128    9.4211 H         1 X8U1198     0.0000 
     53 H          12.6234  -35.5783    5.3053 H         1 X8U1198     0.0000 
     54 H          14.1958  -37.3490    4.8504 H         1 X8U1198     0.0000 
     55 H          17.1150  -37.8223    5.8563 H         1 X8U1198     0.0000 
     56 H          15.7667  -38.9445    5.6056 H         1 X8U1198     0.0000 
     57 H          17.4465  -39.7482    7.2830 H         1 X8U1198     0.0000 
     58 H          15.7976  -39.6343    7.9220 H         1 X8U1198     0.0000 
     59 H          18.2291  -37.9558    8.5400 H         1 X8U1198     0.0000 
     60 H          17.0609  -38.6981    9.6464 H         1 X8U1198     0.0000 
     61 H          14.4590  -34.9086    9.0119 H         1 X8U1198     0.0000 
     62 H          18.1573  -37.2196   10.6586 H         1 X8U1198     0.0000 
     63 H          18.9664  -31.0116   12.0750 H         1 X8U1198     0.0000 
     64 H          20.6293  -30.7501   13.8191 H         1 X8U1198     0.0000 
     65 H          21.1036  -34.9114   14.0184 H         1 X8U1198     0.0000 
     66 H          21.6950  -32.6878   14.7829 H         1 X8U1198     0.0000 
@<TRIPOS>BOND
     1    2    1 ar   
     2    3    2 ar   
     3    4    2 1    
     4    5    4 1    
     5    6    4 2    
     6   18    5 2    
     7    7    6 1    
     8   17    6 1    
     9    8    7 1    
    10   40    7 1    
    11   41    7 1    
    12    9    8 1    
    13   42    8 1    
    14   43    8 1    
    15   10    9 1    
    16   44    9 1    
    17   45    9 1    
    18   11   10 1    
    19   46   10 1    
    20   47   10 1    
    21   12   11 ar   
    22   16   11 ar   
    23   13   12 ar   
    24   48   12 1    
    25   14   13 ar   
    26   49   13 1    
    27   15   14 ar   
    28   50   14 1    
    29   16   15 ar   
    30   51   15 1    
    31   52   16 1    
    32   18   17 1    
    33   19   18 1    
    34   20   19 ar   
    35   26   19 ar   
    36   21   20 ar   
    37   53   20 1    
    38   22   21 ar   
    39   54   21 1    
    40   23   22 1    
    41   27   22 ar   
    42   24   23 1    
    43   55   23 1    
    44   56   23 1    
    45   25   24 1    
    46   57   24 1    
    47   58   24 1    
    48   28   25 1    
    49   59   25 1    
    50   60   25 1    
    51   27   26 ar   
    52   61   26 1    
    53   28   27 1    
    54   29   28 2    
    55   30   29 1    
    56   31   30 1    
    57   62   30 1    
    58   32   31 1    
    59   36   31 2    
    60   33   32 1    
    61   34   33 ar   
    62   37   33 ar   
    63   35   34 ar   
    64   63   34 1    
    65   39   35 ar   
    66   64   35 1    
    67   37   36 1    
    68   38   37 ar   
    69   39   38 ar   
    70   65   38 1    
    71   66   39 1    
@<TRIPOS>SUBSTRUCTURE
     1 X8U1198     1 GROUP   
@<TRIPOS>SET

