#    Name: 3a8t_ATP_1_INTS_M
#    Modification time : Tue Mar 25 11:38:32 2014

@<TRIPOS>MOLECULE
3a8t_ATP_1_INTS_M
   73     0    12     0     0
SMALL
NO_CHARGES


@<TRIPOS>ATOM
      1 NZ         30.3165   30.9230   19.2635 N.4       3 LYC4        0.0000 
      2 NZ         29.5650   30.6430   17.5550 N.4      11 LYL4        0.0000 
      3 NZ         31.0680   31.2030   20.9720 N.4       7 LYP4        0.0000 
      4 NZ         29.6785   31.3585   20.2605 N.4       3 LYC4        0.0000 
      5 NZ         28.2890   31.5140   19.5490 N.4      11 LYL4        0.0000 
      6 NZ         29.1735   32.7815   20.7930 N.4       3 LYC4        0.0000 
      7 NZ         30.0580   34.0490   22.0370 N.4       7 LYP4        0.0000 
      8 N          29.6785   31.3585   20.2605 N.am      2 SEC2        0.0000 
      9 N          28.2890   31.5140   19.5490 N.am     10 SEL2        0.0000 
     10 N          31.0680   31.2030   20.9720 N.am      6 SEP2        0.0000 
     11 NZ         26.4900   29.1570   16.6245 N.4       3 LYC4        0.0000 
     12 NZ         27.0110   30.6420   17.4200 N.4      11 LYL4        0.0000 
     13 NZ         25.9690   27.6720   15.8290 N.4       7 LYP4        0.0000 
     14 NZ         27.7090   27.4005   16.7310 N.4       3 LYC4        0.0000 
     15 NZ         29.4490   27.1290   17.6330 N.4      11 LYL4        0.0000 
     16 N          30.6695   26.3940   16.8810 N.am      2 SEC2        0.0000 
     17 N          29.4490   27.1290   17.6330 N.am     10 SEL2        0.0000 
     18 N          31.8900   25.6590   16.1290 N.am      6 SEP2        0.0000 
     19 NZ         30.9105   30.0450   19.8180 N.4       3 LYC4        0.0000 
     20 NZ         30.7530   28.8870   18.6640 N.4      11 LYL4        0.0000 
     21 N          31.9350   28.5180   18.1125 N.am      2 SEC2        0.0000 
     22 N          30.7530   28.8870   18.6640 N.am     10 SEL2        0.0000 
     23 N          33.1170   28.1490   17.5610 N.am      6 SEP2        0.0000 
     24 N          30.2560   25.2615   21.8920 N.am      2 SEC2        0.0000 
     25 N          28.8360   25.3650   21.9150 N.am     10 SEL2        0.0000 
     26 N          31.6760   25.1580   21.8690 N.am      6 SEP2        0.0000 
     27 N          30.7035   26.0870   20.9770 N.am      2 SEC2        0.0000 
     28 N          29.7310   27.0160   20.0850 N.am     10 SEL2        0.0000 
     29 CA         29.9945   30.3820   25.0990 C.3       4 GLC5        0.0000 
     30 CA         28.1130   30.0600   24.0530 C.3      12 GLL5        0.0000 
     31 CA         31.8760   30.7040   26.1450 C.3       8 GLP5        0.0000 
     32 CA         28.9775   29.3295   26.4470 C.3       4 GLC5        0.0000 
     33 CA         27.4260   29.9680   25.4260 C.3      12 GLL5        0.0000 
     34 CA         30.5290   28.6910   27.4680 C.3       8 GLP5        0.0000 
     35 CA         28.4025   31.8900   25.9330 C.3       4 GLC5        0.0000 
     36 CA         29.3790   33.8120   26.4400 C.3       8 GLP5        0.0000 
     37 CA         27.6925   30.4325   27.5505 C.3       4 GLC5        0.0000 
     38 CA         27.9590   30.8970   29.6750 C.3       8 GLP5        0.0000 
     39 CA         24.9070   28.9105   26.6145 C.3       4 GLC5        0.0000 
     40 CA         26.4880   28.7890   25.3080 C.3      12 GLL5        0.0000 
     41 CA         23.3260   29.0320   27.9210 C.3       8 GLP5        0.0000 
     42 CA         25.3105   27.4395   24.8640 C.3       4 GLC5        0.0000 
     43 CA         24.1330   26.0900   24.4200 C.3       8 GLP5        0.0000 
     44 CA         29.8200   26.5590   28.3825 C.3       4 GLC5        0.0000 
     45 CA         28.2470   25.5070   28.6170 C.3      12 GLL5        0.0000 
     46 CA         31.3930   27.6110   28.1480 C.3       8 GLP5        0.0000 
     47 CA         28.8545   25.2775   30.5815 C.3       4 GLC5        0.0000 
     48 CA         29.4620   25.0480   32.5460 C.3       8 GLP5        0.0000 
     49 O          29.6195   23.5650   27.5360 O.2       1 ALC1        0.0000 
     50 O          28.9850   24.3690   28.8260 O.2       9 ALL1        0.0000 
     51 O          30.2540   22.7610   26.2460 O.2       5 ALP1        0.0000 
     52 O          29.2400   23.7670   29.9725 O.2       1 ALC1        0.0000 
     53 O          29.4950   23.1650   31.1190 O.2       5 ALP1        0.0000 
     54 CA         28.7760   27.9860   28.4935 C.3       4 GLC5        0.0000 
     55 CA         27.0230   27.2810   29.5190 C.3      12 GLL5        0.0000 
     56 CA         28.2425   26.1645   31.0325 C.3       4 GLC5        0.0000 
     57 CA         27.4910   29.0890   29.5970 C.3       4 GLC5        0.0000 
     58 CA         25.6195   28.7670   29.7570 C.3       4 GLC5        0.0000 
     59 CA         24.2160   30.2530   29.9950 C.3       8 GLP5        0.0000 
     60 N          26.1990   28.9570   28.9765 N.am      2 SEC2        0.0000 
     61 N          26.7600   27.8100   28.3220 N.am     10 SEL2        0.0000 
     62 N          25.6380   30.1040   29.6310 N.am      6 SEP2        0.0000 
     63 CA         27.5815   29.0745   28.4410 C.3       4 GLC5        0.0000 
     64 CA         27.2040   27.2520   27.2070 C.3      12 GLL5        0.0000 
     65 CA         25.2650   28.1420   27.5640 C.3       4 GLC5        0.0000 
     66 CA         25.6685   26.6710   25.8135 C.3       4 GLC5        0.0000 
     67 CA         25.5932   28.1060   22.2545 C.3       4 GLC5        0.0000 
     68 CA         27.4870   28.9250   21.8210 C.3      12 GLL5        0.0000 
     69 CA         23.9460   26.9560   22.0520 C.3       8 GLP5        0.0000 
     70 CA         29.4494   29.9495   22.6585 C.3       4 GLC5        0.0000 
     71 CA         26.9940   29.5870   23.0930 C.3      12 GLL5        0.0000 
     72 CA         31.2220   30.2410   22.0620 C.3       8 GLP5        0.0000 
     73 CA         29.0625   27.6672   27.3582 C.3       4 GLC5        0.0000 
@<TRIPOS>BOND
@<TRIPOS>SUBSTRUCTURE
     1 ALC1       49 GROUP        1 X    ALC  0     ROOT ALC X 1
     2 SEC2        8 GROUP        1 X    SEC  0     **** SEC X 2
     3 LYC4        1 GROUP        1 X    LYC  0     **** LYC X 4
     4 GLC5       29 GROUP        1 X    GLC  0     **** GLC X 6
     5 ALP1       51 GROUP        1 Y    ALP  0     ROOT ALP Y 8
     6 SEP2       10 GROUP        1 Y    SEP  0     **** SEP Y 9
     7 LYP4        3 GROUP        1 Y    LYP  0     **** LYP Y 11
     8 GLP5       31 GROUP        1 Y    GLP  0     **** GLP Y 13
     9 ALL1       50 GROUP        1 Z    ALL  0     ROOT ALL Z 15
    10 SEL2        9 GROUP        1 Z    SEL  0     **** SEL Z 16
    11 LYL4        2 GROUP        1 Z    LYL  0     **** LYL Z 18
    12 GLL5       30 GROUP        1 Z    GLL  0     **** GLL Z 20
@<TRIPOS>SET

