#    Name: 3a8t_ATP_1_ligand
#    Modification time : Tue Mar 25 11:38:32 2014

@<TRIPOS>MOLECULE
3a8t_ATP_1_ligand
   43    45     1     0     0
SMALL
NO_CHARGES


@<TRIPOS>ATOM
      1 PG         28.3140   30.4150   18.3450 P.3       1 ATP800      0.0000 
      2 O1G        29.5650   30.6430   17.5550 O.co2     1 ATP800      0.0000 
      3 O2G        28.2890   31.5140   19.5490 O.co2     1 ATP800      0.0000 
      4 O3G        27.0110   30.6420   17.4200 O.co2     1 ATP800      0.0000 
      5 PB         29.5050   27.9710   18.7890 P.3       1 ATP800      0.0000 
      6 O1B        29.4490   27.1290   17.6330 O.co2     1 ATP800      0.0000 
      7 O2B        30.7530   28.8870   18.6640 O.co2     1 ATP800      0.0000 
      8 O3B        28.1860   28.8600   18.9310 O.3       1 ATP800      0.0000 
      9 PA         28.4490   26.6990   21.0740 P.3       1 ATP800      0.0000 
     10 O1A        27.1980   26.4090   20.3900 O.co2     1 ATP800      0.0000 
     11 O2A        28.8360   25.3650   21.9150 O.co2     1 ATP800      0.0000 
     12 O3A        29.7310   27.0160   20.0850 O.3       1 ATP800      0.0000 
     13 O5'        28.2870   27.8450   22.2160 O.3       1 ATP800      0.0000 
     14 C5'        27.4870   28.9250   21.8210 C.3       1 ATP800      0.0000 
     15 C4'        26.9940   29.5870   23.0930 C.3       1 ATP800      0.0000 
     16 O4'        26.2520   28.6260   23.8540 O.3       1 ATP800      0.0000 
     17 C3'        28.1130   30.0600   24.0530 C.3       1 ATP800      0.0000 
     18 O3'        28.5460   31.3760   23.7190 O.3       1 ATP800      0.0000 
     19 C2'        27.4260   29.9680   25.4260 C.3       1 ATP800      0.0000 
     20 O2'        26.7140   31.1280   25.6860 O.3       1 ATP800      0.0000 
     21 C1'        26.4880   28.7890   25.3080 C.3       1 ATP800      0.0000 
     22 N9         27.1100   27.5640   25.8820 N.pl3     1 ATP800      0.0000 
     23 C8         27.7900   26.5690   25.1810 C.2       1 ATP800      0.0000 
     24 N7         28.3010   25.6830   26.0110 N.2       1 ATP800      0.0000 
     25 C5         27.9880   26.0350   27.2900 C.ar      1 ATP800      0.0000 
     26 C6         28.2470   25.5070   28.6170 C.ar      1 ATP800      0.0000 
     27 N6         28.9850   24.3690   28.8260 N.pl3     1 ATP800      0.0000 
     28 N1         27.7400   26.1760   29.6740 N.ar      1 ATP800      0.0000 
     29 C2         27.0230   27.2810   29.5190 C.ar      1 ATP800      0.0000 
     30 N3         26.7600   27.8100   28.3220 N.ar      1 ATP800      0.0000 
     31 C4         27.2040   27.2520   27.2070 C.ar      1 ATP800      0.0000 
     32 H          26.6164   28.6130   21.2476 H         1 ATP800      0.0000 
     33 H          28.0399   29.6683   21.2500 H         1 ATP800      0.0000 
     34 H          26.3767   30.4290   22.8598 H         1 ATP800      0.0000 
     35 H          28.8807   29.3230   24.0209 H         1 ATP800      0.0000 
     36 H          28.1721   29.7363   26.1458 H         1 ATP800      0.0000 
     37 H          25.5756   29.0238   25.7985 H         1 ATP800      0.0000 
     38 H          27.8545   26.5673   24.2049 H         1 ATP800      0.0000 
     39 H          29.3035   23.8943   28.0055 H         1 ATP800      0.0000 
     40 H          29.1397   24.1141   29.7805 H         1 ATP800      0.0000 
     41 H          26.6385   27.7706   30.3857 H         1 ATP800      0.0000 
     42 H          29.3777   31.5187   24.2556 H         1 ATP800      0.0000 
     43 H          26.9394   31.7445   24.9316 H         1 ATP800      0.0000 
@<TRIPOS>BOND
     1    2    1 ar   
     2    3    1 ar   
     3    4    1 ar   
     4    8    1 1    
     5    6    5 ar   
     6    7    5 ar   
     7    8    5 1    
     8   12    5 1    
     9   10    9 ar   
    10   11    9 ar   
    11   12    9 1    
    12   13    9 1    
    13   14   13 1    
    14   15   14 1    
    15   32   14 1    
    16   33   14 1    
    17   16   15 1    
    18   17   15 1    
    19   34   15 1    
    20   21   16 1    
    21   18   17 1    
    22   19   17 1    
    23   35   17 1    
    24   42   18 1    
    25   20   19 1    
    26   21   19 1    
    27   36   19 1    
    28   43   20 1    
    29   22   21 1    
    30   37   21 1    
    31   23   22 1    
    32   31   22 1    
    33   24   23 2    
    34   38   23 1    
    35   25   24 1    
    36   26   25 ar   
    37   31   25 ar   
    38   27   26 1    
    39   28   26 ar   
    40   39   27 1    
    41   40   27 1    
    42   29   28 ar   
    43   30   29 ar   
    44   41   29 1    
    45   31   30 ar   
@<TRIPOS>SUBSTRUCTURE
     1 ATP800      1 GROUP   
@<TRIPOS>SET

