#    Name: 3nta_FAD_3_INTS_M
#    Modification time : Tue Mar 25 02:23:35 2014

@<TRIPOS>MOLECULE
3nta_FAD_3_INTS_M
  123     0    12     0     0
SMALL
NO_CHARGES


@<TRIPOS>ATOM
      1 NZ          7.4415  -49.2515   27.6210 N.4       3 LYC4        0.0000 
      2 NZ          8.2970  -48.1510   26.8010 N.4      11 LYL4        0.0000 
      3 NZ          5.6820  -49.7670   29.2400 N.4       7 LYP4        0.0000 
      4 N           7.4415  -49.2515   27.6210 N.am      2 SEC2        0.0000 
      5 N           8.2970  -48.1510   26.8010 N.am     10 SEL2        0.0000 
      6 N           6.5860  -50.3520   28.4410 N.am      6 SEP2        0.0000 
      7 N           8.7455  -45.5800   25.2745 N.am      2 SEC2        0.0000 
      8 N           9.4410  -46.9430   24.7590 N.am     10 SEL2        0.0000 
      9 N           8.0500  -44.2170   25.7900 N.am      6 SEP2        0.0000 
     10 CA          8.4970  -52.2850   25.3585 C.3       4 GLC5        0.0000 
     11 CA          8.0000  -50.4270   24.7040 C.3      12 GLL5        0.0000 
     12 CA          8.9940  -54.1430   26.0130 C.3       8 GLP5        0.0000 
     13 CA          9.0110  -50.8325   26.5075 C.3       4 GLC5        0.0000 
     14 CA         10.0220  -51.2380   28.3110 C.3       8 GLP5        0.0000 
     15 CA          7.2090  -52.0570   22.5390 C.3       4 GLC5        0.0000 
     16 CA          6.7310  -50.8120   23.9400 C.3      12 GLL5        0.0000 
     17 CA          7.6870  -53.3020   21.1380 C.3       8 GLP5        0.0000 
     18 O           4.5790  -49.9820   22.5795 O.2       1 ALC1        0.0000 
     19 O           4.7150  -49.2240   23.6360 O.2       9 ALL1        0.0000 
     20 O           4.4430  -50.7400   21.5230 O.2       5 ALP1        0.0000 
     21 O           3.5530  -50.2330   22.8795 O.2       1 ALC1        0.0000 
     22 O           2.3910  -51.2420   22.1230 O.2       5 ALP1        0.0000 
     23 O           2.7970  -51.1470   23.5420 O.2       1 ALC1        0.0000 
     24 O           3.2030  -51.0520   24.9610 O.2       9 ALL1        0.0000 
     25 CA          6.4615  -52.8865   22.6795 C.3       4 GLC5        0.0000 
     26 CA          5.2360  -52.4710   24.2210 C.3      12 GLL5        0.0000 
     27 CA          7.1150  -53.3070   25.1170 C.3       4 GLC5        0.0000 
     28 CA          6.5605  -55.7335   25.7695 C.3       4 GLC5        0.0000 
     29 CA          4.5310  -55.9480   24.8840 C.3      12 GLL5        0.0000 
     30 CA          8.5900  -55.5190   26.6550 C.3       8 GLP5        0.0000 
     31 CA          2.2420  -57.6410   24.7020 C.3       4 GLC5        0.0000 
     32 CA          4.0860  -57.1780   24.4120 C.3      12 GLL5        0.0000 
     33 CA          0.3980  -58.1040   24.9920 C.3       8 GLP5        0.0000 
     34 O           3.4295  -59.5735   25.0810 O.2       1 ALC1        0.0000 
     35 O           4.0090  -58.2510   25.2140 O.2       9 ALL1        0.0000 
     36 O           2.8500  -60.8960   24.9480 O.2       5 ALP1        0.0000 
     37 N           2.9235  -58.5320   22.7425 N.am      2 SEC2        0.0000 
     38 N           3.6250  -57.2420   23.0990 N.am     10 SEL2        0.0000 
     39 N           2.2220  -59.8220   22.3860 N.am      6 SEP2        0.0000 
     40 CA          5.3985  -56.9960   22.4965 C.3       4 GLC5        0.0000 
     41 CA          3.5280  -56.1210   22.2910 C.3      12 GLL5        0.0000 
     42 CA          7.2690  -57.8710   22.7020 C.3       8 GLP5        0.0000 
     43 CA          3.7240  -56.7310   20.2390 C.3       4 GLC5        0.0000 
     44 CA          3.9200  -57.3410   18.1870 C.3       8 GLP5        0.0000 
     45 CA          3.1930  -54.6425   20.9270 C.3       4 GLC5        0.0000 
     46 CA          2.8580  -53.1640   19.5630 C.3       8 GLP5        0.0000 
     47 CA          2.0040  -55.2410   22.9210 C.3       4 GLC5        0.0000 
     48 CA          0.4800  -54.3610   23.5510 C.3       8 GLP5        0.0000 
     49 CA          1.8955  -57.1895   22.3160 C.3       4 GLC5        0.0000 
     50 CA          0.2630  -58.2580   22.3410 C.3       8 GLP5        0.0000 
     51 N           2.6885  -54.1830   22.1120 N.am      2 SEC2        0.0000 
     52 N           3.9810  -54.9170   22.7460 N.am     10 SEL2        0.0000 
     53 N           1.3960  -53.4490   21.4780 N.am      6 SEP2        0.0000 
     54 N          16.5660  -41.6455   27.4145 N.am      2 SEC2        0.0000 
     55 N          16.5790  -40.3460   27.9480 N.am     10 SEL2        0.0000 
     56 N          16.5530  -42.9450   26.8810 N.am      6 SEP2        0.0000 
     57 O          16.3295  -37.6030   28.3035 O.2       1 ALC1        0.0000 
     58 O          15.2840  -38.4930   28.4900 O.2       9 ALL1        0.0000 
     59 O          17.3750  -36.7130   28.1170 O.2       5 ALP1        0.0000 
     60 CA          6.5980  -37.3695   30.1910 C.3       4 GLC5        0.0000 
     61 CA          7.0760  -39.1600   30.8480 C.3      12 GLL5        0.0000 
     62 CA          6.1200  -35.5790   29.5340 C.3       8 GLP5        0.0000 
     63 CA          5.3990  -38.5960   31.2245 C.3       4 GLC5        0.0000 
     64 CA          3.7220  -38.0320   31.6010 C.3       8 GLP5        0.0000 
     65 CA          5.6725  -43.0660   30.5495 C.3       4 GLC5        0.0000 
     66 CA          7.6270  -42.1530   30.4340 C.3      12 GLL5        0.0000 
     67 CA          3.7180  -43.9790   30.6650 C.3       8 GLP5        0.0000 
     68 CA         11.5200  -39.7080   27.8040 C.3       4 GLC5        0.0000 
     69 CA         10.9090  -40.6150   29.5820 C.3      12 GLL5        0.0000 
     70 CA         12.1310  -38.8010   26.0260 C.3       8 GLP5        0.0000 
     71 CA         12.7655  -41.6165   31.0645 C.3       4 GLC5        0.0000 
     72 CA         12.3720  -42.5360   29.1110 C.3      12 GLL5        0.0000 
     73 CA         13.1590  -40.6970   33.0180 C.3       8 GLP5        0.0000 
     74 CA         13.8525  -42.5815   26.4350 C.3       4 GLC5        0.0000 
     75 CA         12.4290  -43.2060   27.7130 C.3      12 GLL5        0.0000 
     76 CA         15.2760  -41.9570   25.1570 C.3       8 GLP5        0.0000 
     77 CA         12.3140  -42.2250   25.7595 C.3       4 GLC5        0.0000 
     78 CA         12.1990  -41.2440   23.8060 C.3       8 GLP5        0.0000 
     79 O          14.0925  -46.2100   28.9315 O.2       1 ALC1        0.0000 
     80 O          14.0050  -44.8820   28.2900 O.2       9 ALL1        0.0000 
     81 O          14.1800  -47.5380   29.5730 O.2       5 ALP1        0.0000 
     82 O          12.9555  -45.9730   29.0775 O.2       1 ALC1        0.0000 
     83 O          11.9060  -47.0640   29.8650 O.2       5 ALP1        0.0000 
     84 CA         12.8005  -48.1775   28.2665 C.3       4 GLC5        0.0000 
     85 CA         12.7280  -46.9190   26.6220 C.3      12 GLL5        0.0000 
     86 CA         12.8730  -49.4360   29.9110 C.3       8 GLP5        0.0000 
     87 N          12.6565  -49.1135   22.6240 N.am      2 SEC2        0.0000 
     88 N          11.9160  -49.4330   23.8800 N.am     10 SEL2        0.0000 
     89 N          13.3970  -48.7940   21.3680 N.am      6 SEP2        0.0000 
     90 N          13.7650  -50.1145   27.3415 N.am      2 SEC2        0.0000 
     91 N          12.7730  -49.9400   26.3400 N.am     10 SEL2        0.0000 
     92 N          14.7570  -50.2890   28.3430 N.am      6 SEP2        0.0000 
     93 N          12.8625  -51.2440   26.5045 N.am      2 SEC2        0.0000 
     94 N          12.9520  -52.5480   26.6690 N.am      6 SEP2        0.0000 
     95 CA          6.8191  -49.1194   23.3188 C.3       4 GLC5        0.0000 
     96 CA          7.2200  -47.8750   22.2500 C.3       8 GLP5        0.0000 
     97 CA          3.3210  -52.6098   25.0330 C.3       4 GLC5        0.0000 
     98 CA          4.6180  -51.2880   24.9510 C.3      12 GLL5        0.0000 
     99 CA          1.7150  -53.3400   25.4800 C.3       8 GLP5        0.0000 
    100 CA          3.1147  -54.3690   24.9693 C.3       4 GLC5        0.0000 
    101 CA          5.8361  -56.7882   23.5213 C.3       4 GLC5        0.0000 
    102 CA          4.4980  -54.8480   24.0330 C.3      12 GLL5        0.0000 
    103 CA          9.8685  -38.3238   28.2957 C.3       4 GLC5        0.0000 
    104 CA         10.7250  -39.2400   29.7850 C.3      12 GLL5        0.0000 
    105 CA          9.6550  -37.6600   26.6080 C.3       8 GLP5        0.0000 
    106 CA          8.5490  -39.4123   32.3810 C.3       4 GLC5        0.0000 
    107 CA          9.4390  -38.7350   30.1820 C.3      12 GLL5        0.0000 
    108 CA          9.0980  -39.6380   34.1860 C.3       8 GLP5        0.0000 
    109 CA          8.2012  -41.7135   28.2675 C.3       4 GLC5        0.0000 
    110 CA          8.6460  -41.0830   30.2140 C.3      12 GLL5        0.0000 
    111 CA          8.2660  -41.8090   26.2110 C.3       8 GLP5        0.0000 
    112 CA          8.6647  -41.4015   32.2735 C.3       4 GLC5        0.0000 
    113 CA          9.1930  -41.1850   34.2230 C.3       8 GLP5        0.0000 
    114 CA          9.3360  -41.4502   27.9490 C.3       4 GLC5        0.0000 
    115 CA          9.9030  -41.5680   29.7920 C.3      12 GLL5        0.0000 
    116 CA         14.3708  -44.1122   26.3017 C.3       4 GLC5        0.0000 
    117 CA         12.6820  -44.7270   27.7660 C.3      12 GLL5        0.0000 
    118 CA         16.0820  -43.1470   25.5250 C.3       8 GLP5        0.0000 
    119 CA         12.8483  -45.9783   24.5042 C.3       4 GLC5        0.0000 
    120 CA         12.6370  -45.4280   26.3910 C.3      12 GLL5        0.0000 
    121 CA         13.0140  -45.7830   22.5020 C.3       8 GLP5        0.0000 
    122 CA         14.4233  -46.6808   25.5267 C.3       4 GLC5        0.0000 
    123 CA         16.1640  -47.1880   24.5470 C.3       8 GLP5        0.0000 
@<TRIPOS>BOND
@<TRIPOS>SUBSTRUCTURE
     1 ALC1       18 GROUP        1 X    ALC  0     ROOT ALC X 1
     2 SEC2        4 GROUP        1 X    SEC  0     **** SEC X 2
     3 LYC4        1 GROUP        1 X    LYC  0     **** LYC X 4
     4 GLC5       10 GROUP        1 X    GLC  0     **** GLC X 6
     5 ALP1       20 GROUP        1 Y    ALP  0     ROOT ALP Y 8
     6 SEP2        6 GROUP        1 Y    SEP  0     **** SEP Y 9
     7 LYP4        3 GROUP        1 Y    LYP  0     **** LYP Y 11
     8 GLP5       12 GROUP        1 Y    GLP  0     **** GLP Y 13
     9 ALL1       19 GROUP        1 Z    ALL  0     ROOT ALL Z 15
    10 SEL2        5 GROUP        1 Z    SEL  0     **** SEL Z 16
    11 LYL4        2 GROUP        1 Z    LYL  0     **** LYL Z 18
    12 GLL5       11 GROUP        1 Z    GLL  0     **** GLL Z 20
@<TRIPOS>SET

