#    Name: 3nta_FAD_3_ligand
#    Modification time : Tue Mar 25 02:23:35 2014

@<TRIPOS>MOLECULE
3nta_FAD_3_ligand
   84    89     1     0     0
SMALL
NO_CHARGES


@<TRIPOS>ATOM
      1 PA          9.1390  -48.2090   25.5130 P.3       1 FAD900      0.0000 
      2 O1A         8.2970  -48.1510   26.8010 O.co2     1 FAD900      0.0000 
      3 O2A         9.4410  -46.9430   24.7590 O.co2     1 FAD900      0.0000 
      4 O5B         8.4160  -49.1240   24.3940 O.3       1 FAD900      0.0000 
      5 C5B         8.0000  -50.4270   24.7040 C.3       1 FAD900      0.0000 
      6 C4B         6.7310  -50.8120   23.9400 C.3       1 FAD900      0.0000 
      7 O4B         6.6720  -52.1890   24.2430 O.3       1 FAD900      0.0000 
      8 C3B         5.4710  -50.1080   24.4530 C.3       1 FAD900      0.0000 
      9 O3B         4.7150  -49.2240   23.6360 O.3       1 FAD900      0.0000 
     10 C2B         4.6180  -51.2880   24.9510 C.3       1 FAD900      0.0000 
     11 O2B         3.2030  -51.0520   24.9610 O.3       1 FAD900      0.0000 
     12 C1B         5.2360  -52.4710   24.2210 C.3       1 FAD900      0.0000 
     13 N9A         5.0320  -53.8300   24.7450 N.pl3     1 FAD900      0.0000 
     14 C8A         5.3890  -54.2630   25.9980 C.2       1 FAD900      0.0000 
     15 N7A         5.1400  -55.5850   26.0250 N.2       1 FAD900      0.0000 
     16 C5A         4.5310  -55.9480   24.8840 C.ar      1 FAD900      0.0000 
     17 C6A         4.0860  -57.1780   24.4120 C.ar      1 FAD900      0.0000 
     18 N6A         4.0090  -58.2510   25.2140 N.pl3     1 FAD900      0.0000 
     19 N1A         3.6250  -57.2420   23.0990 N.ar      1 FAD900      0.0000 
     20 C2A         3.5280  -56.1210   22.2910 C.ar      1 FAD900      0.0000 
     21 N3A         3.9810  -54.9170   22.7460 N.ar      1 FAD900      0.0000 
     22 C4A         4.4980  -54.8480   24.0330 C.ar      1 FAD900      0.0000 
     23 N1         14.4250  -40.7050   28.5960 N.2       1 FAD900      0.0000 
     24 C2         15.4600  -39.8720   28.2740 C.2       1 FAD900      0.0000 
     25 O2         16.5790  -40.3460   27.9480 O.2       1 FAD900      0.0000 
     26 N3         15.2840  -38.4930   28.4900 N.am      1 FAD900      0.0000 
     27 C4         14.0620  -37.9550   28.8840 C.2       1 FAD900      0.0000 
     28 O4         13.9310  -36.7120   28.9930 O.2       1 FAD900      0.0000 
     29 C4X        12.9790  -38.8210   29.0820 C.2       1 FAD900      0.0000 
     30 N5         11.7990  -38.3340   29.4710 N.2       1 FAD900      0.0000 
     31 C5X        10.7250  -39.2400   29.7850 C.ar      1 FAD900      0.0000 
     32 C6          9.4390  -38.7350   30.1820 C.ar      1 FAD900      0.0000 
     33 C7          8.4090  -39.6910   30.4260 C.ar      1 FAD900      0.0000 
     34 C7M         7.0760  -39.1600   30.8480 C.3       1 FAD900      0.0000 
     35 C8          8.6460  -41.0830   30.2140 C.ar      1 FAD900      0.0000 
     36 C8M         7.6270  -42.1530   30.4340 C.3       1 FAD900      0.0000 
     37 C9          9.9030  -41.5680   29.7920 C.ar      1 FAD900      0.0000 
     38 C9A        10.9090  -40.6150   29.5820 C.ar      1 FAD900      0.0000 
     39 N10        12.1470  -41.0720   29.1990 N.pl3     1 FAD900      0.0000 
     40 C10        13.1740  -40.2010   28.9830 C.2       1 FAD900      0.0000 
     41 C1'        12.3720  -42.5360   29.1110 C.3       1 FAD900      0.0000 
     42 C2'        12.4290  -43.2060   27.7130 C.3       1 FAD900      0.0000 
     43 O2'        11.1950  -42.8700   27.1970 O.3       1 FAD900      0.0000 
     44 C3'        12.6820  -44.7270   27.7660 C.3       1 FAD900      0.0000 
     45 O3'        14.0050  -44.8820   28.2900 O.3       1 FAD900      0.0000 
     46 C4'        12.6370  -45.4280   26.3910 C.3       1 FAD900      0.0000 
     47 O4'        11.3810  -45.1920   25.6960 O.3       1 FAD900      0.0000 
     48 C5'        12.7280  -46.9190   26.6220 C.3       1 FAD900      0.0000 
     49 O5'        12.5840  -47.5630   25.3960 O.3       1 FAD900      0.0000 
     50 P          11.9860  -49.0570   25.3400 P.3       1 FAD900      0.0000 
     51 O1P        11.9160  -49.4330   23.8800 O.co2     1 FAD900      0.0000 
     52 O2P        12.7730  -49.9400   26.3400 O.co2     1 FAD900      0.0000 
     53 O3P        10.4930  -48.9500   25.9640 O.3       1 FAD900      0.0000 
     54 H           7.7803  -50.5505   25.7822 H         1 FAD900      0.0000 
     55 H           8.7706  -51.1823   24.4556 H         1 FAD900      0.0000 
     56 H           6.8827  -50.6416   22.9185 H         1 FAD900      0.0000 
     57 H           5.7841  -49.6068   25.4144 H         1 FAD900      0.0000 
     58 H           4.9962  -51.4089   26.0348 H         1 FAD900      0.0000 
     59 H           4.9233  -52.4148   23.1711 H         1 FAD900      0.0000 
     60 H           5.7400  -53.7240   26.6947 H         1 FAD900      0.0000 
     61 H           4.3259  -58.1217   26.1536 H         1 FAD900      0.0000 
     62 H           3.6416  -59.0840   24.8004 H         1 FAD900      0.0000 
     63 H           3.1132  -56.2059   21.3500 H         1 FAD900      0.0000 
     64 H          16.0975  -37.8597   28.3490 H         1 FAD900      0.0000 
     65 H           9.2793  -37.7581   30.2810 H         1 FAD900      0.0000 
     66 H          10.0629  -42.5452   29.6511 H         1 FAD900      0.0000 
     67 H          11.5791  -43.0768   29.7037 H         1 FAD900      0.0000 
     68 H          13.3290  -42.8043   29.6444 H         1 FAD900      0.0000 
     69 H          13.2297  -42.7222   27.1768 H         1 FAD900      0.0000 
     70 H          11.9651  -45.1747   28.4163 H         1 FAD900      0.0000 
     71 H          13.4722  -45.1197   25.8132 H         1 FAD900      0.0000 
     72 H          11.9426  -47.1943   27.3365 H         1 FAD900      0.0000 
     73 H          13.6965  -47.1249   27.0940 H         1 FAD900      0.0000 
     74 H           7.1359  -38.6414   31.7009 H         1 FAD900      0.0000 
     75 H           6.6851  -38.5485   30.1600 H         1 FAD900      0.0000 
     76 H           6.4140  -39.8945   30.9974 H         1 FAD900      0.0000 
     77 H           7.9906  -43.0608   30.2248 H         1 FAD900      0.0000 
     78 H           7.3108  -42.1753   31.3824 H         1 FAD900      0.0000 
     79 H           6.8197  -42.0209   29.8589 H         1 FAD900      0.0000 
     80 H           4.1278  -49.8183   23.0864 H         1 FAD900      0.0000 
     81 H           2.9831  -50.7585   24.0307 H         1 FAD900      0.0000 
     82 H          10.9815  -43.5961   26.5435 H         1 FAD900      0.0000 
     83 H          14.0113  -45.7883   28.7126 H         1 FAD900      0.0000 
     84 H          10.9867  -46.1006   25.5586 H         1 FAD900      0.0000 
@<TRIPOS>BOND
     1    2    1 ar   
     2    3    1 ar   
     3    4    1 1    
     4   53    1 1    
     5    5    4 1    
     6    6    5 1    
     7   54    5 1    
     8   55    5 1    
     9    7    6 1    
    10    8    6 1    
    11   56    6 1    
    12   12    7 1    
    13    9    8 1    
    14   10    8 1    
    15   57    8 1    
    16   80    9 1    
    17   11   10 1    
    18   12   10 1    
    19   58   10 1    
    20   81   11 1    
    21   13   12 1    
    22   59   12 1    
    23   14   13 1    
    24   22   13 1    
    25   15   14 2    
    26   60   14 1    
    27   16   15 1    
    28   17   16 ar   
    29   22   16 ar   
    30   18   17 1    
    31   19   17 ar   
    32   61   18 1    
    33   62   18 1    
    34   20   19 ar   
    35   21   20 ar   
    36   63   20 1    
    37   22   21 ar   
    38   24   23 1    
    39   40   23 2    
    40   25   24 2    
    41   26   24 am   
    42   27   26 am   
    43   64   26 1    
    44   28   27 2    
    45   29   27 1    
    46   30   29 2    
    47   40   29 1    
    48   31   30 1    
    49   32   31 ar   
    50   38   31 ar   
    51   33   32 ar   
    52   65   32 1    
    53   34   33 1    
    54   35   33 ar   
    55   74   34 1    
    56   75   34 1    
    57   76   34 1    
    58   36   35 1    
    59   37   35 ar   
    60   77   36 1    
    61   78   36 1    
    62   79   36 1    
    63   38   37 ar   
    64   66   37 1    
    65   39   38 1    
    66   40   39 1    
    67   41   39 1    
    68   42   41 1    
    69   67   41 1    
    70   68   41 1    
    71   43   42 1    
    72   44   42 1    
    73   69   42 1    
    74   82   43 1    
    75   45   44 1    
    76   46   44 1    
    77   70   44 1    
    78   83   45 1    
    79   47   46 1    
    80   48   46 1    
    81   71   46 1    
    82   84   47 1    
    83   49   48 1    
    84   72   48 1    
    85   73   48 1    
    86   50   49 1    
    87   51   50 ar   
    88   52   50 ar   
    89   53   50 1    
@<TRIPOS>SUBSTRUCTURE
     1 FAD900      1 GROUP   
@<TRIPOS>SET

