#    Name: 3d5w_ADP_1_INTS_M
#    Modification time : Mon Mar 24 22:45:45 2014

@<TRIPOS>MOLECULE
3d5w_ADP_1_INTS_M
   43     0    12     0     0
SMALL
NO_CHARGES


@<TRIPOS>ATOM
      1 NZ         47.3105   24.3650   75.2785 N.4       3 LYC4        0.0000 
      2 NZ         48.6510   23.6590   75.2100 N.4      11 LYL4        0.0000 
      3 NZ         45.9700   25.0710   75.3470 N.4       7 LYP4        0.0000 
      4 N          47.3105   24.3650   75.2785 N.am      2 SEC2        0.0000 
      5 N          48.6510   23.6590   75.2100 N.am     10 SEL2        0.0000 
      6 N          45.9700   25.0710   75.3470 N.am      6 SEP2        0.0000 
      7 NZ         46.2165   23.3705   74.6660 N.4       3 LYC4        0.0000 
      8 NZ         46.4630   21.6700   73.9850 N.4      11 LYL4        0.0000 
      9 CA         48.5800   16.9080   78.2735 C.3       4 GLC5        0.0000 
     10 CA         47.7140   17.7780   76.6660 C.3      12 GLL5        0.0000 
     11 CA         49.4460   16.0380   79.8810 C.3       8 GLP5        0.0000 
     12 CA         49.8730   17.8590   77.2570 C.3       4 GLC5        0.0000 
     13 CA         52.0320   17.9400   77.8480 C.3       8 GLP5        0.0000 
     14 CA         47.7730   17.2290   79.0765 C.3       4 GLC5        0.0000 
     15 CA         46.1000   18.4200   78.2720 C.3      12 GLL5        0.0000 
     16 CA         47.0070   19.6270   79.5680 C.3       4 GLC5        0.0000 
     17 CA         47.9140   20.8340   80.8640 C.3       8 GLP5        0.0000 
     18 CA         40.3975   20.2080   78.9425 C.3       4 GLC5        0.0000 
     19 CA         42.1130   21.3310   79.0780 C.3      12 GLL5        0.0000 
     20 CA         38.6820   19.0850   78.8070 C.3       8 GLP5        0.0000 
     21 O          40.3855   22.8325   79.6885 O.2       1 ALC1        0.0000 
     22 O          41.4590   22.4620   78.7190 O.2       9 ALL1        0.0000 
     23 O          39.3120   23.2030   80.6580 O.2       5 ALP1        0.0000 
     24 N          40.2685   20.1640   80.5965 N.am      2 SEC2        0.0000 
     25 N          41.6260   20.5210   80.0490 N.am     10 SEL2        0.0000 
     26 N          38.9110   19.8070   81.1440 N.am      6 SEP2        0.0000 
     27 CA         43.3930   19.1720   82.0315 C.3       4 GLC5        0.0000 
     28 CA         42.2640   19.3920   80.4210 C.3      12 GLL5        0.0000 
     29 CA         44.5220   18.9520   83.6420 C.3       8 GLP5        0.0000 
     30 CA         42.5610   21.0160   81.4535 C.3       4 GLC5        0.0000 
     31 CA         42.8580   22.6400   82.4860 C.3       8 GLP5        0.0000 
     32 CA         41.6865   19.6770   82.5045 C.3       4 GLC5        0.0000 
     33 CA         41.1090   19.9620   84.5880 C.3       8 GLP5        0.0000 
     34 CA         40.3415   19.0660   80.3470 C.3       4 GLC5        0.0000 
     35 CA         38.4190   18.7400   80.2730 C.3       8 GLP5        0.0000 
     36 CA         44.5040   18.0960   76.0513 C.3       4 GLC5        0.0000 
     37 CA         45.5420   17.1910   77.5640 C.3      12 GLL5        0.0000 
     38 CA         42.9800   19.1620   75.0990 C.3       8 GLP5        0.0000 
     39 CA         44.9993   20.8932   80.0020 C.3       4 GLC5        0.0000 
     40 CA         44.0200   19.6910   78.8800 C.3      12 GLL5        0.0000 
     41 CA         46.2960   21.4720   81.3540 C.3       8 GLP5        0.0000 
     42 CA         42.8035   21.8873   80.6175 C.3       4 GLC5        0.0000 
     43 CA         43.3850   20.9380   78.4200 C.3      12 GLL5        0.0000 
@<TRIPOS>BOND
@<TRIPOS>SUBSTRUCTURE
     1 ALC1       21 GROUP        1 X    ALC  0     ROOT ALC X 1
     2 SEC2        4 GROUP        1 X    SEC  0     **** SEC X 2
     3 LYC4        1 GROUP        1 X    LYC  0     **** LYC X 4
     4 GLC5        9 GROUP        1 X    GLC  0     **** GLC X 6
     5 ALP1       23 GROUP        1 Y    ALP  0     ROOT ALP Y 8
     6 SEP2        6 GROUP        1 Y    SEP  0     **** SEP Y 9
     7 LYP4        3 GROUP        1 Y    LYP  0     **** LYP Y 11
     8 GLP5       11 GROUP        1 Y    GLP  0     **** GLP Y 13
     9 ALL1       22 GROUP        1 Z    ALL  0     ROOT ALL Z 15
    10 SEL2        5 GROUP        1 Z    SEL  0     **** SEL Z 16
    11 LYL4        2 GROUP        1 Z    LYL  0     **** LYL Z 18
    12 GLL5       10 GROUP        1 Z    GLL  0     **** GLL Z 20
@<TRIPOS>SET

