#    Name: 3d5w_ADP_1_ligand
#    Modification time : Mon Mar 24 22:45:45 2014

@<TRIPOS>MOLECULE
3d5w_ADP_1_ligand
   39    41     1     0     0
SMALL
NO_CHARGES


@<TRIPOS>ATOM
      1 PB         49.3320   22.8230   74.1510 P.3       1 ADP313      0.0000 
      2 O1B        48.6510   23.6590   75.2100 O.co2     1 ADP313      0.0000 
      3 O2B        50.8410   22.8110   74.2350 O.co2     1 ADP313      0.0000 
      4 O3B        48.8020   23.0370   72.7510 O.co2     1 ADP313      0.0000 
      5 PA         47.5650   20.6360   73.9630 P.3       1 ADP313      0.0000 
      6 O1A        46.4630   21.6700   73.9850 O.co2     1 ADP313      0.0000 
      7 O2A        47.9070   19.9270   72.6730 O.co2     1 ADP313      0.0000 
      8 O3A        48.9120   21.3140   74.5360 O.3       1 ADP313      0.0000 
      9 O5'        47.2150   19.5210   75.0710 O.3       1 ADP313      0.0000 
     10 C5'        48.1310   18.4710   75.3750 C.3       1 ADP313      0.0000 
     11 C4'        47.7140   17.7780   76.6660 C.3       1 ADP313      0.0000 
     12 O4'        47.3490   18.7480   77.6530 O.3       1 ADP313      0.0000 
     13 C3'        46.5140   16.8690   76.4430 C.3       1 ADP313      0.0000 
     14 O3'        46.9140   15.4950   76.4680 O.3       1 ADP313      0.0000 
     15 C2'        45.5420   17.1910   77.5640 C.3       1 ADP313      0.0000 
     16 O2'        45.4380   16.1060   78.4910 O.3       1 ADP313      0.0000 
     17 C1'        46.1000   18.4200   78.2720 C.3       1 ADP313      0.0000 
     18 N9         45.1340   19.5460   78.1550 N.pl3     1 ADP313      0.0000 
     19 C8         45.2230   20.5880   77.3060 C.2       1 ADP313      0.0000 
     20 N7         44.1740   21.4380   77.4530 N.2       1 ADP313      0.0000 
     21 C5         43.3850   20.9380   78.4200 C.ar      1 ADP313      0.0000 
     22 C6         42.1130   21.3310   79.0780 C.ar      1 ADP313      0.0000 
     23 N6         41.4590   22.4620   78.7190 N.pl3     1 ADP313      0.0000 
     24 N1         41.6260   20.5210   80.0490 N.ar      1 ADP313      0.0000 
     25 C2         42.2640   19.3920   80.4210 C.ar      1 ADP313      0.0000 
     26 N3         43.4190   18.9760   79.8670 N.ar      1 ADP313      0.0000 
     27 C4         44.0200   19.6910   78.8800 C.ar      1 ADP313      0.0000 
     28 H          49.1520   18.8492   75.5115 H         1 ADP313      0.0000 
     29 H          48.1592   17.7138   74.5814 H         1 ADP313      0.0000 
     30 H          48.5352   17.1703   77.0137 H         1 ADP313      0.0000 
     31 H          46.0588   17.1481   75.5132 H         1 ADP313      0.0000 
     32 H          44.6004   17.4557   77.1344 H         1 ADP313      0.0000 
     33 H          46.2378   18.1659   79.3085 H         1 ADP313      0.0000 
     34 H          45.9523   20.7218   76.6596 H         1 ADP313      0.0000 
     35 H          41.5295   22.7244   77.7566 H         1 ADP313      0.0000 
     36 H          40.9637   22.9342   79.4482 H         1 ADP313      0.0000 
     37 H          41.8308   18.7991   81.1935 H         1 ADP313      0.0000 
     38 H          47.8800   15.5020   76.2094 H         1 ADP313      0.0000 
     39 H          45.8201   15.3171   78.0098 H         1 ADP313      0.0000 
@<TRIPOS>BOND
     1    2    1 ar   
     2    3    1 ar   
     3    4    1 ar   
     4    8    1 1    
     5    6    5 ar   
     6    7    5 ar   
     7    8    5 1    
     8    9    5 1    
     9   10    9 1    
    10   11   10 1    
    11   28   10 1    
    12   29   10 1    
    13   12   11 1    
    14   13   11 1    
    15   30   11 1    
    16   17   12 1    
    17   14   13 1    
    18   15   13 1    
    19   31   13 1    
    20   38   14 1    
    21   16   15 1    
    22   17   15 1    
    23   32   15 1    
    24   39   16 1    
    25   18   17 1    
    26   33   17 1    
    27   19   18 1    
    28   27   18 1    
    29   20   19 2    
    30   34   19 1    
    31   21   20 1    
    32   22   21 ar   
    33   27   21 ar   
    34   23   22 1    
    35   24   22 ar   
    36   35   23 1    
    37   36   23 1    
    38   25   24 ar   
    39   26   25 ar   
    40   37   25 1    
    41   27   26 ar   
@<TRIPOS>SUBSTRUCTURE
     1 ADP313      1 GROUP   
@<TRIPOS>SET

