#    Name: 2y3t_ATP_3_INTS_M
#    Modification time : Tue Mar 25 07:31:14 2014

@<TRIPOS>MOLECULE
2y3t_ATP_3_INTS_M
   74     0    12     0     0
SMALL
NO_CHARGES


@<TRIPOS>ATOM
      1 NZ        -12.8085  -12.4155  139.3455 N.4       3 LYC4        0.0000 
      2 NZ        -12.4880  -11.2580  138.7100 N.4      11 LYL4        0.0000 
      3 NZ        -14.2370  -13.5220  140.6930 N.4       7 LYP4        0.0000 
      4 NZ        -12.5090  -10.0890  139.5065 N.4       3 LYC4        0.0000 
      5 NZ        -11.9110   -9.2530  141.4120 N.4       7 LYP4        0.0000 
      6 N         -13.7105  -11.8270  139.7350 N.am      2 SEC2        0.0000 
      7 N         -12.4880  -11.2580  138.7100 N.am     10 SEL2        0.0000 
      8 N         -14.9330  -12.3960  140.7600 N.am      6 SEP2        0.0000 
      9 N         -12.8085  -12.4155  139.3455 N.am      2 SEC2        0.0000 
     10 N         -13.1290  -13.5730  139.9810 N.am      6 SEP2        0.0000 
     11 N         -11.8715  -10.8300  140.0965 N.am      2 SEC2        0.0000 
     12 N         -11.2550  -10.4020  141.4830 N.am      6 SEP2        0.0000 
     13 N         -12.5090  -10.0890  139.5065 N.am      2 SEC2        0.0000 
     14 N         -12.5300   -8.9200  140.3030 N.am      6 SEP2        0.0000 
     15 NZ        -11.7640  -11.1390  135.0455 N.4       3 LYC4        0.0000 
     16 NZ        -13.0490  -10.6570  136.2010 N.4      11 LYL4        0.0000 
     17 NZ        -10.4790  -11.6210  133.8900 N.4       7 LYP4        0.0000 
     18 NZ        -10.5720  -11.3885  135.4170 N.4       3 LYC4        0.0000 
     19 NZ        -10.6650  -11.1560  136.9440 N.4      11 LYL4        0.0000 
     20 N          -9.6595  -11.0045  137.7255 N.am      2 SEC2        0.0000 
     21 N         -10.6650  -11.1560  136.9440 N.am     10 SEL2        0.0000 
     22 N          -8.6540  -10.8530  138.5070 N.am      6 SEP2        0.0000 
     23 N         -10.5720  -11.3885  135.4170 N.am      2 SEC2        0.0000 
     24 N         -10.4790  -11.6210  133.8900 N.am      6 SEP2        0.0000 
     25 N         -11.4470   -6.5035  134.6810 N.am      2 SEC2        0.0000 
     26 N         -11.5620   -7.4490  135.6870 N.am     10 SEL2        0.0000 
     27 N         -11.3320   -5.5580  133.6750 N.am      6 SEP2        0.0000 
     28 N         -12.7120   -6.9530  135.1445 N.am      2 SEC2        0.0000 
     29 N         -13.8620   -6.4570  134.6020 N.am      6 SEP2        0.0000 
     30 N          -9.0925   -9.8140  137.5440 N.am      2 SEC2        0.0000 
     31 N          -9.5310   -8.7750  136.5810 N.am     10 SEL2        0.0000 
     32 N          -8.4415   -7.5820  136.7315 N.am      2 SEC2        0.0000 
     33 N          -7.3520   -6.3890  136.8820 N.am      6 SEP2        0.0000 
     34 N          -9.1360   -7.5445  135.5410 N.am      2 SEC2        0.0000 
     35 N          -8.7410   -6.3140  134.5010 N.am      6 SEP2        0.0000 
     36 N         -12.1515   -8.9425  139.0145 N.am      2 SEC2        0.0000 
     37 N         -11.7730   -8.9650  137.7260 N.am     10 SEL2        0.0000 
     38 NZ        -12.6120   -7.6395  139.5530 N.4       3 LYC4        0.0000 
     39 NZ        -12.6940   -6.3590  138.8030 N.4      11 LYL4        0.0000 
     40 N         -12.6120   -7.6395  139.5530 N.am      2 SEC2        0.0000 
     41 N         -12.6940   -6.3590  138.8030 N.am     10 SEL2        0.0000 
     42 N         -11.4820   -3.7840  135.6580 N.am      2 SEC2        0.0000 
     43 N         -11.6570   -4.7730  137.0890 N.am     10 SEL2        0.0000 
     44 N         -11.3070   -2.7950  134.2270 N.am      6 SEP2        0.0000 
     45 O         -12.6640   -4.4490  142.8020 O.2       1 ALC1        0.0000 
     46 O         -12.0960   -3.0350  142.5200 O.2       9 ALL1        0.0000 
     47 O         -13.2320   -5.8630  143.0840 O.2       5 ALP1        0.0000 
     48 O         -13.2120   -3.5970  142.4075 O.2       1 ALC1        0.0000 
     49 O         -14.3280   -4.1590  142.2950 O.2       5 ALP1        0.0000 
     50 CA        -10.0165   -0.9215  138.9930 C.3       4 GLC5        0.0000 
     51 CA        -10.5650   -2.2240  140.7400 C.3      12 GLL5        0.0000 
     52 CA         -9.4680    0.3810  137.2460 C.3       8 GLP5        0.0000 
     53 N          -5.9910   -2.0690  137.6930 N.am      2 SEC2        0.0000 
     54 N          -6.8330   -1.4640  138.9210 N.am     10 SEL2        0.0000 
     55 N          -5.1490   -2.6740  136.4650 N.am      6 SEP2        0.0000 
     56 CA         -4.1195    1.0725  140.3930 C.3       4 GLC5        0.0000 
     57 CA         -5.7920    0.6190  139.7910 C.3      12 GLL5        0.0000 
     58 CA         -2.4470    1.5260  140.9950 C.3       8 GLP5        0.0000 
     59 O          -4.3505    2.0480  138.6245 O.2       1 ALC1        0.0000 
     60 O          -4.9570    0.8410  138.7790 O.2       9 ALL1        0.0000 
     61 O          -3.7440    3.2550  138.4700 O.2       5 ALP1        0.0000 
     62 O          -4.4990    0.0355  137.3955 O.2       1 ALC1        0.0000 
     63 O          -4.0410   -0.7700  136.0120 O.2       5 ALP1        0.0000 
     64 CA         -4.5550    1.3815  141.4350 C.3       4 GLC5        0.0000 
     65 CA         -6.6630    1.2370  141.8750 C.3      12 GLL5        0.0000 
     66 CA         -8.1710    1.9385  141.1865 C.3       4 GLC5        0.0000 
     67 CA         -9.6790    2.6400  140.4980 C.3       8 GLP5        0.0000 
     68 CA        -10.3833   -6.2498  142.6415 C.3       4 GLC5        0.0000 
     69 CA        -10.2780   -4.4360  141.6350 C.3      12 GLL5        0.0000 
     70 CA        -10.4090   -7.5060  144.1610 C.3       8 GLP5        0.0000 
     71 CA         -8.2649    1.1694  140.4069 C.3       4 GLC5        0.0000 
     72 CA         -6.6330   -0.4760  139.7760 C.3      12 GLL5        0.0000 
     73 CA         -8.1594    0.0399  138.7809 C.3       4 GLC5        0.0000 
     74 CA         -7.4890   -0.6740  140.8480 C.3      12 GLL5        0.0000 
@<TRIPOS>BOND
@<TRIPOS>SUBSTRUCTURE
     1 ALC1       45 GROUP        1 X    ALC  0     ROOT ALC X 1
     2 SEC2        6 GROUP        1 X    SEC  0     **** SEC X 2
     3 LYC4        1 GROUP        1 X    LYC  0     **** LYC X 4
     4 GLC5       50 GROUP        1 X    GLC  0     **** GLC X 6
     5 ALP1       47 GROUP        1 Y    ALP  0     ROOT ALP Y 8
     6 SEP2        8 GROUP        1 Y    SEP  0     **** SEP Y 9
     7 LYP4        3 GROUP        1 Y    LYP  0     **** LYP Y 11
     8 GLP5       52 GROUP        1 Y    GLP  0     **** GLP Y 13
     9 ALL1       46 GROUP        1 Z    ALL  0     ROOT ALL Z 15
    10 SEL2        7 GROUP        1 Z    SEL  0     **** SEL Z 16
    11 LYL4        2 GROUP        1 Z    LYL  0     **** LYL Z 18
    12 GLL5       51 GROUP        1 Z    GLL  0     **** GLL Z 20
@<TRIPOS>SET

