#    Name: 2y3t_ATP_3_ligand
#    Modification time : Tue Mar 25 07:31:14 2014

@<TRIPOS>MOLECULE
2y3t_ATP_3_ligand
   43    45     1     0     0
SMALL
NO_CHARGES


@<TRIPOS>ATOM
      1 PG        -11.9210  -10.5450  137.3880 P.3       1 ATP1886     0.0000 
      2 O1G       -12.4880  -11.2580  138.7100 O.co2     1 ATP1886     0.0000 
      3 O2G       -13.0490  -10.6570  136.2010 O.co2     1 ATP1886     0.0000 
      4 O3G       -10.6650  -11.1560  136.9440 O.co2     1 ATP1886     0.0000 
      5 PB        -10.8030   -8.0400  136.8330 P.3       1 ATP1886     0.0000 
      6 O1B       -11.5620   -7.4490  135.6870 O.co2     1 ATP1886     0.0000 
      7 O2B        -9.5310   -8.7750  136.5810 O.co2     1 ATP1886     0.0000 
      8 O3B       -11.7730   -8.9650  137.7260 O.3       1 ATP1886     0.0000 
      9 PA        -11.5100   -5.7030  138.2110 P.3       1 ATP1886     0.0000 
     10 O1A       -12.6940   -6.3590  138.8030 O.co2     1 ATP1886     0.0000 
     11 O2A       -11.6570   -4.7730  137.0890 O.co2     1 ATP1886     0.0000 
     12 O3A       -10.4910   -6.8670  137.8620 O.3       1 ATP1886     0.0000 
     13 O5'       -10.5760   -4.9830  139.2610 O.3       1 ATP1886     0.0000 
     14 C5'       -10.4370   -5.5510  140.6090 C.3       1 ATP1886     0.0000 
     15 C4'       -10.2780   -4.4360  141.6350 C.3       1 ATP1886     0.0000 
     16 O4'        -9.0060   -3.7870  141.3700 O.3       1 ATP1886     0.0000 
     17 C3'       -11.3710   -3.3860  141.3410 C.3       1 ATP1886     0.0000 
     18 O3'       -12.0960   -3.0350  142.5200 O.3       1 ATP1886     0.0000 
     19 C2'       -10.5650   -2.2240  140.7400 C.3       1 ATP1886     0.0000 
     20 O2'       -11.1720   -0.9750  141.0040 O.3       1 ATP1886     0.0000 
     21 C1'        -9.2270   -2.3850  141.4420 C.3       1 ATP1886     0.0000 
     22 N9         -8.1900   -1.7850  140.5830 N.pl3     1 ATP1886     0.0000 
     23 C8         -7.7890   -2.2620  139.3980 C.2       1 ATP1886     0.0000 
     24 N7         -6.8330   -1.4640  138.9210 N.2       1 ATP1886     0.0000 
     25 C5         -6.6330   -0.4760  139.7760 C.ar      1 ATP1886     0.0000 
     26 C6         -5.7920    0.6190  139.7910 C.ar      1 ATP1886     0.0000 
     27 N6         -4.9570    0.8410  138.7790 N.pl3     1 ATP1886     0.0000 
     28 N1         -5.8350    1.4510  140.8600 N.ar      1 ATP1886     0.0000 
     29 C2         -6.6630    1.2370  141.8750 C.ar      1 ATP1886     0.0000 
     30 N3         -7.4860    0.2000  141.8770 N.ar      1 ATP1886     0.0000 
     31 C4         -7.4890   -0.6740  140.8480 C.ar      1 ATP1886     0.0000 
     32 H          -9.5601   -6.2013  140.6651 H         1 ATP1886     0.0000 
     33 H         -11.3190   -6.1409  140.8720 H         1 ATP1886     0.0000 
     34 H         -10.3695   -4.7912  142.5921 H         1 ATP1886     0.0000 
     35 H         -11.9845   -3.7901  140.5594 H         1 ATP1886     0.0000 
     36 H         -10.4228   -2.4396  139.7079 H         1 ATP1886     0.0000 
     37 H          -9.2518   -2.0131  142.3787 H         1 ATP1886     0.0000 
     38 H          -8.1380   -3.0568  138.9613 H         1 ATP1886     0.0000 
     39 H          -5.0161    0.2025  138.0116 H         1 ATP1886     0.0000 
     40 H          -4.3457    1.6263  138.8771 H         1 ATP1886     0.0000 
     41 H          -6.6642    1.9055  142.6934 H         1 ATP1886     0.0000 
     42 H         -12.7373   -3.7888  142.6634 H         1 ATP1886     0.0000 
     43 H         -11.7369   -1.1282  141.8148 H         1 ATP1886     0.0000 
@<TRIPOS>BOND
     1    2    1 ar   
     2    3    1 ar   
     3    4    1 ar   
     4    8    1 1    
     5    6    5 ar   
     6    7    5 ar   
     7    8    5 1    
     8   12    5 1    
     9   10    9 ar   
    10   11    9 ar   
    11   12    9 1    
    12   13    9 1    
    13   14   13 1    
    14   15   14 1    
    15   32   14 1    
    16   33   14 1    
    17   16   15 1    
    18   17   15 1    
    19   34   15 1    
    20   21   16 1    
    21   18   17 1    
    22   19   17 1    
    23   35   17 1    
    24   42   18 1    
    25   20   19 1    
    26   21   19 1    
    27   36   19 1    
    28   43   20 1    
    29   22   21 1    
    30   37   21 1    
    31   23   22 1    
    32   31   22 1    
    33   24   23 2    
    34   38   23 1    
    35   25   24 1    
    36   26   25 ar   
    37   31   25 ar   
    38   27   26 1    
    39   28   26 ar   
    40   39   27 1    
    41   40   27 1    
    42   29   28 ar   
    43   30   29 ar   
    44   41   29 1    
    45   31   30 ar   
@<TRIPOS>SUBSTRUCTURE
     1 ATP1886     1 GROUP   
@<TRIPOS>SET

