#    Name: 4lz7_1YW_2_INTS_M
#    Modification time : Tue Apr  8 00:12:42 2014

@<TRIPOS>MOLECULE
4lz7_1YW_2_INTS_M
   53     0     6     0     0
SMALL
NO_CHARGES


@<TRIPOS>ATOM
      1 CA         62.8515   22.7580   48.4035 C.3       2 GLC5        0.0000 
      2 CA         63.4680   22.5070   46.5600 C.3       6 GLL5        0.0000 
      3 CA         62.2350   23.0090   50.2470 C.3       4 GLP5        0.0000 
      4 CA         62.0320   23.7530   47.1410 C.3       2 GLC5        0.0000 
      5 CA         60.5960   24.9990   47.7220 C.3       4 GLP5        0.0000 
      6 CA         64.3930   21.5760   48.1405 C.3       2 GLC5        0.0000 
      7 CA         65.3180   20.6450   49.7210 C.3       4 GLP5        0.0000 
      8 O          61.6895   21.4880   45.3600 O.2       1 ALC1        0.0000 
      9 O          62.8170   21.3650   44.5560 O.2       5 ALL1        0.0000 
     10 O          60.5620   21.6110   46.1640 O.2       3 ALP1        0.0000 
     11 CA         63.8045   19.0385   44.0600 C.3       2 GLC5        0.0000 
     12 CA         62.9410   20.8310   43.2270 C.3       6 GLL5        0.0000 
     13 CA         64.6680   17.2460   44.8930 C.3       4 GLP5        0.0000 
     14 CA         64.6845   23.2160   42.1410 C.3       2 GLC5        0.0000 
     15 CA         62.7090   23.1120   42.2170 C.3       6 GLL5        0.0000 
     16 CA         66.6600   23.3200   42.0650 C.3       4 GLP5        0.0000 
     17 CA         63.8805   28.4950   44.0775 C.3       2 GLC5        0.0000 
     18 CA         63.6770   28.2360   42.3590 C.3       6 GLL5        0.0000 
     19 CA         64.0840   28.7540   45.7960 C.3       4 GLP5        0.0000 
     20 CA         64.7000   30.0495   42.0640 C.3       2 GLC5        0.0000 
     21 CA         65.7230   31.8630   41.7690 C.3       4 GLP5        0.0000 
     22 CA         64.5520   28.4015   41.1455 C.3       2 GLC5        0.0000 
     23 CA         65.4270   28.5670   39.9320 C.3       4 GLP5        0.0000 
     24 CA         58.3255   28.6535   42.4755 C.3       2 GLC5        0.0000 
     25 CA         60.1710   27.4480   42.8640 C.3       6 GLL5        0.0000 
     26 CA         56.4800   29.8590   42.0870 C.3       4 GLP5        0.0000 
     27 CA         63.2260   29.2185   40.6365 C.3       2 GLC5        0.0000 
     28 CA         62.3220   30.3920   41.9700 C.3       6 GLL5        0.0000 
     29 CA         64.1300   28.0450   39.3030 C.3       4 GLP5        0.0000 
     30 CA         60.2035   31.9080   40.1170 C.3       2 GLC5        0.0000 
     31 CA         61.6330   31.7470   41.7670 C.3       6 GLL5        0.0000 
     32 CA         58.7740   32.0690   38.4670 C.3       4 GLP5        0.0000 
     33 CA         63.4158   21.8593   40.4753 C.3       2 GLC5        0.0000 
     34 CA         64.3990   21.3210   38.7200 C.3       4 GLP5        0.0000 
     35 CA         58.2480   26.6197   43.2690 C.3       2 GLC5        0.0000 
     36 CA         60.2310   26.0590   42.8660 C.3       6 GLL5        0.0000 
     37 CA         56.2950   26.4860   43.6730 C.3       4 GLP5        0.0000 
     38 CA         62.8252   27.3405   44.3600 C.3       2 GLC5        0.0000 
     39 CA         62.6110   26.1460   42.5220 C.3       6 GLL5        0.0000 
     40 CA         63.0730   27.8390   46.1990 C.3       4 GLP5        0.0000 
     41 CA         64.9596   27.1195   43.0825 C.3       2 GLC5        0.0000 
     42 CA         66.7920   26.7000   43.7250 C.3       4 GLP5        0.0000 
     43 CA         61.9135   27.8320   44.4887 C.3       2 GLC5        0.0000 
     44 CA         61.3370   28.2020   42.6930 C.3       6 GLL5        0.0000 
     45 CA         63.0436   27.7835   40.9550 C.3       2 GLC5        0.0000 
     46 CA         60.3815   25.9204   44.5546 C.3       2 GLC5        0.0000 
     47 CA         61.4590   25.4000   42.7030 C.3       6 GLL5        0.0000 
     48 CA         60.2550   25.2520   46.2850 C.3       4 GLP5        0.0000 
     49 CA         59.8005   25.8494   41.0381 C.3       2 GLC5        0.0000 
     50 CA         59.0930   25.1100   39.2520 C.3       4 GLP5        0.0000 
     51 CA         58.3820   30.4618   42.5075 C.3       2 GLC5        0.0000 
     52 CA         60.1400   30.3490   43.1460 C.3       6 GLL5        0.0000 
     53 CA         63.8503   31.4662   41.8188 C.3       2 GLC5        0.0000 
@<TRIPOS>BOND
@<TRIPOS>SUBSTRUCTURE
     1 ALC1        8 GROUP        1 X    ALC  0     ROOT ALC X 1
     2 GLC5        1 GROUP        1 X    GLC  0     **** GLC X 6
     3 ALP1       10 GROUP        1 Y    ALP  0     ROOT ALP Y 8
     4 GLP5        3 GROUP        1 Y    GLP  0     **** GLP Y 13
     5 ALL1        9 GROUP        1 Z    ALL  0     ROOT ALL Z 15
     6 GLL5        2 GROUP        1 Z    GLL  0     **** GLL Z 20
@<TRIPOS>SET

