#    Name: 4lz7_1YW_2_ligand
#    Modification time : Tue Apr  8 00:12:42 2014

@<TRIPOS>MOLECULE
4lz7_1YW_2_ligand
   42    44     1     0     0
SMALL
NO_CHARGES


@<TRIPOS>ATOM
      1 O21        64.9860   21.9630   44.8370 O.2       1 1YW804      0.0000 
      2 C22        63.8380   21.9150   45.2380 C.2       1 1YW804      0.0000 
      3 C20        63.4680   22.5070   46.5600 C.3       1 1YW804      0.0000 
      4 N19        62.8170   21.3650   44.5560 N.am      1 1YW804      0.0000 
      5 C18        62.9410   20.8310   43.2270 C.3       1 1YW804      0.0000 
      6 C17        62.1560   21.6830   42.2440 C.3       1 1YW804      0.0000 
      7 O8         60.8070   21.8620   42.6790 O.3       1 1YW804      0.0000 
      8 C9         62.7090   23.1120   42.2170 C.3       1 1YW804      0.0000 
      9 C6         61.5210   23.9050   42.6910 C.2       1 1YW804      0.0000 
     10 N10        60.5470   23.1550   42.9920 N.2       1 1YW804      0.0000 
     11 C4         61.4590   25.4000   42.7030 C.ar      1 1YW804      0.0000 
     12 C2         60.2310   26.0590   42.8660 C.ar      1 1YW804      0.0000 
     13 C5         62.6110   26.1460   42.5220 C.ar      1 1YW804      0.0000 
     14 C3         62.5440   27.5380   42.5200 C.ar      1 1YW804      0.0000 
     15 F7         63.6770   28.2360   42.3590 F         1 1YW804      0.0000 
     16 C11        61.3370   28.2020   42.6930 C.ar      1 1YW804      0.0000 
     17 C1         60.1710   27.4480   42.8640 C.ar      1 1YW804      0.0000 
     18 N15        61.2860   29.6060   42.6440 N.3       1 1YW804      0.0000 
     19 C13        60.1400   30.3490   43.1460 C.3       1 1YW804      0.0000 
     20 C14        62.3220   30.3920   41.9700 C.3       1 1YW804      0.0000 
     21 C16        61.6330   31.7470   41.7670 C.3       1 1YW804      0.0000 
     22 C12        60.4280   31.7800   42.7100 C.3       1 1YW804      0.0000 
     23 H          61.8564   21.3045   44.9881 H         1 1YW804      0.0000 
     24 H          62.5561   19.8046   43.1710 H         1 1YW804      0.0000 
     25 H          63.9886   20.8118   42.9000 H         1 1YW804      0.0000 
     26 H          62.2099   21.2857   41.2707 H         1 1YW804      0.0000 
     27 H          62.9579   23.3735   41.2267 H         1 1YW804      0.0000 
     28 H          63.5060   23.1930   42.9021 H         1 1YW804      0.0000 
     29 H          59.3718   25.5052   42.9875 H         1 1YW804      0.0000 
     30 H          63.5166   25.6778   42.3889 H         1 1YW804      0.0000 
     31 H          59.2692   27.9260   42.9882 H         1 1YW804      0.0000 
     32 H          60.0870   30.3178   44.2123 H         1 1YW804      0.0000 
     33 H          59.2304   30.0260   42.6887 H         1 1YW804      0.0000 
     34 H          62.5640   29.9858   41.0185 H         1 1YW804      0.0000 
     35 H          63.1731   30.5311   42.5906 H         1 1YW804      0.0000 
     36 H          61.2984   31.8298   40.7523 H         1 1YW804      0.0000 
     37 H          62.3121   32.5356   42.0229 H         1 1YW804      0.0000 
     38 H          60.6641   32.3808   43.5710 H         1 1YW804      0.0000 
     39 H          59.5758   32.1783   42.1874 H         1 1YW804      0.0000 
     40 H          63.9693   22.0789   47.3120 H         1 1YW804      0.0000 
     41 H          63.6652   23.4867   46.5965 H         1 1YW804      0.0000 
     42 H          62.4938   22.3966   46.7568 H         1 1YW804      0.0000 
@<TRIPOS>BOND
     1    2    1 2    
     2    3    2 1    
     3    4    2 am   
     4   40    3 1    
     5   41    3 1    
     6   42    3 1    
     7    5    4 1    
     8   23    4 1    
     9    6    5 1    
    10   24    5 1    
    11   25    5 1    
    12    7    6 1    
    13    8    6 1    
    14   26    6 1    
    15   10    7 1    
    16    9    8 1    
    17   27    8 1    
    18   28    8 1    
    19   10    9 2    
    20   11    9 1    
    21   12   11 ar   
    22   13   11 ar   
    23   17   12 ar   
    24   29   12 1    
    25   14   13 ar   
    26   30   13 1    
    27   15   14 1    
    28   16   14 ar   
    29   17   16 ar   
    30   18   16 1    
    31   31   17 1    
    32   19   18 1    
    33   20   18 1    
    34   22   19 1    
    35   32   19 1    
    36   33   19 1    
    37   21   20 1    
    38   34   20 1    
    39   35   20 1    
    40   22   21 1    
    41   36   21 1    
    42   37   21 1    
    43   38   22 1    
    44   39   22 1    
@<TRIPOS>SUBSTRUCTURE
     1 1YW804      1 GROUP   
@<TRIPOS>SET

