#    Name: 1y9d_TPP_7_INTS_M
#    Modification time : Mon Apr  7 15:39:10 2014

@<TRIPOS>MOLECULE
1y9d_TPP_7_INTS_M
   85     0    12     0     0
SMALL
NO_CHARGES


@<TRIPOS>ATOM
      1 CA         30.2240    9.2960   -8.4825 C.3       4 GLC5        0.0000 
      2 CA         31.3680    9.3210  -10.1850 C.3      12 GLL5        0.0000 
      3 CA         29.0800    9.2710   -6.7800 C.3       8 GLP5        0.0000 
      4 CA         30.9540   10.1390  -11.9020 C.3       4 GLC5        0.0000 
      5 CA         30.5400   10.9570  -13.6190 C.3       8 GLP5        0.0000 
      6 CA         32.4060    8.7150  -11.9870 C.3       4 GLC5        0.0000 
      7 CA         33.4440    8.1090  -13.7890 C.3       8 GLP5        0.0000 
      8 CA         30.4420    7.8360   -8.5410 C.3       4 GLC5        0.0000 
      9 CA         31.4930    7.8250  -10.2730 C.3      12 GLL5        0.0000 
     10 CA         29.3910    7.8470   -6.8090 C.3       8 GLP5        0.0000 
     11 CA         32.5480    6.0450   -9.7720 C.3       4 GLC5        0.0000 
     12 CA         33.6030    4.2650   -9.2710 C.3       8 GLP5        0.0000 
     13 CA         30.1990    8.2830  -11.8475 C.3       4 GLC5        0.0000 
     14 CA         28.9050    8.7410  -13.4220 C.3       8 GLP5        0.0000 
     15 CA         31.8110    7.3595  -12.0765 C.3       4 GLC5        0.0000 
     16 CA         32.1290    6.8940  -13.8800 C.3       8 GLP5        0.0000 
     17 N          28.8530    9.0850  -10.7315 N.am      2 SEC2        0.0000 
     18 N          30.1380    9.8750  -10.0430 N.am     10 SEL2        0.0000 
     19 N          27.5680    8.2950  -11.4200 N.am      6 SEP2        0.0000 
     20 CA         29.5155   10.2605   -8.3685 C.3       4 GLC5        0.0000 
     21 CA         29.9510   11.2500   -9.9570 C.3      12 GLL5        0.0000 
     22 O          27.5610   11.0920   -9.3680 O.2       1 ALC1        0.0000 
     23 O          28.7100   11.6870   -9.7420 O.2       9 ALL1        0.0000 
     24 O          26.4120   10.4970   -8.9940 O.2       5 ALP1        0.0000 
     25 CA         34.1510   11.7225  -11.5075 C.3       4 GLC5        0.0000 
     26 CA         32.3130   11.5240  -10.2710 C.3      12 GLL5        0.0000 
     27 CA         35.9890   11.9210  -12.7440 C.3       8 GLP5        0.0000 
     28 CA         33.1950   12.5075   -8.5065 C.3       4 GLC5        0.0000 
     29 CA         34.0770   13.4910   -6.7420 C.3       8 GLP5        0.0000 
     30 CA         30.7485   12.2920  -11.8740 C.3       4 GLC5        0.0000 
     31 CA         30.9570   13.6270  -10.1290 C.3      12 GLL5        0.0000 
     32 CA         31.1840   15.6320  -10.8610 C.3       4 GLC5        0.0000 
     33 CA         31.4110   17.6370  -11.5930 C.3       8 GLP5        0.0000 
     34 CA         29.7900   12.7895  -12.5720 C.3       4 GLC5        0.0000 
     35 CA         29.0400   14.6220  -11.5250 C.3      12 GLL5        0.0000 
     36 CA         27.1240   15.0660  -14.3510 C.3       4 GLC5        0.0000 
     37 CA         28.5670   15.0550  -13.0350 C.3      12 GLL5        0.0000 
     38 CA         25.6810   15.0770  -15.6670 C.3       8 GLP5        0.0000 
     39 CA         28.2225   16.7095  -13.9860 C.3       4 GLC5        0.0000 
     40 CA         27.8780   18.3640  -14.9370 C.3       8 GLP5        0.0000 
     41 CA         34.1610   12.7910  -12.8765 C.3       4 GLC5        0.0000 
     42 CA         32.3330   13.6610  -13.0090 C.3      12 GLL5        0.0000 
     43 CA         32.9500   13.5310  -14.9405 C.3       4 GLC5        0.0000 
     44 CA         33.5670   13.4010  -16.8720 C.3       8 GLP5        0.0000 
     45 CA         31.9715   15.3705  -15.8255 C.3       4 GLC5        0.0000 
     46 CA         30.3210   14.8000  -15.0770 C.3      12 GLL5        0.0000 
     47 CA         33.6220   15.9410  -16.5740 C.3       8 GLP5        0.0000 
     48 CA         29.0995   16.5820  -15.0070 C.3       4 GLC5        0.0000 
     49 CA         31.2650   16.0860  -13.9665 C.3       4 GLC5        0.0000 
     50 CA         32.2090   17.3720  -12.8560 C.3       8 GLP5        0.0000 
     51 CA         27.5870   14.4940  -15.8390 C.3       4 GLC5        0.0000 
     52 CA         29.4930   13.9110  -16.0110 C.3      12 GLL5        0.0000 
     53 CA         31.5300   13.6560  -16.4415 C.3       4 GLC5        0.0000 
     54 Zn         30.4620   14.1210  -20.4980 Zn        3 ZIC7        0.0000 
     55 Zn         30.3640   13.4560  -19.7350 Zn       11 ZIL7        0.0000 
     56 Zn         30.5600   14.7860  -21.2610 Zn        7 ZIP7        0.0000 
     57 N          30.7485   12.1220  -20.0445 N.am      2 SEC2        0.0000 
     58 N          30.3640   13.4560  -19.7350 N.am     10 SEL2        0.0000 
     59 N          31.1330   10.7880  -20.3540 N.am      6 SEP2        0.0000 
     60 N          29.3835   10.6950  -18.2745 N.am      2 SEC2        0.0000 
     61 N          28.9240   12.0380  -18.2220 N.am     10 SEL2        0.0000 
     62 N          29.8430    9.3520  -18.3270 N.am      6 SEP2        0.0000 
     63 N          26.5610   16.8075  -17.7620 N.am      2 SEC2        0.0000 
     64 N          27.9900   16.8090  -18.2030 N.am     10 SEL2        0.0000 
     65 N          25.1320   16.8060  -17.3210 N.am      6 SEP2        0.0000 
     66 N          28.6305   17.9130  -17.5590 N.am      2 SEC2        0.0000 
     67 N          29.2710   19.0170  -16.9150 N.am      6 SEP2        0.0000 
     68 Zn         30.0085   15.4690  -20.6415 Zn        3 ZIC7        0.0000 
     69 Zn         29.4570   16.1520  -20.0220 Zn       11 ZIL7        0.0000 
     70 N          29.3760   16.8080  -21.2340 N.am      2 SEC2        0.0000 
     71 N          29.4570   16.1520  -20.0220 N.am     10 SEL2        0.0000 
     72 N          29.2950   17.4640  -22.4460 N.am      6 SEP2        0.0000 
     73 N          30.3165   17.0050  -19.3560 N.am      2 SEC2        0.0000 
     74 N          31.1760   17.8580  -18.6900 N.am      6 SEP2        0.0000 
     75 CA         32.6762    8.7515   -8.5675 C.3       4 GLC5        0.0000 
     76 CA         33.9220    8.9300   -6.9060 C.3       8 GLP5        0.0000 
     77 CA         30.9736   11.2785  -11.8874 C.3       4 GLC5        0.0000 
     78 CA         27.0667   13.6048  -12.1175 C.3       4 GLC5        0.0000 
     79 CA         25.3300   12.3710  -11.9550 C.3       8 GLP5        0.0000 
     80 CA         30.1073   16.2377  -11.9365 C.3       4 GLC5        0.0000 
     81 CA         30.9756   12.4835  -13.3431 C.3       4 GLC5        0.0000 
     82 CA         30.0370   14.5890  -13.6040 C.3      12 GLL5        0.0000 
     83 CA         31.8101   15.6910  -12.9616 C.3       4 GLC5        0.0000 
     84 CA         30.9420   14.1290  -12.6470 C.3      12 GLL5        0.0000 
     85 CA         30.2235   12.6562  -14.5815 C.3       4 GLC5        0.0000 
@<TRIPOS>BOND
@<TRIPOS>SUBSTRUCTURE
     1 ALC1       22 GROUP        1 X    ALC  0     ROOT ALC X 1
     2 SEC2       17 GROUP        1 X    SEC  0     **** SEC X 2
     3 ZIC7       54 GROUP        1 X    ZIC  0     **** ZIC X 5
     4 GLC5        1 GROUP        1 X    GLC  0     **** GLC X 6
     5 ALP1       24 GROUP        1 Y    ALP  0     ROOT ALP Y 8
     6 SEP2       19 GROUP        1 Y    SEP  0     **** SEP Y 9
     7 ZIP7       56 GROUP        1 Y    ZIP  0     **** ZIP Y 12
     8 GLP5        3 GROUP        1 Y    GLP  0     **** GLP Y 13
     9 ALL1       23 GROUP        1 Z    ALL  0     ROOT ALL Z 15
    10 SEL2       18 GROUP        1 Z    SEL  0     **** SEL Z 16
    11 ZIL7       55 GROUP        1 Z    ZIL  0     **** ZIL Z 19
    12 GLL5        2 GROUP        1 Z    GLL  0     **** GLL Z 20
@<TRIPOS>SET

