#    Name: 1y9d_TPP_7_ligand
#    Modification time : Mon Apr  7 15:39:10 2014

@<TRIPOS>MOLECULE
1y9d_TPP_7_ligand
   42    43     1     0     0
SMALL
NO_CHARGES


@<TRIPOS>ATOM
      1 N1'        32.4550   10.1380  -10.2970 N.ar      1 TPP2902     0.0000 
      2 C2'        31.3680    9.3210  -10.1850 C.ar      1 TPP2902     0.0000 
      3 CM2        31.4930    7.8250  -10.2730 C.3       1 TPP2902     0.0000 
      4 N3'        30.1380    9.8750  -10.0430 N.ar      1 TPP2902     0.0000 
      5 C4'        29.9510   11.2500   -9.9570 C.ar      1 TPP2902     0.0000 
      6 N4'        28.7100   11.6870   -9.7420 N.pl3     1 TPP2902     0.0000 
      7 C5'        31.0520   12.1020  -10.1240 C.ar      1 TPP2902     0.0000 
      8 C6'        32.3130   11.5240  -10.2710 C.ar      1 TPP2902     0.0000 
      9 C7'        30.9570   13.6270  -10.1290 C.3       1 TPP2902     0.0000 
     10 N3         30.3360   14.0740  -11.4100 N.pl3     1 TPP2902     0.0000 
     11 C2         29.0400   14.6220  -11.5250 C.2       1 TPP2902     0.0000 
     12 S1         28.5670   15.0550  -13.0350 S.3       1 TPP2902     0.0000 
     13 C5         30.0370   14.5890  -13.6040 C.2       1 TPP2902     0.0000 
     14 C4         30.9420   14.1290  -12.6470 C.2       1 TPP2902     0.0000 
     15 CM4        32.3330   13.6610  -13.0090 C.3       1 TPP2902     0.0000 
     16 C6         30.3210   14.8000  -15.0770 C.3       1 TPP2902     0.0000 
     17 C7         29.4930   13.9110  -16.0110 C.3       1 TPP2902     0.0000 
     18 O7         30.1390   13.9740  -17.2620 O.3       1 TPP2902     0.0000 
     19 PA         29.4640   13.3920  -18.5440 P.3       1 TPP2902     0.0000 
     20 O1A        30.3640   13.4560  -19.7350 O.co2     1 TPP2902     0.0000 
     21 O2A        28.9240   12.0380  -18.2220 O.co2     1 TPP2902     0.0000 
     22 O3A        28.1600   14.3170  -18.7310 O.3       1 TPP2902     0.0000 
     23 PB         28.1640   15.8170  -19.3080 P.3       1 TPP2902     0.0000 
     24 O1B        27.9900   16.8090  -18.2030 O.co2     1 TPP2902     0.0000 
     25 O2B        26.9340   15.7960  -20.2120 O.co2     1 TPP2902     0.0000 
     26 O3B        29.4570   16.1520  -20.0220 O.co2     1 TPP2902     0.0000 
     27 H          28.5987   12.6782   -9.6708 H         1 TPP2902     0.0000 
     28 H          28.0021   10.9842   -9.6713 H         1 TPP2902     0.0000 
     29 H          33.1439   12.1260  -10.3608 H         1 TPP2902     0.0000 
     30 H          31.9557   14.0410  -10.0301 H         1 TPP2902     0.0000 
     31 H          30.3505   13.9434   -9.2860 H         1 TPP2902     0.0000 
     32 H          28.3950   14.7755  -10.8309 H         1 TPP2902     0.0000 
     33 H          31.3921   14.6135  -15.2719 H         1 TPP2902     0.0000 
     34 H          30.1309   15.8565  -15.3370 H         1 TPP2902     0.0000 
     35 H          28.4881   14.3091  -16.0388 H         1 TPP2902     0.0000 
     36 H          29.4852   12.9133  -15.5942 H         1 TPP2902     0.0000 
     37 H          31.8756    7.5353  -11.1503 H         1 TPP2902     0.0000 
     38 H          32.0891    7.4594   -9.5582 H         1 TPP2902     0.0000 
     39 H          30.6069    7.3719  -10.1758 H         1 TPP2902     0.0000 
     40 H          33.0351   14.1430  -12.4849 H         1 TPP2902     0.0000 
     41 H          32.4540   12.6842  -12.8321 H         1 TPP2902     0.0000 
     42 H          32.5351   13.8108  -13.9768 H         1 TPP2902     0.0000 
@<TRIPOS>BOND
     1    2    1 ar   
     2    8    1 ar   
     3    3    2 1    
     4    4    2 ar   
     5   37    3 1    
     6   38    3 1    
     7   39    3 1    
     8    5    4 ar   
     9    6    5 1    
    10    7    5 ar   
    11   27    6 1    
    12   28    6 1    
    13    8    7 ar   
    14    9    7 1    
    15   29    8 1    
    16   10    9 1    
    17   30    9 1    
    18   31    9 1    
    19   11   10 2    
    20   14   10 1    
    21   12   11 1    
    22   32   11 1    
    23   13   12 1    
    24   14   13 2    
    25   16   13 1    
    26   15   14 1    
    27   40   15 1    
    28   41   15 1    
    29   42   15 1    
    30   17   16 1    
    31   33   16 1    
    32   34   16 1    
    33   18   17 1    
    34   35   17 1    
    35   36   17 1    
    36   19   18 1    
    37   20   19 ar   
    38   21   19 ar   
    39   22   19 1    
    40   23   22 1    
    41   24   23 ar   
    42   25   23 ar   
    43   26   23 ar   
@<TRIPOS>SUBSTRUCTURE
     1 TPP2902     1 GROUP   
@<TRIPOS>SET

