#    Name: 1lol_XMP_1_INTS_M
#    Modification time : Mon Apr  7 14:14:18 2014

@<TRIPOS>MOLECULE
1lol_XMP_1_INTS_M
   55     0    12     0     0
SMALL
NO_CHARGES


@<TRIPOS>ATOM
      1 NZ          3.0445   37.0330   42.3290 N.4       3 LYC4        0.0000 
      2 NZ          4.1210   37.4900   43.5250 N.4      11 LYL4        0.0000 
      3 NZ          2.1840   37.7910   40.6500 N.4       7 LYP4        0.0000 
      4 N           3.0445   37.0330   42.3290 N.am      2 SEC2        0.0000 
      5 N           4.1210   37.4900   43.5250 N.am     10 SEL2        0.0000 
      6 N           1.9680   36.5760   41.1330 N.am      6 SEP2        0.0000 
      7 N           3.4555   38.1010   42.4620 N.am      2 SEC2        0.0000 
      8 N           2.7900   38.7120   41.3990 N.am      6 SEP2        0.0000 
      9 NZ          2.0270   36.4020   42.5985 N.4       3 LYC4        0.0000 
     10 NZ          2.0860   36.2280   44.0640 N.4      11 LYL4        0.0000 
     11 N           1.8795   34.8650   44.1260 N.am      2 SEC2        0.0000 
     12 N           2.0860   36.2280   44.0640 N.am     10 SEL2        0.0000 
     13 N           1.6730   33.5020   44.1880 N.am      6 SEP2        0.0000 
     14 N           2.0270   36.4020   42.5985 N.am      2 SEC2        0.0000 
     15 N           3.4160   35.1700   46.3715 N.am      2 SEC2        0.0000 
     16 N           4.1100   36.0550   45.5710 N.am     10 SEL2        0.0000 
     17 N           2.7220   34.2850   47.1720 N.am      6 SEP2        0.0000 
     18 CA          2.0180   36.0050   46.7410 C.3       4 GLC5        0.0000 
     19 CA          2.5800   38.0430   46.9350 C.3      12 GLL5        0.0000 
     20 CA          1.4560   33.9670   46.5470 C.3       8 GLP5        0.0000 
     21 CA          4.0070   40.0095   48.1230 C.3       4 GLC5        0.0000 
     22 CA          1.9750   39.3120   47.4770 C.3      12 GLL5        0.0000 
     23 CA          6.0390   40.7070   48.7690 C.3       8 GLP5        0.0000 
     24 CA          3.7415   41.7295   48.0790 C.3       4 GLC5        0.0000 
     25 CA          2.2830   41.5810   46.8760 C.3      12 GLL5        0.0000 
     26 CA          5.2000   41.8780   49.2820 C.3       8 GLP5        0.0000 
     27 CA          5.6070   43.3095   45.9605 C.3       4 GLC5        0.0000 
     28 CA          3.5310   43.2280   45.4310 C.3      12 GLL5        0.0000 
     29 CA          7.6830   43.3910   46.4900 C.3       8 GLP5        0.0000 
     30 CA          4.3655   42.5530   47.3565 C.3       4 GLC5        0.0000 
     31 O           6.3430   46.0160   44.8435 O.2       1 ALC1        0.0000 
     32 O           4.9450   45.3310   44.6040 O.2       9 ALL1        0.0000 
     33 O           7.7410   46.7010   45.0830 O.2       5 ALP1        0.0000 
     34 N           5.3835   47.4050   46.2760 N.am      2 SEC2        0.0000 
     35 N           5.0020   46.0670   46.6860 N.am     10 SEL2        0.0000 
     36 N           5.7650   48.7430   45.8660 N.am      6 SEP2        0.0000 
     37 N           6.2725   45.5440   47.5075 N.am      2 SEC2        0.0000 
     38 N           7.5430   45.0210   48.3290 N.am      6 SEP2        0.0000 
     39 N          -0.7795   40.9185   48.9530 N.am      2 SEC2        0.0000 
     40 N           0.2410   41.7550   48.2190 N.am     10 SEL2        0.0000 
     41 N          -1.8000   40.0820   49.6870 N.am      6 SEP2        0.0000 
     42 N          -1.1390   39.7080   48.5690 N.am      2 SEC2        0.0000 
     43 N          -0.4780   39.3340   47.4510 N.am     10 SEL2        0.0000 
     44 O          -1.2345   38.5630   46.6055 O.2       1 ALC1        0.0000 
     45 O          -0.4780   39.3340   47.4510 O.2       9 ALL1        0.0000 
     46 O          -1.9910   37.7920   45.7600 O.2       5 ALP1        0.0000 
     47 CA          2.2252   38.2138   49.2000 C.3       4 GLC5        0.0000 
     48 CA          2.1730   37.7500   51.1940 C.3       8 GLP5        0.0000 
     49 CA          0.1945   39.6245   49.0053 C.3       4 GLC5        0.0000 
     50 CA         -0.9460   39.6790   50.8590 C.3       8 GLP5        0.0000 
     51 CA          1.9465   43.4813   43.8917 C.3       4 GLC5        0.0000 
     52 CA          0.2130   43.6960   43.0250 C.3       8 GLP5        0.0000 
     53 CA          0.6261   37.7739   47.9605 C.3       4 GLC5        0.0000 
     54 CA          0.6950   39.8280   46.8260 C.3      12 GLL5        0.0000 
     55 CA         -0.2340   36.2950   48.9050 C.3       8 GLP5        0.0000 
@<TRIPOS>BOND
@<TRIPOS>SUBSTRUCTURE
     1 ALC1       31 GROUP        1 X    ALC  0     ROOT ALC X 1
     2 SEC2        4 GROUP        1 X    SEC  0     **** SEC X 2
     3 LYC4        1 GROUP        1 X    LYC  0     **** LYC X 4
     4 GLC5       18 GROUP        1 X    GLC  0     **** GLC X 6
     5 ALP1       33 GROUP        1 Y    ALP  0     ROOT ALP Y 8
     6 SEP2        6 GROUP        1 Y    SEP  0     **** SEP Y 9
     7 LYP4        3 GROUP        1 Y    LYP  0     **** LYP Y 11
     8 GLP5       20 GROUP        1 Y    GLP  0     **** GLP Y 13
     9 ALL1       32 GROUP        1 Z    ALL  0     ROOT ALL Z 15
    10 SEL2        5 GROUP        1 Z    SEL  0     **** SEL Z 16
    11 LYL4        2 GROUP        1 Z    LYL  0     **** LYL Z 18
    12 GLL5       19 GROUP        1 Z    GLL  0     **** GLL Z 20
@<TRIPOS>SET

