#    Name: 1lol_XMP_1_ligand
#    Modification time : Mon Apr  7 14:14:18 2014

@<TRIPOS>MOLECULE
1lol_XMP_1_ligand
   35    37     1     0     0
SMALL
NO_CHARGES


@<TRIPOS>ATOM
      1 P           3.2930   36.9480   44.6050 P.3       1 XMP2001     0.0000 
      2 O1P         4.1210   37.4900   43.5250 O.co2     1 XMP2001     0.0000 
      3 O2P         2.0860   36.2280   44.0640 O.co2     1 XMP2001     0.0000 
      4 O5'         2.7110   38.1380   45.5130 O.3       1 XMP2001     0.0000 
      5 O3P         4.1100   36.0550   45.5710 O.co2     1 XMP2001     0.0000 
      6 C5'         2.5800   38.0430   46.9350 C.3       1 XMP2001     0.0000 
      7 C4'         1.9750   39.3120   47.4770 C.3       1 XMP2001     0.0000 
      8 O4'         2.9650   40.3480   47.1690 O.3       1 XMP2001     0.0000 
      9 C1'         2.2830   41.5810   46.8760 C.3       1 XMP2001     0.0000 
     10 N9          2.8090   42.0620   45.5770 N.pl3     1 XMP2001     0.0000 
     11 C4          3.5310   43.2280   45.4310 C.2       1 XMP2001     0.0000 
     12 N3          3.8770   44.1200   46.4320 N.am      1 XMP2001     0.0000 
     13 N1          4.9450   45.3310   44.6040 N.am      1 XMP2001     0.0000 
     14 C2          4.5980   45.1710   45.9500 C.2       1 XMP2001     0.0000 
     15 O2          5.0020   46.0670   46.6860 O.2       1 XMP2001     0.0000 
     16 C6          4.5800   44.4020   43.5770 C.2       1 XMP2001     0.0000 
     17 O6          4.9120   44.5960   42.4140 O.2       1 XMP2001     0.0000 
     18 C5          3.8290   43.3050   44.0860 C.2       1 XMP2001     0.0000 
     19 N7          3.3010   42.1990   43.3690 N.2       1 XMP2001     0.0000 
     20 C8          2.7160   41.5120   44.3180 C.2       1 XMP2001     0.0000 
     21 C2'         0.7860   41.3190   46.9670 C.3       1 XMP2001     0.0000 
     22 O2'         0.2410   41.7550   48.2190 O.3       1 XMP2001     0.0000 
     23 C3'         0.6950   39.8280   46.8260 C.3       1 XMP2001     0.0000 
     24 O3'        -0.4780   39.3340   47.4510 O.3       1 XMP2001     0.0000 
     25 H           3.5547   37.8921   47.4173 H         1 XMP2001     0.0000 
     26 H           1.9340   37.2029   47.2219 H         1 XMP2001     0.0000 
     27 H           1.8575   39.2606   48.5295 H         1 XMP2001     0.0000 
     28 H           2.5483   42.3050   47.6585 H         1 XMP2001     0.0000 
     29 H           3.6275   43.9993   47.3712 H         1 XMP2001     0.0000 
     30 H           5.5006   46.1695   44.3190 H         1 XMP2001     0.0000 
     31 H           2.2246   40.6402   44.1725 H         1 XMP2001     0.0000 
     32 H           0.3202   41.7683   46.1225 H         1 XMP2001     0.0000 
     33 H           0.7456   39.5923   45.7784 H         1 XMP2001     0.0000 
     34 H          -0.0857   42.6848   48.0492 H         1 XMP2001     0.0000 
     35 H          -0.9441   38.8030   46.7433 H         1 XMP2001     0.0000 
@<TRIPOS>BOND
     1    2    1 ar   
     2    3    1 ar   
     3    4    1 1    
     4    5    1 ar   
     5    6    4 1    
     6    7    6 1    
     7   25    6 1    
     8   26    6 1    
     9    8    7 1    
    10   23    7 1    
    11   27    7 1    
    12    9    8 1    
    13   10    9 1    
    14   21    9 1    
    15   28    9 1    
    16   11   10 1    
    17   20   10 1    
    18   12   11 1    
    19   18   11 2    
    20   14   12 am   
    21   29   12 1    
    22   14   13 1    
    23   16   13 am   
    24   30   13 1    
    25   15   14 2    
    26   17   16 2    
    27   18   16 1    
    28   19   18 1    
    29   20   19 2    
    30   31   20 1    
    31   22   21 1    
    32   23   21 1    
    33   32   21 1    
    34   34   22 1    
    35   24   23 1    
    36   33   23 1    
    37   35   24 1    
@<TRIPOS>SUBSTRUCTURE
     1 XMP2001     1 GROUP   
@<TRIPOS>SET

