#    Name: 1ttm_667_1_INTS_M
#    Modification time : Tue Mar 25 05:39:32 2014

@<TRIPOS>MOLECULE
1ttm_667_1_INTS_M
   37     0    12     0     0
SMALL
NO_CHARGES


@<TRIPOS>ATOM
      1 N          22.4660   25.3610   20.7130 N.am      2 SEC2        0.0000 
      2 N          21.3150   26.3360   20.6850 N.am     10 SEL2        0.0000 
      3 N          23.6170   24.3860   20.7410 N.am      6 SEP2        0.0000 
      4 O          21.6830   24.3210   18.2065 O.2       1 ALC1        0.0000 
      5 O          20.7390   25.0690   18.3140 O.2       9 ALL1        0.0000 
      6 O          22.6270   23.5730   18.0990 O.2       5 ALP1        0.0000 
      7 Zn         20.0800   25.2255   17.4845 Zn        3 ZIC7        0.0000 
      8 Zn         20.7390   25.0690   18.3140 Zn       11 ZIL7        0.0000 
      9 Zn         19.4210   25.3820   16.6550 Zn        7 ZIP7        0.0000 
     10 CA         21.7465   28.4185   21.1930 C.3       4 GLC5        0.0000 
     11 CA         21.7450   28.6190   19.0710 C.3      12 GLL5        0.0000 
     12 CA         21.7480   28.2180   23.3150 C.3       8 GLP5        0.0000 
     13 CA         23.3120   27.5975   17.8250 C.3       4 GLC5        0.0000 
     14 CA         24.8790   26.5760   16.5790 C.3       8 GLP5        0.0000 
     15 CA         23.4400   27.7985   21.1685 C.3       4 GLC5        0.0000 
     16 CA         23.0690   28.7160   19.4890 C.3      12 GLL5        0.0000 
     17 CA         23.8110   26.8810   22.8480 C.3       8 GLP5        0.0000 
     18 CA         24.5585   27.9395   18.4270 C.3       4 GLC5        0.0000 
     19 CA         26.0480   27.1630   17.3650 C.3       8 GLP5        0.0000 
     20 CA         21.3560   34.0405   22.2110 C.3       4 GLC5        0.0000 
     21 CA         22.3350   33.5890   20.7000 C.3      12 GLL5        0.0000 
     22 CA         20.3770   34.4920   23.7220 C.3       8 GLP5        0.0000 
     23 CA         22.4335   34.7370   23.6715 C.3       4 GLC5        0.0000 
     24 CA         23.9120   33.7640   23.2780 C.3      12 GLL5        0.0000 
     25 CA         20.9550   35.7100   24.0650 C.3       8 GLP5        0.0000 
     26 CA         22.8820   33.4375   25.0355 C.3       4 GLC5        0.0000 
     27 CA         21.8520   33.1110   26.7930 C.3       8 GLP5        0.0000 
     28 CA         23.5652   29.8893   21.8370 C.3       4 GLC5        0.0000 
     29 CA         23.5700   29.9610   19.9990 C.3      12 GLL5        0.0000 
     30 CA         23.9980   29.2360   23.6350 C.3       8 GLP5        0.0000 
     31 CA         24.3860   30.9580   22.7460 C.3       4 GLC5        0.0000 
     32 CA         24.7000   32.6450   21.0920 C.3      12 GLL5        0.0000 
     33 CA         26.2570   31.8485   22.0200 C.3       4 GLC5        0.0000 
     34 CA         24.8480   32.7150   22.6220 C.3      12 GLL5        0.0000 
     35 CA         27.7400   31.0170   22.1830 C.3       8 GLP5        0.0000 
     36 CA         22.1132   35.3775   22.9545 C.3       4 GLC5        0.0000 
     37 CA         23.7850   35.0700   22.4410 C.3      12 GLL5        0.0000 
@<TRIPOS>BOND
@<TRIPOS>SUBSTRUCTURE
     1 ALC1        4 GROUP        1 X    ALC  0     ROOT ALC X 1
     2 SEC2        1 GROUP        1 X    SEC  0     **** SEC X 2
     3 ZIC7        7 GROUP        1 X    ZIC  0     **** ZIC X 5
     4 GLC5       10 GROUP        1 X    GLC  0     **** GLC X 6
     5 ALP1        6 GROUP        1 Y    ALP  0     ROOT ALP Y 8
     6 SEP2        3 GROUP        1 Y    SEP  0     **** SEP Y 9
     7 ZIP7        9 GROUP        1 Y    ZIP  0     **** ZIP Y 12
     8 GLP5       12 GROUP        1 Y    GLP  0     **** GLP Y 13
     9 ALL1        5 GROUP        1 Z    ALL  0     ROOT ALL Z 15
    10 SEL2        2 GROUP        1 Z    SEL  0     **** SEL Z 16
    11 ZIL7        8 GROUP        1 Z    ZIL  0     **** ZIL Z 19
    12 GLL5       11 GROUP        1 Z    GLL  0     **** GLL Z 20
@<TRIPOS>SET

