#    Name: 1ttm_667_1_ligand
#    Modification time : Tue Mar 25 05:39:32 2014

@<TRIPOS>MOLECULE
1ttm_667_1_ligand
   35    37     1     0     0
SMALL
NO_CHARGES


@<TRIPOS>ATOM
      1 S1         20.5690   26.4520   19.2310 S.o2      1 667264      0.0000 
      2 O1         21.3150   26.3360   20.6850 O.2       1 667264      0.0000 
      3 O2         19.0570   27.0450   19.3460 O.2       1 667264      0.0000 
      4 O3         21.2820   27.4270   18.5820 O.3       1 667264      0.0000 
      5 N1         20.7390   25.0690   18.3140 N.pl3     1 667264      0.0000 
      6 C1         21.7450   28.6190   19.0710 C.ar      1 667264      0.0000 
      7 C2         23.0690   28.7160   19.4890 C.ar      1 667264      0.0000 
      8 C3         23.5700   29.9610   19.9990 C.ar      1 667264      0.0000 
      9 C4         22.6950   31.1240   20.0790 C.ar      1 667264      0.0000 
     10 C5         21.2990   30.9990   19.6420 C.ar      1 667264      0.0000 
     11 C6         20.8240   29.7470   19.1310 C.ar      1 667264      0.0000 
     12 C7         23.2110   32.5060   20.6320 C.2       1 667264      0.0000 
     13 C8         22.3350   33.5890   20.7000 C.2       1 667264      0.0000 
     14 C9         20.8620   33.4090   20.2290 C.2       1 667264      0.0000 
     15 C10        24.7000   32.6450   21.0920 C.3       1 667264      0.0000 
     16 C11        22.7580   35.0200   21.2470 C.3       1 667264      0.0000 
     17 O5         20.0950   34.3550   20.2900 O.2       1 667264      0.0000 
     18 O4         20.2490   31.9870   19.6280 O.3       1 667264      0.0000 
     19 C12        23.7850   35.0700   22.4410 C.3       1 667264      0.0000 
     20 C13        23.9120   33.7640   23.2780 C.3       1 667264      0.0000 
     21 C14        24.8480   32.7150   22.6220 C.3       1 667264      0.0000 
     22 H          21.5617   24.5266   18.4841 H         1 667264      0.0000 
     23 H          23.6984   27.9144   19.4409 H         1 667264      0.0000 
     24 H          24.5296   30.0410   20.3055 H         1 667264      0.0000 
     25 H          19.8791   29.6382   18.8184 H         1 667264      0.0000 
     26 H          25.1148   33.5516   20.6458 H         1 667264      0.0000 
     27 H          25.2589   31.7867   20.7126 H         1 667264      0.0000 
     28 H          21.8369   35.5509   21.5565 H         1 667264      0.0000 
     29 H          23.1789   35.5962   20.4003 H         1 667264      0.0000 
     30 H          23.4907   35.8944   23.1108 H         1 667264      0.0000 
     31 H          24.7749   35.3266   22.0299 H         1 667264      0.0000 
     32 H          22.9187   33.3265   23.3989 H         1 667264      0.0000 
     33 H          24.3008   34.0171   24.2666 H         1 667264      0.0000 
     34 H          25.8843   32.9662   22.8713 H         1 667264      0.0000 
     35 H          24.6256   31.7317   23.0496 H         1 667264      0.0000 
@<TRIPOS>BOND
     1    2    1 2    
     2    3    1 2    
     3    4    1 1    
     4    5    1 1    
     5    6    4 1    
     6   22    5 1    
     7    7    6 ar   
     8   11    6 ar   
     9    8    7 ar   
    10   23    7 1    
    11    9    8 ar   
    12   24    8 1    
    13   10    9 ar   
    14   12    9 1    
    15   11   10 ar   
    16   18   10 1    
    17   25   11 1    
    18   13   12 2    
    19   15   12 1    
    20   14   13 1    
    21   16   13 1    
    22   17   14 2    
    23   18   14 1    
    24   21   15 1    
    25   26   15 1    
    26   27   15 1    
    27   19   16 1    
    28   28   16 1    
    29   29   16 1    
    30   20   19 1    
    31   30   19 1    
    32   31   19 1    
    33   21   20 1    
    34   32   20 1    
    35   33   20 1    
    36   34   21 1    
    37   35   21 1    
@<TRIPOS>SUBSTRUCTURE
     1 667264      1 GROUP   
@<TRIPOS>SET

