#    Name: 2fy4_COA_1_INTS_M
#    Modification time : Tue Mar 25 13:14:05 2014

@<TRIPOS>MOLECULE
2fy4_COA_1_INTS_M
   93     0    12     0     0
SMALL
NO_CHARGES


@<TRIPOS>ATOM
      1 CA         30.5050   -4.0920   75.6475 C.3       4 GLC5        0.0000 
      2 CA         29.6740   -5.7120   76.6520 C.3      12 GLL5        0.0000 
      3 CA         31.3360   -2.4720   74.6430 C.3       8 GLP5        0.0000 
      4 CA         30.1275   -4.7700   78.5940 C.3       4 GLC5        0.0000 
      5 CA         30.5810   -3.8280   80.5360 C.3       8 GLP5        0.0000 
      6 CA         27.4870   -4.2000   78.7090 C.3       4 GLC5        0.0000 
      7 CA         27.7200   -6.0590   77.8570 C.3      12 GLL5        0.0000 
      8 CA         27.2540   -2.3410   79.5610 C.3       8 GLP5        0.0000 
      9 O          27.7115   -5.1525   80.1810 O.2       1 ALC1        0.0000 
     10 O          27.0890   -6.1660   79.0180 O.2       9 ALL1        0.0000 
     11 O          28.3340   -4.1390   81.3440 O.2       5 ALP1        0.0000 
     12 CA         28.3265   -4.7870   72.2380 C.3       4 GLC5        0.0000 
     13 CA         27.0740   -5.9660   73.0390 C.3      12 GLL5        0.0000 
     14 CA         29.5790   -3.6080   71.4370 C.3       8 GLP5        0.0000 
     15 CA         26.2895   -4.0645   73.5665 C.3       4 GLC5        0.0000 
     16 CA         25.5050   -2.1630   74.0940 C.3       8 GLP5        0.0000 
     17 NZ         27.4595   -3.5090   67.6085 N.4       3 LYC4        0.0000 
     18 NZ         27.9440   -5.3280   68.0020 N.4      11 LYL4        0.0000 
     19 NZ         26.9750   -1.6900   67.2150 N.4       7 LYP4        0.0000 
     20 NZ         29.0395   -4.7195   69.0770 N.4       3 LYC4        0.0000 
     21 NZ         30.1350   -4.1110   70.1520 N.4       7 LYP4        0.0000 
     22 N          29.0395   -4.7195   69.0770 N.am      2 SEC2        0.0000 
     23 N          27.9440   -5.3280   68.0020 N.am     10 SEL2        0.0000 
     24 N          30.1350   -4.1110   70.1520 N.am      6 SEP2        0.0000 
     25 NZ         29.8630   -5.6640   69.4110 N.4       3 LYC4        0.0000 
     26 NZ         29.5910   -7.2170   68.6700 N.4      11 LYL4        0.0000 
     27 N          22.0840   -5.8660   74.7885 N.am      2 SEC2        0.0000 
     28 N          22.5490   -5.0570   73.8060 N.am     10 SEL2        0.0000 
     29 N          21.6190   -6.6750   75.7710 N.am      6 SEP2        0.0000 
     30 N          22.5590   -2.8470   74.8080 N.am      2 SEC2        0.0000 
     31 N          22.8260   -2.5580   73.2640 N.am     10 SEL2        0.0000 
     32 N          22.2920   -3.1360   76.3520 N.am      6 SEP2        0.0000 
     33 N          22.5740   -1.4330   73.7095 N.am      2 SEC2        0.0000 
     34 N          22.3220   -0.3080   74.1550 N.am      6 SEP2        0.0000 
     35 N          21.1140   -7.6600   71.7445 N.am      2 SEC2        0.0000 
     36 N          20.7950   -6.3380   71.6720 N.am     10 SEL2        0.0000 
     37 N          21.4330   -8.9820   71.8170 N.am      6 SEP2        0.0000 
     38 CA         19.2140   -6.1715   73.2155 C.3       4 GLC5        0.0000 
     39 CA         18.3670   -4.6090   72.1770 C.3      12 GLL5        0.0000 
     40 CA         20.0610   -7.7340   74.2540 C.3       8 GLP5        0.0000 
     41 CA         19.2330   -2.9105   72.8975 C.3       4 GLC5        0.0000 
     42 CA         20.0990   -1.2120   73.6180 C.3       8 GLP5        0.0000 
     43 CA         14.6870   -4.3200   73.8100 C.3       4 GLC5        0.0000 
     44 CA         15.9050   -4.7770   72.5650 C.3      12 GLL5        0.0000 
     45 CA         13.4690   -3.8630   75.0550 C.3       8 GLP5        0.0000 
     46 CA         15.0195   -6.5785   72.7160 C.3       4 GLC5        0.0000 
     47 CA         14.1340   -8.3800   72.8670 C.3       8 GLP5        0.0000 
     48 CA         17.2145   -1.1290   70.0285 C.3       4 GLC5        0.0000 
     49 CA         16.8130   -3.0090   71.0520 C.3      12 GLL5        0.0000 
     50 CA         17.6160    0.7510   69.0050 C.3       8 GLP5        0.0000 
     51 N          13.2830   -6.0005   69.5940 N.am      2 SEC2        0.0000 
     52 N          14.6280   -5.7460   69.7130 N.am     10 SEL2        0.0000 
     53 N          11.9380   -6.2550   69.4750 N.am      6 SEP2        0.0000 
     54 CA         14.7340   -3.9655   65.4870 C.3       4 GLC5        0.0000 
     55 CA         14.8320   -4.1210   67.4510 C.3      12 GLL5        0.0000 
     56 CA         14.6360   -3.8100   63.5230 C.3       8 GLP5        0.0000 
     57 CA         13.7310   -5.6945   67.4005 C.3       4 GLC5        0.0000 
     58 CA         12.6300   -7.2680   67.3500 C.3       8 GLP5        0.0000 
     59 CA         15.0365   -2.6685   65.6230 C.3       4 GLC5        0.0000 
     60 CA         14.4380   -2.6440   67.5030 C.3      12 GLL5        0.0000 
     61 CA         15.6350   -2.6930   63.7430 C.3       8 GLP5        0.0000 
     62 O          14.6130   -0.5730   66.2095 O.2       1 ALC1        0.0000 
     63 O          13.2860   -1.3030   65.8450 O.2       9 ALL1        0.0000 
     64 O          15.9400    0.1570   66.5740 O.2       5 ALP1        0.0000 
     65 CA         12.0180   -0.7275   62.9275 C.3       4 GLC5        0.0000 
     66 CA         12.2060   -0.9730   64.9070 C.3      12 GLL5        0.0000 
     67 CA         11.8300   -0.4820   60.9480 C.3       8 GLP5        0.0000 
     68 CA         13.4210   -2.3915   64.2150 C.3       4 GLC5        0.0000 
     69 CA         13.3755    0.6695   64.5160 C.3       4 GLC5        0.0000 
     70 CA         14.5450    2.3120   64.1250 C.3       8 GLP5        0.0000 
     71 CA         10.6555   -0.7940   67.4570 C.3       4 GLC5        0.0000 
     72 CA         10.9560   -0.6340   65.7210 C.3      12 GLL5        0.0000 
     73 CA         10.3550   -0.9540   69.1930 C.3       8 GLP5        0.0000 
     74 CA         11.6190    0.8585   67.0565 C.3       4 GLC5        0.0000 
     75 CA         12.2820    2.3510   68.3920 C.3       8 GLP5        0.0000 
     76 CA         10.6705   -0.4365   62.7885 C.3       4 GLC5        0.0000 
     77 CA          9.5110   -0.3910   64.6290 C.3      12 GLL5        0.0000 
     78 CA         26.0948   -4.5330   76.9386 C.3       4 GLC5        0.0000 
     79 CA         27.6940   -5.9810   75.4700 C.3      12 GLL5        0.0000 
     80 CA         24.6550   -3.0070   76.9150 C.3       8 GLP5        0.0000 
     81 CA         24.7433   -7.6292   70.7818 C.3       4 GLC5        0.0000 
     82 CA         26.5530   -7.1810   72.2710 C.3      12 GLL5        0.0000 
     83 CA         22.9390   -8.3680   69.9980 C.3       8 GLP5        0.0000 
     84 CA         27.9117   -4.7598   71.2142 C.3       4 GLC5        0.0000 
     85 CA         26.5420   -6.6000   70.8600 C.3      12 GLL5        0.0000 
     86 CA         24.0663   -6.8330   70.6107 C.3       4 GLC5        0.0000 
     87 CA         25.9470   -5.2230   71.1230 C.3      12 GLL5        0.0000 
     88 CA         25.3492   -3.7305   72.6587 C.3       4 GLC5        0.0000 
     89 CA         24.4400   -5.3730   71.3240 C.3      12 GLL5        0.0000 
     90 CA         16.7551   -5.2584   73.9631 C.3       4 GLC5        0.0000 
     91 CA         16.7190   -5.8630   75.7160 C.3       8 GLP5        0.0000 
     92 CA          9.5802   -1.8937   63.9740 C.3       4 GLC5        0.0000 
     93 CA          8.9270   -3.2750   62.7730 C.3       8 GLP5        0.0000 
@<TRIPOS>BOND
@<TRIPOS>SUBSTRUCTURE
     1 ALC1        9 GROUP        1 X    ALC  0     ROOT ALC X 1
     2 SEC2       22 GROUP        1 X    SEC  0     **** SEC X 2
     3 LYC4       17 GROUP        1 X    LYC  0     **** LYC X 4
     4 GLC5        1 GROUP        1 X    GLC  0     **** GLC X 6
     5 ALP1       11 GROUP        1 Y    ALP  0     ROOT ALP Y 8
     6 SEP2       24 GROUP        1 Y    SEP  0     **** SEP Y 9
     7 LYP4       19 GROUP        1 Y    LYP  0     **** LYP Y 11
     8 GLP5        3 GROUP        1 Y    GLP  0     **** GLP Y 13
     9 ALL1       10 GROUP        1 Z    ALL  0     ROOT ALL Z 15
    10 SEL2       23 GROUP        1 Z    SEL  0     **** SEL Z 16
    11 LYL4       18 GROUP        1 Z    LYL  0     **** LYL Z 18
    12 GLL5        2 GROUP        1 Z    GLL  0     **** GLL Z 20
@<TRIPOS>SET

