#    Name: 2fy4_COA_1_ligand
#    Modification time : Tue Mar 25 13:14:05 2014

@<TRIPOS>MOLECULE
2fy4_COA_1_ligand
   79    81     1     0     0
SMALL
NO_CHARGES


@<TRIPOS>ATOM
      1 N1A        29.0480   -5.8470   77.8070 N.ar      1 COA2000     0.0000 
      2 C2A        29.6740   -5.7120   76.6520 C.ar      1 COA2000     0.0000 
      3 N3A        29.0210   -5.7750   75.5020 N.ar      1 COA2000     0.0000 
      4 C4A        27.6940   -5.9810   75.4700 C.ar      1 COA2000     0.0000 
      5 C5A        27.0040   -6.1370   76.6650 C.ar      1 COA2000     0.0000 
      6 C6A        27.7200   -6.0590   77.8570 C.ar      1 COA2000     0.0000 
      7 N6A        27.0890   -6.1660   79.0180 N.pl3     1 COA2000     0.0000 
      8 N7A        25.7220   -6.3090   76.3730 N.2       1 COA2000     0.0000 
      9 C8A        25.6030   -6.2540   75.0470 C.2       1 COA2000     0.0000 
     10 N9A        26.7980   -6.0560   74.4930 N.pl3     1 COA2000     0.0000 
     11 C1B        27.0740   -5.9660   73.0390 C.3       1 COA2000     0.0000 
     12 C2B        26.5530   -7.1810   72.2710 C.3       1 COA2000     0.0000 
     13 O2B        27.4860   -8.2570   72.3820 O.3       1 COA2000     0.0000 
     14 C3B        26.5420   -6.6000   70.8600 C.3       1 COA2000     0.0000 
     15 O3B        27.8660   -6.4380   70.3520 O.3       1 COA2000     0.0000 
     16 P3B        28.0600   -6.7300   68.7840 P.3       1 COA2000     0.0000 
     17 O7A        27.0730   -7.7320   68.3170 O.co2     1 COA2000     0.0000 
     18 O8A        27.9440   -5.3280   68.0020 O.co2     1 COA2000     0.0000 
     19 O9A        29.5910   -7.2170   68.6700 O.co2     1 COA2000     0.0000 
     20 C4B        25.9470   -5.2230   71.1230 C.3       1 COA2000     0.0000 
     21 O4B        26.5110   -4.8120   72.3860 O.3       1 COA2000     0.0000 
     22 C5B        24.4400   -5.3730   71.3240 C.3       1 COA2000     0.0000 
     23 O5B        24.0800   -4.1400   71.9310 O.3       1 COA2000     0.0000 
     24 P1A        22.7580   -3.9690   72.8210 P.3       1 COA2000     0.0000 
     25 O1A        22.5490   -5.0570   73.8060 O.co2     1 COA2000     0.0000 
     26 O2A        22.8260   -2.5580   73.2640 O.co2     1 COA2000     0.0000 
     27 O3A        21.6960   -3.9090   71.6140 O.3       1 COA2000     0.0000 
     28 P2A        20.7370   -5.0320   70.9800 P.3       1 COA2000     0.0000 
     29 O4A        20.7950   -6.3380   71.6720 O.co2     1 COA2000     0.0000 
     30 O5A        21.0970   -4.9240   69.5480 O.co2     1 COA2000     0.0000 
     31 O6A        19.3280   -4.2750   71.1760 O.3       1 COA2000     0.0000 
     32 CBP        16.9880   -4.4520   71.5340 C.3       1 COA2000     0.0000 
     33 CCP        18.3670   -4.6090   72.1770 C.3       1 COA2000     0.0000 
     34 CDP        15.9050   -4.7770   72.5650 C.3       1 COA2000     0.0000 
     35 CEP        16.8130   -3.0090   71.0520 C.3       1 COA2000     0.0000 
     36 CAP        16.9330   -5.4140   70.3420 C.3       1 COA2000     0.0000 
     37 OAP        16.8920   -6.7580   70.8270 O.3       1 COA2000     0.0000 
     38 C9P        15.7020   -5.2050   69.4590 C.2       1 COA2000     0.0000 
     39 O9P        14.6280   -5.7460   69.7130 O.2       1 COA2000     0.0000 
     40 N8P        15.9090   -4.4210   68.4040 N.am      1 COA2000     0.0000 
     41 C7P        14.8320   -4.1210   67.4510 C.3       1 COA2000     0.0000 
     42 C6P        14.4380   -2.6440   67.5030 C.3       1 COA2000     0.0000 
     43 C5P        13.2540   -2.4270   66.5610 C.2       1 COA2000     0.0000 
     44 O5P        12.3620   -3.2650   66.4830 O.2       1 COA2000     0.0000 
     45 N4P        13.2860   -1.3030   65.8450 N.am      1 COA2000     0.0000 
     46 C3P        12.2060   -0.9730   64.9070 C.3       1 COA2000     0.0000 
     47 C2P        10.9560   -0.6340   65.7210 C.3       1 COA2000     0.0000 
     48 S1P         9.5110   -0.3910   64.6290 S.3       1 COA2000     0.0000 
     49 H          30.7219   -5.5497   76.6439 H         1 COA2000     0.0000 
     50 H          27.6567   -6.0807   79.8368 H         1 COA2000     0.0000 
     51 H          26.1025   -6.3223   78.9699 H         1 COA2000     0.0000 
     52 H          24.7601   -6.3458   74.5524 H         1 COA2000     0.0000 
     53 H          28.1699   -5.9635   72.8784 H         1 COA2000     0.0000 
     54 H          25.5864   -7.3794   72.5705 H         1 COA2000     0.0000 
     55 H          25.8933   -7.1414   70.2642 H         1 COA2000     0.0000 
     56 H          26.1610   -4.5780   70.3519 H         1 COA2000     0.0000 
     57 H          24.2703   -6.2123   71.9652 H         1 COA2000     0.0000 
     58 H          23.9866   -5.5071   70.3645 H         1 COA2000     0.0000 
     59 H          18.4164   -3.9416   73.0297 H         1 COA2000     0.0000 
     60 H          18.4652   -5.6354   72.5114 H         1 COA2000     0.0000 
     61 H          17.8144   -5.2609   69.7356 H         1 COA2000     0.0000 
     62 H          16.8266   -3.9847   68.1981 H         1 COA2000     0.0000 
     63 H          13.9407   -4.7219   67.6728 H         1 COA2000     0.0000 
     64 H          15.1457   -4.3565   66.4260 H         1 COA2000     0.0000 
     65 H          15.2701   -2.0387   67.1805 H         1 COA2000     0.0000 
     66 H          14.1497   -2.3844   68.5091 H         1 COA2000     0.0000 
     67 H          14.0560   -0.6162   65.9089 H         1 COA2000     0.0000 
     68 H          11.9795   -1.8154   64.2631 H         1 COA2000     0.0000 
     69 H          12.4665   -0.1121   64.3016 H         1 COA2000     0.0000 
     70 H          11.0131    0.3005   66.2269 H         1 COA2000     0.0000 
     71 H          10.6276   -1.4245   66.3532 H         1 COA2000     0.0000 
     72 H          15.9850   -5.7141   72.9048 H         1 COA2000     0.0000 
     73 H          15.9550   -4.1718   73.3595 H         1 COA2000     0.0000 
     74 H          14.9864   -4.6818   72.1813 H         1 COA2000     0.0000 
     75 H          16.8810   -2.3550   71.8054 H         1 COA2000     0.0000 
     76 H          17.5084   -2.7551   70.3798 H         1 COA2000     0.0000 
     77 H          15.9223   -2.8671   70.6202 H         1 COA2000     0.0000 
     78 H          28.3598   -7.8737   72.0827 H         1 COA2000     0.0000 
     79 H          15.9319   -7.0291   70.7571 H         1 COA2000     0.0000 
@<TRIPOS>BOND
     1    2    1 ar   
     2    6    1 ar   
     3    3    2 ar   
     4   49    2 1    
     5    4    3 ar   
     6    5    4 ar   
     7   10    4 1    
     8    6    5 ar   
     9    8    5 1    
    10    7    6 1    
    11   50    7 1    
    12   51    7 1    
    13    9    8 2    
    14   10    9 1    
    15   52    9 1    
    16   11   10 1    
    17   12   11 1    
    18   21   11 1    
    19   53   11 1    
    20   13   12 1    
    21   14   12 1    
    22   54   12 1    
    23   78   13 1    
    24   15   14 1    
    25   20   14 1    
    26   55   14 1    
    27   16   15 1    
    28   17   16 ar   
    29   18   16 ar   
    30   19   16 ar   
    31   21   20 1    
    32   22   20 1    
    33   56   20 1    
    34   23   22 1    
    35   57   22 1    
    36   58   22 1    
    37   24   23 1    
    38   25   24 ar   
    39   26   24 ar   
    40   27   24 1    
    41   28   27 1    
    42   29   28 ar   
    43   30   28 ar   
    44   31   28 1    
    45   33   31 1    
    46   33   32 1    
    47   34   32 1    
    48   35   32 1    
    49   36   32 1    
    50   59   33 1    
    51   60   33 1    
    52   72   34 1    
    53   73   34 1    
    54   74   34 1    
    55   75   35 1    
    56   76   35 1    
    57   77   35 1    
    58   37   36 1    
    59   38   36 1    
    60   61   36 1    
    61   79   37 1    
    62   39   38 2    
    63   40   38 am   
    64   41   40 1    
    65   62   40 1    
    66   42   41 1    
    67   63   41 1    
    68   64   41 1    
    69   43   42 1    
    70   65   42 1    
    71   66   42 1    
    72   44   43 2    
    73   45   43 am   
    74   46   45 1    
    75   67   45 1    
    76   47   46 1    
    77   68   46 1    
    78   69   46 1    
    79   48   47 1    
    80   70   47 1    
    81   71   47 1    
@<TRIPOS>SUBSTRUCTURE
     1 COA2000     1 GROUP   
@<TRIPOS>SET

