#    Name: 2g94_ZPQ_1_INTS_M
#    Modification time : Tue Mar 25 13:47:08 2014

@<TRIPOS>MOLECULE
2g94_ZPQ_1_INTS_M
  113     0     9     0     0
SMALL
NO_CHARGES


@<TRIPOS>ATOM
      1 CA          0.5890   -4.4480   35.1310 C.3       3 GLC5        0.0000 
      2 CA          1.9840   -5.6010   34.5190 C.3       9 GLL5        0.0000 
      3 CA         -0.8060   -3.2950   35.7430 C.3       6 GLP5        0.0000 
      4 N           4.0715   -3.7850   32.2040 N.am      2 SEC2        0.0000 
      5 N           3.1050   -4.3720   32.7670 N.am      8 SEL2        0.0000 
      6 N           5.0380   -3.1980   31.6410 N.am      5 SEP2        0.0000 
      7 CA          3.8640   -5.5590   35.6220 C.3       3 GLC5        0.0000 
      8 CA          3.5180   -3.4650   35.2730 C.3       9 GLL5        0.0000 
      9 CA          4.2100   -7.6530   35.9710 C.3       6 GLP5        0.0000 
     10 CA          4.6795   -3.8490   36.9895 C.3       3 GLC5        0.0000 
     11 CA          5.8410   -4.2330   38.7060 C.3       6 GLP5        0.0000 
     12 CA          1.3560   -3.3800   35.5080 C.3       3 GLC5        0.0000 
     13 CA          3.7860   -2.2245   33.5730 C.3       3 GLC5        0.0000 
     14 CA          4.0540   -0.9840   31.8730 C.3       6 GLP5        0.0000 
     15 CA          4.5865   -1.7685   35.4410 C.3       3 GLC5        0.0000 
     16 CA          5.6550   -0.0720   35.6090 C.3       6 GLP5        0.0000 
     17 CA          2.2235   -8.0395   30.8950 C.3       3 GLC5        0.0000 
     18 CA          2.2360   -5.8200   30.8060 C.3       9 GLL5        0.0000 
     19 CA          2.2110  -10.2590   30.9840 C.3       6 GLP5        0.0000 
     20 CA          1.5060   -8.8195   32.0850 C.3       3 GLC5        0.0000 
     21 CA          0.8010   -7.3800   33.1860 C.3       9 GLL5        0.0000 
     22 CA          0.4340   -9.3875   33.6300 C.3       3 GLC5        0.0000 
     23 CA          0.0670  -11.3950   34.0740 C.3       6 GLP5        0.0000 
     24 N           1.8110   -2.3330   31.0805 N.am      2 SEC2        0.0000 
     25 N           0.9980   -3.3940   30.3070 N.am      8 SEL2        0.0000 
     26 N           2.6240   -1.2720   31.8540 N.am      5 SEP2        0.0000 
     27 CA         -0.7365   -2.2805   31.1985 C.3       3 GLC5        0.0000 
     28 CA         -1.8500   -3.3340   29.6050 C.3       9 GLL5        0.0000 
     29 CA          0.3770   -1.2270   32.7920 C.3       6 GLP5        0.0000 
     30 CA         -3.9200   -2.4380   27.8805 C.3       3 GLC5        0.0000 
     31 CA         -2.0480   -3.1530   28.0760 C.3       9 GLL5        0.0000 
     32 CA         -5.7920   -1.7230   27.6850 C.3       6 GLP5        0.0000 
     33 CA         -2.7390   -4.4130   26.9785 C.3       3 GLC5        0.0000 
     34 CA         -3.4300   -5.6730   25.8810 C.3       6 GLP5        0.0000 
     35 N          -4.8190   -4.3970   28.2480 N.am      2 SEC2        0.0000 
     36 N          -4.1370   -4.0120   29.6070 N.am      8 SEL2        0.0000 
     37 N          -5.5010   -4.7820   26.8890 N.am      5 SEP2        0.0000 
     38 O          -1.8505   -3.8645   32.5070 O.2       1 ALC1        0.0000 
     39 O          -3.0360   -3.9860   31.6190 O.2       7 ALL1        0.0000 
     40 O          -0.6650   -3.7430   33.3950 O.2       4 ALP1        0.0000 
     41 CA         -4.6560   -6.9150   34.9440 C.3       3 GLC5        0.0000 
     42 CA         -3.7950   -5.6640   33.3040 C.3       9 GLL5        0.0000 
     43 CA         -5.5170   -8.1660   36.5840 C.3       6 GLP5        0.0000 
     44 CA         -6.0690   -7.1115   31.5165 C.3       3 GLC5        0.0000 
     45 CA         -4.3290   -7.5100   31.5750 C.3       9 GLL5        0.0000 
     46 CA         -7.8090   -6.7130   31.4580 C.3       6 GLP5        0.0000 
     47 CA         -4.9310   -9.1875   32.3645 C.3       3 GLC5        0.0000 
     48 CA         -5.5330  -10.8650   33.1540 C.3       6 GLP5        0.0000 
     49 CA         -2.1295   -8.0270   35.0620 C.3       3 GLC5        0.0000 
     50 CA         -2.8050   -7.9870   33.5000 C.3       9 GLL5        0.0000 
     51 CA         -1.4540   -8.0670   36.6240 C.3       6 GLP5        0.0000 
     52 CA         -4.1690   -9.4260   33.3270 C.3       3 GLC5        0.0000 
     53 CA         -2.0040   -9.9465   33.7830 C.3       3 GLC5        0.0000 
     54 CA         -1.2030  -11.9060   34.0660 C.3       6 GLP5        0.0000 
     55 CA         -4.1610   -8.0765   35.0420 C.3       3 GLC5        0.0000 
     56 CA         -6.4735   -1.1065   34.8705 C.3       3 GLC5        0.0000 
     57 CA         -6.6620   -1.5430   32.7540 C.3       9 GLL5        0.0000 
     58 CA         -6.2850   -0.6700   36.9870 C.3       6 GLP5        0.0000 
     59 CA         -8.4995    0.6500   33.3715 C.3       3 GLC5        0.0000 
     60 CA         -6.7260   -0.1000   32.2390 C.3       9 GLL5        0.0000 
     61 CA        -10.2730    1.4000   34.5040 C.3       6 GLP5        0.0000 
     62 CA         -6.5065    1.6120   33.2880 C.3       3 GLC5        0.0000 
     63 CA         -6.2870    3.3240   34.3370 C.3       6 GLP5        0.0000 
     64 N          -3.9995   -3.2560   35.4145 N.am      2 SEC2        0.0000 
     65 N          -4.1550   -2.8940   34.2330 N.am      8 SEL2        0.0000 
     66 N          -3.8440   -3.6180   36.5960 N.am      5 SEP2        0.0000 
     67 O          -3.7560   -1.6715   34.2110 O.2       1 ALC1        0.0000 
     68 O          -4.1550   -2.8940   34.2330 O.2       7 ALL1        0.0000 
     69 O          -3.3570   -0.4490   34.1890 O.2       4 ALP1        0.0000 
     70 N          -7.6115   -3.1425   29.7495 N.am      2 SEC2        0.0000 
     71 N          -7.9100   -2.7650   31.0800 N.am      8 SEL2        0.0000 
     72 N          -7.3130   -3.5200   28.4190 N.am      5 SEP2        0.0000 
     73 O          -8.6155   -1.8130   34.4380 O.2       1 ALC1        0.0000 
     74 O          -8.9360   -2.3980   33.0750 O.2       7 ALL1        0.0000 
     75 O          -8.2950   -1.2280   35.8010 O.2       4 ALP1        0.0000 
     76 CA         -9.9570   -3.9790   35.3145 C.3       3 GLC5        0.0000 
     77 CA        -11.0690   -3.4600   33.8710 C.3       9 GLL5        0.0000 
     78 CA         -8.8450   -4.4980   36.7580 C.3       6 GLP5        0.0000 
     79 CA        -12.0425   -6.2110   33.3880 C.3       3 GLC5        0.0000 
     80 CA        -12.2430   -4.3610   33.4340 C.3       9 GLL5        0.0000 
     81 CA        -11.8420   -8.0610   33.3420 C.3       6 GLP5        0.0000 
     82 CA        -10.3510   -2.7125   36.0560 C.3       3 GLC5        0.0000 
     83 CA        -11.6220   -2.2120   34.5570 C.3       9 GLL5        0.0000 
     84 CA         -9.0800   -3.2130   37.5550 C.3       6 GLP5        0.0000 
     85 CA        -11.7625   -1.0000   36.0750 C.3       3 GLC5        0.0000 
     86 CA        -11.9030    0.2120   37.5930 C.3       6 GLP5        0.0000 
     87 CA        -10.9475   -0.4060   34.5305 C.3       3 GLC5        0.0000 
     88 N         -11.3465    0.1055   32.2560 N.am      2 SEC2        0.0000 
     89 N         -10.7850   -0.9330   31.7260 N.am      8 SEL2        0.0000 
     90 N         -11.9080    1.1440   32.7860 N.am      5 SEP2        0.0000 
     91 O         -11.4250   -4.1500   30.4880 O.2       1 ALC1        0.0000 
     92 O         -11.6110   -2.7780   30.6420 O.2       7 ALL1        0.0000 
     93 O         -11.2390   -5.5220   30.3340 O.2       4 ALP1        0.0000 
     94 CA        -13.0275   -4.1375   29.1760 C.3       3 GLC5        0.0000 
     95 CA        -12.3520   -2.0350   29.5950 C.3       9 GLL5        0.0000 
     96 CA        -13.7030   -6.2400   28.7570 C.3       6 GLP5        0.0000 
     97 CA         -9.4545   -3.4065   28.8195 C.3       3 GLC5        0.0000 
     98 CA        -10.3120   -1.5090   28.1490 C.3       9 GLL5        0.0000 
     99 CA         -8.5970   -5.3040   29.4900 C.3       6 GLP5        0.0000 
    100 CA         -8.5625   -2.1490   27.7040 C.3       3 GLC5        0.0000 
    101 CA         -6.8130   -2.7890   27.2590 C.3       6 GLP5        0.0000 
    102 CA        -12.1015   -5.2935   27.8650 C.3       3 GLC5        0.0000 
    103 CA        -11.5290   -3.6470   27.8150 C.3       9 GLL5        0.0000 
    104 CA        -12.6740   -6.9400   27.9150 C.3       6 GLP5        0.0000 
    105 CA        -10.0630   -4.4755   28.6525 C.3       3 GLC5        0.0000 
    106 CA          2.7648   -7.1426   34.7619 C.3       3 GLC5        0.0000 
    107 CA          1.1262   -7.5731   35.2979 C.3       3 GLC5        0.0000 
    108 CA          0.9330   -8.5140   37.0430 C.3       6 GLP5        0.0000 
    109 CA         -6.0085   -5.4486   32.8759 C.3       3 GLC5        0.0000 
    110 CA         -4.2220   -4.4770   32.3760 C.3       9 GLL5        0.0000 
    111 CA         -7.8180   -6.0990   32.7100 C.3       6 GLP5        0.0000 
    112 CA         -9.2205   -4.6843   32.9878 C.3       3 GLC5        0.0000 
    113 CA        -10.1770   -3.0790   32.6600 C.3       9 GLL5        0.0000 
@<TRIPOS>BOND
@<TRIPOS>SUBSTRUCTURE
     1 ALC1       38 GROUP        1 X    ALC  0     ROOT ALC X 1
     2 SEC2        4 GROUP        1 X    SEC  0     **** SEC X 2
     3 GLC5        1 GROUP        1 X    GLC  0     **** GLC X 6
     4 ALP1       40 GROUP        1 Y    ALP  0     ROOT ALP Y 8
     5 SEP2        6 GROUP        1 Y    SEP  0     **** SEP Y 9
     6 GLP5        3 GROUP        1 Y    GLP  0     **** GLP Y 13
     7 ALL1       39 GROUP        1 Z    ALL  0     ROOT ALL Z 15
     8 SEL2        5 GROUP        1 Z    SEL  0     **** SEL Z 16
     9 GLL5        2 GROUP        1 Z    GLL  0     **** GLL Z 20
@<TRIPOS>SET

