#    Name: 2g94_ZPQ_1_ligand
#    Modification time : Tue Mar 25 13:47:08 2014

@<TRIPOS>MOLECULE
2g94_ZPQ_1_ligand
   99    99     1     0     0
SMALL
NO_CHARGES


@<TRIPOS>ATOM
      1 C11         1.9840   -5.6010   34.5190 C.2       1 ZPQ1001     0.0000 
      2 C12         2.8960   -4.4190   34.3400 C.2       1 ZPQ1001     0.0000 
      3 N11         3.1050   -4.3720   32.7670 N.2       1 ZPQ1001     0.0000 
      4 N12         2.3600   -5.4370   32.2460 N.pl3     1 ZPQ1001     0.0000 
      5 C13         1.6920   -6.1680   33.3200 C.2       1 ZPQ1001     0.0000 
      6 C14         3.5180   -3.4650   35.2730 C.3       1 ZPQ1001     0.0000 
      7 C15         2.2360   -5.8200   30.8060 C.3       1 ZPQ1001     0.0000 
      8 O11         0.9210   -5.6910   30.2630 O.3       1 ZPQ1001     0.0000 
      9 C16         0.3730   -4.4380   30.1400 C.2       1 ZPQ1001     0.0000 
     10 C17         0.8010   -7.3800   33.1860 C.3       1 ZPQ1001     0.0000 
     11 O12         0.9980   -3.3940   30.3070 O.2       1 ZPQ1001     0.0000 
     12 N2         -0.9370   -4.4500   29.8110 N.am      1 ZPQ1001     0.0000 
     13 C21        -1.8500   -3.3340   29.6050 C.3       1 ZPQ1001     0.0000 
     14 C22        -2.0480   -3.1530   28.0760 C.3       1 ZPQ1001     0.0000 
     15 S2         -0.8900   -2.0900   27.2550 S.o2      1 ZPQ1001     0.0000 
     16 O22        -1.5140   -1.6570   26.0290 O.2       1 ZPQ1001     0.0000 
     17 O23        -0.4950   -1.0130   28.1650 O.2       1 ZPQ1001     0.0000 
     18 C23         0.4660   -3.1910   26.9130 C.3       1 ZPQ1001     0.0000 
     19 C25        -3.1140   -3.7990   30.2500 C.2       1 ZPQ1001     0.0000 
     20 O2         -4.1370   -4.0120   29.6070 O.2       1 ZPQ1001     0.0000 
     21 N3         -3.0360   -3.9860   31.6190 N.am      1 ZPQ1001     0.0000 
     22 C31        -4.2220   -4.4770   32.3760 C.3       1 ZPQ1001     0.0000 
     23 C32        -4.9840   -3.3880   33.1830 C.3       1 ZPQ1001     0.0000 
     24 C33        -3.7950   -5.6640   33.3040 C.3       1 ZPQ1001     0.0000 
     25 C34        -3.2620   -6.9030   32.5090 C.3       1 ZPQ1001     0.0000 
     26 C35        -4.3290   -7.5100   31.5750 C.3       1 ZPQ1001     0.0000 
     27 C36        -2.8050   -7.9870   33.5000 C.3       1 ZPQ1001     0.0000 
     28 C37        -5.3600   -2.1940   32.2830 C.3       1 ZPQ1001     0.0000 
     29 C38        -6.6620   -1.5430   32.7540 C.3       1 ZPQ1001     0.0000 
     30 C39        -6.7260   -0.1000   32.2390 C.3       1 ZPQ1001     0.0000 
     31 C30        -7.8780   -2.2990   32.2090 C.2       1 ZPQ1001     0.0000 
     32 O31        -4.1550   -2.8940   34.2330 O.3       1 ZPQ1001     0.0000 
     33 O32        -7.9100   -2.7650   31.0800 O.2       1 ZPQ1001     0.0000 
     34 N4         -8.9360   -2.3980   33.0750 N.am      1 ZPQ1001     0.0000 
     35 C41       -10.1770   -3.0790   32.6600 C.3       1 ZPQ1001     0.0000 
     36 C42       -11.0690   -3.4600   33.8710 C.3       1 ZPQ1001     0.0000 
     37 C43       -12.2430   -4.3610   33.4340 C.3       1 ZPQ1001     0.0000 
     38 C44       -11.6220   -2.2120   34.5570 C.3       1 ZPQ1001     0.0000 
     39 C45       -10.8820   -2.1360   31.6360 C.2       1 ZPQ1001     0.0000 
     40 O4        -10.7850   -0.9330   31.7260 O.2       1 ZPQ1001     0.0000 
     41 N5        -11.6110   -2.7780   30.6420 N.am      1 ZPQ1001     0.0000 
     42 C51       -12.3520   -2.0350   29.5950 C.3       1 ZPQ1001     0.0000 
     43 C52       -11.6910   -2.1750   28.1840 C.3       1 ZPQ1001     0.0000 
     44 C53       -10.3120   -1.5090   28.1490 C.3       1 ZPQ1001     0.0000 
     45 C54       -11.5290   -3.6470   27.8150 C.3       1 ZPQ1001     0.0000 
     46 H           1.6938   -5.8550   35.3893 H         1 ZPQ1001     0.0000 
     47 H           2.6062   -6.8720   30.6955 H         1 ZPQ1001     0.0000 
     48 H           2.9660   -5.2032   30.2206 H         1 ZPQ1001     0.0000 
     49 H          -1.4167   -5.4223   29.6705 H         1 ZPQ1001     0.0000 
     50 H          -1.5008   -2.4618   30.0369 H         1 ZPQ1001     0.0000 
     51 H          -3.0121   -2.7068   27.8401 H         1 ZPQ1001     0.0000 
     52 H          -1.9521   -4.0944   27.5386 H         1 ZPQ1001     0.0000 
     53 H          -2.1914   -3.8019   32.1509 H         1 ZPQ1001     0.0000 
     54 H          -4.9450   -4.9137   31.6560 H         1 ZPQ1001     0.0000 
     55 H          -5.8879   -3.8191   33.5629 H         1 ZPQ1001     0.0000 
     56 H          -4.6563   -5.9722   33.8970 H         1 ZPQ1001     0.0000 
     57 H          -3.0119   -5.3170   33.9784 H         1 ZPQ1001     0.0000 
     58 H          -2.4149   -6.5985   31.9256 H         1 ZPQ1001     0.0000 
     59 H          -5.4808   -2.5461   31.2612 H         1 ZPQ1001     0.0000 
     60 H          -4.5572   -1.4612   32.3148 H         1 ZPQ1001     0.0000 
     61 H          -6.6979   -1.5334   33.8171 H         1 ZPQ1001     0.0000 
     62 H          -8.9103   -2.0140   34.0205 H         1 ZPQ1001     0.0000 
     63 H          -9.9165   -3.9906   32.1207 H         1 ZPQ1001     0.0000 
     64 H         -10.4677   -4.0079   34.5808 H         1 ZPQ1001     0.0000 
     65 H         -11.6622   -3.8072   30.5980 H         1 ZPQ1001     0.0000 
     66 H         -12.3953   -0.9653   29.8343 H         1 ZPQ1001     0.0000 
     67 H         -13.3828   -2.4013   29.5141 H         1 ZPQ1001     0.0000 
     68 H         -12.3267   -1.7017   27.4609 H         1 ZPQ1001     0.0000 
     69 H           4.1148   -3.9244   35.9309 H         1 ZPQ1001     0.0000 
     70 H           4.0763   -2.7875   34.7941 H         1 ZPQ1001     0.0000 
     71 H           2.8337   -2.9611   35.8001 H         1 ZPQ1001     0.0000 
     72 H           0.6939   -7.6585   32.2316 H         1 ZPQ1001     0.0000 
     73 H           1.1678   -8.1672   33.6817 H         1 ZPQ1001     0.0000 
     74 H          -0.1161   -7.2084   33.5459 H         1 ZPQ1001     0.0000 
     75 H           1.2311   -2.7146   26.4798 H         1 ZPQ1001     0.0000 
     76 H           0.8193   -3.6153   27.7468 H         1 ZPQ1001     0.0000 
     77 H           0.1965   -3.9324   26.2984 H         1 ZPQ1001     0.0000 
     78 H          -3.9762   -8.2984   31.0710 H         1 ZPQ1001     0.0000 
     79 H          -5.1324   -7.8220   32.0822 H         1 ZPQ1001     0.0000 
     80 H          -4.6491   -6.8481   30.8972 H         1 ZPQ1001     0.0000 
     81 H          -2.4582   -8.7982   33.0292 H         1 ZPQ1001     0.0000 
     82 H          -2.0729   -7.6593   34.0973 H         1 ZPQ1001     0.0000 
     83 H          -3.5529   -8.2886   34.0914 H         1 ZPQ1001     0.0000 
     84 H          -5.9609    0.4488   32.5758 H         1 ZPQ1001     0.0000 
     85 H          -6.6977   -0.0605   31.2402 H         1 ZPQ1001     0.0000 
     86 H          -7.5659    0.3602   32.5269 H         1 ZPQ1001     0.0000 
     87 H         -11.9230   -5.2131   33.0199 H         1 ZPQ1001     0.0000 
     88 H         -12.8264   -4.6116   34.2066 H         1 ZPQ1001     0.0000 
     89 H         -12.8272   -3.9089   32.7600 H         1 ZPQ1001     0.0000 
     90 H         -10.8910   -1.6189   34.8944 H         1 ZPQ1001     0.0000 
     91 H         -12.1811   -1.6634   33.9353 H         1 ZPQ1001     0.0000 
     92 H         -12.1973   -2.4435   35.3415 H         1 ZPQ1001     0.0000 
     93 H          -9.6849   -1.9185   28.8116 H         1 ZPQ1001     0.0000 
     94 H          -9.8827   -1.5910   27.2496 H         1 ZPQ1001     0.0000 
     95 H         -10.3654   -0.5331   28.3604 H         1 ZPQ1001     0.0000 
     96 H         -11.1047   -3.7601   26.9166 H         1 ZPQ1001     0.0000 
     97 H         -10.9553   -4.1340   28.4735 H         1 ZPQ1001     0.0000 
     98 H         -12.4088   -4.1215   27.7855 H         1 ZPQ1001     0.0000 
     99 H          -3.9719   -1.9410   33.9915 H         1 ZPQ1001     0.0000 
@<TRIPOS>BOND
     1    2    1 1    
     2    5    1 2    
     3   46    1 1    
     4    3    2 2    
     5    6    2 1    
     6    4    3 1    
     7    5    4 1    
     8    7    4 1    
     9   10    5 1    
    10   69    6 1    
    11   70    6 1    
    12   71    6 1    
    13    8    7 1    
    14   47    7 1    
    15   48    7 1    
    16    9    8 1    
    17   11    9 2    
    18   12    9 am   
    19   72   10 1    
    20   73   10 1    
    21   74   10 1    
    22   13   12 1    
    23   49   12 1    
    24   14   13 1    
    25   19   13 1    
    26   50   13 1    
    27   15   14 1    
    28   51   14 1    
    29   52   14 1    
    30   16   15 2    
    31   17   15 2    
    32   18   15 1    
    33   75   18 1    
    34   76   18 1    
    35   77   18 1    
    36   20   19 2    
    37   21   19 am   
    38   22   21 1    
    39   53   21 1    
    40   23   22 1    
    41   24   22 1    
    42   54   22 1    
    43   28   23 1    
    44   32   23 1    
    45   55   23 1    
    46   25   24 1    
    47   56   24 1    
    48   57   24 1    
    49   26   25 1    
    50   27   25 1    
    51   58   25 1    
    52   78   26 1    
    53   79   26 1    
    54   80   26 1    
    55   81   27 1    
    56   82   27 1    
    57   83   27 1    
    58   29   28 1    
    59   59   28 1    
    60   60   28 1    
    61   30   29 1    
    62   31   29 1    
    63   61   29 1    
    64   84   30 1    
    65   85   30 1    
    66   86   30 1    
    67   33   31 2    
    68   34   31 am   
    69   99   32 1    
    70   35   34 1    
    71   62   34 1    
    72   36   35 1    
    73   39   35 1    
    74   63   35 1    
    75   37   36 1    
    76   38   36 1    
    77   64   36 1    
    78   87   37 1    
    79   88   37 1    
    80   89   37 1    
    81   90   38 1    
    82   91   38 1    
    83   92   38 1    
    84   40   39 2    
    85   41   39 am   
    86   42   41 1    
    87   65   41 1    
    88   43   42 1    
    89   66   42 1    
    90   67   42 1    
    91   44   43 1    
    92   45   43 1    
    93   68   43 1    
    94   93   44 1    
    95   94   44 1    
    96   95   44 1    
    97   96   45 1    
    98   97   45 1    
    99   98   45 1    
@<TRIPOS>SUBSTRUCTURE
     1 ZPQ1001     1 GROUP   
@<TRIPOS>SET

