#    Name: 1AQV_1_CAVITY_N1_ALL.mol2
#    Modification time : Mon Mar 10 13:42:54 2014

@<TRIPOS>MOLECULE
1AQV_1_CAVITY_N1_ALL.mol2
   82     0     6     0     0
SMALL
NO_CHARGES


@<TRIPOS>ATOM
      1 N          20.2994    4.1127   28.2418 N.2       2 ALA2        0.0000 
      2 N          19.8589    2.8405   28.9034 N.2       2 ALA2        0.0000 
      3 CA         25.7826    3.6116   24.1269 C.3       5 GLY6        0.0000 
      4 CA         20.1374    4.9210   26.2873 C.3       5 GLY6        0.0000 
      5 O          21.4386    4.2756   25.9126 O.2       2 ALA2        0.0000 
      6 N          18.3958    4.2942   27.3235 N.2       2 ALA2        0.0000 
      7 CA         19.6970    3.6488   26.9488 C.3       5 GLY6        0.0000 
      8 N          20.9981    3.0035   26.5741 N.2       2 ALA2        0.0000 
      9 N          19.2565    2.3767   27.6103 N.2       2 ALA2        0.0000 
     10 N          16.2137    2.3953   29.0213 N.2       2 ALA2        0.0000 
     11 CA         17.5148    1.7499   28.6466 C.3       5 GLY6        0.0000 
     12 N          15.7732    1.1232   29.6828 N.2       2 ALA2        0.0000 
     13 CA         23.8791    3.7932   23.2086 C.3       5 GLY6        0.0000 
     14 CA         25.1802    3.1478   22.8339 C.3       5 GLY6        0.0000 
     15 O          22.1374    3.1664   24.2448 O.2       2 ALA2        0.0000 
     16 DU         23.4386    2.5210   23.8701 H         6 CUB7        0.0000 
     17 DU         24.7398    1.8757   23.4954 H         6 CUB7        0.0000 
     18 CA         17.7934    3.8304   26.0305 C.3       5 GLY6        0.0000 
     19 CA         19.0946    3.1850   25.6558 C.3       5 GLY6        0.0000 
     20 O          20.3957    2.5396   25.2811 O.2       2 ALA2        0.0000 
     21 DU         21.6969    1.8943   24.9064 H         6 CUB7        0.0000 
     22 CA         16.0517    3.2036   27.0667 C.3       5 GLY6        0.0000 
     23 N          17.3529    2.5583   26.6920 N.2       2 ALA2        0.0000 
     24 N          18.6541    1.9129   26.3173 N.2       2 ALA2        0.0000 
     25 N          19.9553    1.2675   25.9426 N.2       2 ALA2        0.0000 
     26 N          21.2565    0.6221   25.5679 N.2       2 ALA2        0.0000 
     27 OD1        15.6112    1.9315   27.7282 O.3       3 ASP3        0.0000 
     28 N          16.9124    1.2861   27.3535 N.2       2 ALA2        0.0000 
     29 OD1        15.1708    0.6593   28.3898 O.3       3 ASP3        0.0000 
     30 CA         16.4720    0.0140   28.0151 C.3       5 GLY6        0.0000 
     31 O          23.2766    3.3294   21.9155 O.2       2 ALA2        0.0000 
     32 CA         24.5778    2.6840   21.5408 C.3       5 GLY6        0.0000 
     33 N          25.8790    2.0386   21.1661 N.2       2 ALA2        0.0000 
     34 O          21.5350    2.7026   22.9518 O.2       2 ALA2        0.0000 
     35 O          22.8362    2.0572   22.5771 O.2       2 ALA2        0.0000 
     36 DU         24.1374    1.4118   22.2024 H         6 CUB7        0.0000 
     37 CA         17.1910    3.3666   24.7374 C.3       5 GLY6        0.0000 
     38 O          18.4921    2.7212   24.3627 O.2       2 ALA2        0.0000 
     39 O          19.7933    2.0758   23.9880 O.2       2 ALA2        0.0000 
     40 O          21.0945    1.4304   23.6133 O.2       2 ALA2        0.0000 
     41 DU         22.3957    0.7851   23.2386 H         6 CUB7        0.0000 
     42 OD1        15.4493    2.7398   25.7737 O.3       3 ASP3        0.0000 
     43 N          16.7505    2.0944   25.3990 N.2       2 ALA2        0.0000 
     44 N          18.0517    1.4491   25.0242 N.2       2 ALA2        0.0000 
     45 NZ         19.3529    0.8037   24.6495 N.2       4 LYS4        0.0000 
     46 NZ         20.6540    0.1583   24.2748 N.2       4 LYS4        0.0000 
     47 NZ         21.9552   -0.4871   23.9001 N.2       4 LYS4        0.0000 
     48 OD1        23.2564   -1.1325   23.5254 O.3       3 ASP3        0.0000 
     49 N          16.3100    0.8223   26.0605 N.2       2 ALA2        0.0000 
     50 NZ         17.6112    0.1769   25.6858 N.2       4 LYS4        0.0000 
     51 OD1        21.5148   -1.7592   24.5617 O.3       3 ASP3        0.0000 
     52 CA         22.2338    1.5934   21.2840 C.3       5 GLY6        0.0000 
     53 CA         23.5349    0.9480   20.9093 C.3       5 GLY6        0.0000 
     54 CA         24.8361    0.3026   20.5346 C.3       5 GLY6        0.0000 
     55 OG         16.5885    2.9027   23.4444 O.2       1 SER1        0.0000 
     56 OD1        17.8897    2.2574   23.0697 O.3       3 ASP3        0.0000 
     57 NZ         19.1909    1.6120   22.6950 N.2       4 LYS4        0.0000 
     58 NZ         20.4921    0.9666   22.3203 N.2       4 LYS4        0.0000 
     59 NZ         21.7933    0.3212   21.9456 N.2       4 LYS4        0.0000 
     60 DU         23.0945   -0.3241   21.5709 H         6 CUB7        0.0000 
     61 DU         24.3957   -0.9695   21.1962 H         6 CUB7        0.0000 
     62 N          17.4493    0.9852   23.7312 N.2       2 ALA2        0.0000 
     63 NZ         21.3528   -0.9509   22.6071 N.2       4 LYS4        0.0000 
     64 NZ         22.6540   -1.5963   22.2324 N.2       4 LYS4        0.0000 
     65 CA         23.9552   -2.2417   21.8577 C.3       5 GLY6        0.0000 
     66 N          22.2135   -2.8684   22.8939 N.2       2 ALA2        0.0000 
     67 N          23.5147   -3.5138   22.5192 N.2       2 ALA2        0.0000 
     68 CA         24.6742    1.1110   18.5800 C.3       5 GLY6        0.0000 
     69 CA         25.9754    0.4656   18.2053 C.3       5 GLY6        0.0000 
     70 CA         22.9325    0.4842   19.6163 C.3       5 GLY6        0.0000 
     71 CA         24.2337   -0.1612   19.2416 C.3       5 GLY6        0.0000 
     72 NZ         17.2873    1.7935   21.7766 N.2       4 LYS4        0.0000 
     73 NZ         18.5885    1.1482   21.4019 N.2       4 LYS4        0.0000 
     74 NZ         19.8897    0.5028   21.0272 N.2       4 LYS4        0.0000 
     75 NZ         21.1909   -0.1426   20.6525 N.2       4 LYS4        0.0000 
     76 CA         22.4921   -0.7880   20.2778 C.3       5 GLY6        0.0000 
     77 CA         23.7933   -1.4333   19.9031 C.3       5 GLY6        0.0000 
     78 CA         25.0944   -2.0787   19.5284 C.3       5 GLY6        0.0000 
     79 N          16.8468    0.5214   22.4382 N.2       2 ALA2        0.0000 
     80 CA         22.0516   -2.0601   20.9393 C.3       5 GLY6        0.0000 
     81 CA         23.6313   -0.6250   17.9485 C.3       5 GLY6        0.0000 
     82 CA         24.9325   -1.2704   17.5738 C.3       5 GLY6        0.0000 
@<TRIPOS>BOND
@<TRIPOS>SUBSTRUCTURE
     1 SER1       55 GROUP   
     2 ALA2        1 GROUP   
     3 ASP3       27 GROUP   
     4 LYS4       45 GROUP   
     5 GLY6        3 GROUP   
     6 CUB7       16 GROUP   
@<TRIPOS>SET

