#    Name: 1aqv_0HG_1_INTS_M
#    Modification time : Mon Mar 24 18:49:32 2014

@<TRIPOS>MOLECULE
1aqv_0HG_1_INTS_M
   75     0    15     0     0
SMALL
NO_CHARGES


@<TRIPOS>ATOM
      1 OD1        18.2690   -0.4400   23.1065 O.co2     3 ASC3        0.0000 
      2 OD1        17.7080    0.8830   24.0960 O.co2    13 ASL3        0.0000 
      3 OD1        18.8300   -1.7630   22.1170 O.co2     8 ASP3        0.0000 
      4 OD1        17.9280   -0.5845   24.1360 O.co2     3 ASC3        0.0000 
      5 OD1        18.1480   -2.0520   24.1760 O.co2     8 ASP3        0.0000 
      6 O          16.3750    0.4210   24.0905 O.2       1 ALC1        0.0000 
      7 O          17.7080    0.8830   24.0960 O.2      11 ALL1        0.0000 
      8 O          15.0420   -0.0410   24.0850 O.2       6 ALP1        0.0000 
      9 O          17.9280   -0.5845   24.1360 O.2       1 ALC1        0.0000 
     10 O          18.1480   -2.0520   24.1760 O.2       6 ALP1        0.0000 
     11 N          14.4670    3.4905   25.3120 N.am      2 SEC2        0.0000 
     12 N          15.6970    3.2150   25.9200 N.am     12 SEL2        0.0000 
     13 N          13.2370    3.7660   24.7040 N.am      7 SEP2        0.0000 
     14 CA         18.5205    1.7405   29.0095 C.3       5 GLC5        0.0000 
     15 CA         18.5570    2.8710   27.2730 C.3      15 GLL5        0.0000 
     16 CA         18.4840    0.6100   30.7460 C.3      10 GLP5        0.0000 
     17 NZ         17.9375    4.1510   23.0680 N.4       4 LYC4        0.0000 
     18 NZ         16.4490    3.1550   23.8330 N.4      14 LYL4        0.0000 
     19 NZ         19.4260    5.1470   22.3030 N.4       9 LYP4        0.0000 
     20 N          15.7575    4.2385   23.4565 N.am      2 SEC2        0.0000 
     21 N          16.4490    3.1550   23.8330 N.am     12 SEL2        0.0000 
     22 N          15.0660    5.3220   23.0800 N.am      7 SEP2        0.0000 
     23 N          14.8430    3.4605   24.2685 N.am      2 SEC2        0.0000 
     24 N          15.3985    2.5345   22.8405 N.am      2 SEC2        0.0000 
     25 N          14.3480    1.9140   21.8480 N.am      7 SEP2        0.0000 
     26 CA         19.7545    2.3610   30.3045 C.3       5 GLC5        0.0000 
     27 CA         21.0250    4.1120   29.8630 C.3      15 GLL5        0.0000 
     28 N          18.5200    3.2325   31.8885 N.am      2 SEC2        0.0000 
     29 N          19.9220    3.4010   31.8690 N.am     12 SEL2        0.0000 
     30 N          17.1180    3.0640   31.9080 N.am      7 SEP2        0.0000 
     31 O          18.5805    4.1170   29.4255 O.2       1 ALC1        0.0000 
     32 O          19.8260    3.6830   29.1400 O.2      11 ALL1        0.0000 
     33 O          17.3350    4.5510   29.7110 O.2       6 ALP1        0.0000 
     34 CA         22.1590    9.4250   34.0565 C.3       5 GLC5        0.0000 
     35 CA         24.0710    9.9990   33.8260 C.3      15 GLL5        0.0000 
     36 CA         20.2470    8.8510   34.2870 C.3      10 GLP5        0.0000 
     37 CA         24.4120    9.9050   35.8615 C.3       5 GLC5        0.0000 
     38 CA         24.7530    9.8110   37.8970 C.3      10 GLP5        0.0000 
     39 CA         24.3385   10.8965   31.2475 C.3       5 GLC5        0.0000 
     40 CA         22.6750    9.5630   31.3800 C.3      15 GLL5        0.0000 
     41 CA         26.0020   12.2300   31.1150 C.3      10 GLP5        0.0000 
     42 CA         24.6085    8.2475   28.0760 C.3       5 GLC5        0.0000 
     43 CA         22.7280    7.1530   28.5510 C.3      15 GLL5        0.0000 
     44 CA         26.4890    9.3420   27.6010 C.3      10 GLP5        0.0000 
     45 CA         21.4280    4.5670   34.0385 C.3       5 GLC5        0.0000 
     46 CA         22.2300    3.0140   33.2640 C.3      15 GLL5        0.0000 
     47 CA         20.6260    6.1200   34.8130 C.3      10 GLP5        0.0000 
     48 CA         21.3655    2.8370   34.8975 C.3       5 GLC5        0.0000 
     49 CA         20.5010    2.6600   36.5310 C.3      10 GLP5        0.0000 
     50 NZ         22.1880   -0.3810   33.6605 N.4       4 LYC4        0.0000 
     51 NZ         22.7820    0.8850   32.3140 N.4      14 LYL4        0.0000 
     52 NZ         21.5940   -1.6470   35.0070 N.4       9 LYP4        0.0000 
     53 N          22.3000    0.6695   30.9070 N.am      2 SEC2        0.0000 
     54 N          22.7820    0.8850   32.3140 N.am     12 SEL2        0.0000 
     55 N          21.8180    0.4540   29.5000 N.am      7 SEP2        0.0000 
     56 NZ         22.1800   -0.2775   34.7555 N.4       4 LYC4        0.0000 
     57 NZ         22.7660    1.0920   34.5040 N.4      14 LYL4        0.0000 
     58 N          22.3165    1.9405   35.5155 N.am      2 SEC2        0.0000 
     59 N          22.7660    1.0920   34.5040 N.am     12 SEL2        0.0000 
     60 N          21.8670    2.7890   36.5270 N.am      7 SEP2        0.0000 
     61 N          22.1800   -0.2775   34.7555 N.am      2 SEC2        0.0000 
     62 N          21.5940   -1.6470   35.0070 N.am      7 SEP2        0.0000 
     63 CA         18.6273    4.2635   25.5413 C.3       5 GLC5        0.0000 
     64 CA         18.6110    5.9890   24.4840 C.3      10 GLP5        0.0000 
     65 CA         20.6363    5.7157   31.7538 C.3       5 GLC5        0.0000 
     66 CA         20.2730    6.5370   33.5270 C.3      10 GLP5        0.0000 
     67 CA         19.3562    7.3003   29.6723 C.3       5 GLC5        0.0000 
     68 CA         20.9740    5.6770   30.0980 C.3      15 GLL5        0.0000 
     69 CA         17.7160    8.4300   30.0100 C.3      10 GLP5        0.0000 
     70 CA         24.9438   10.8875   32.0645 C.3       5 GLC5        0.0000 
     71 CA         23.7000    9.0910   32.2020 C.3      15 GLL5        0.0000 
     72 CA         21.5973    9.8190   32.9025 C.3       5 GLC5        0.0000 
     73 CA         20.0070   10.3110   34.0140 C.3      10 GLP5        0.0000 
     74 CA         21.6490   10.8745   30.4905 C.3       5 GLC5        0.0000 
     75 CA         20.7810   12.5060   30.2020 C.3      10 GLP5        0.0000 
@<TRIPOS>BOND
@<TRIPOS>SUBSTRUCTURE
     1 ALC1        6 GROUP        1 X    ALC  0     ROOT ALC X 1
     2 SEC2       11 GROUP        1 X    SEC  0     **** SEC X 2
     3 ASC3        1 GROUP        1 X    ASC  0     **** ASC X 3
     4 LYC4       17 GROUP        1 X    LYC  0     **** LYC X 4
     5 GLC5       14 GROUP        1 X    GLC  0     **** GLC X 6
     6 ALP1        8 GROUP        1 Y    ALP  0     ROOT ALP Y 8
     7 SEP2       13 GROUP        1 Y    SEP  0     **** SEP Y 9
     8 ASP3        3 GROUP        1 Y    ASP  0     **** ASP Y 10
     9 LYP4       19 GROUP        1 Y    LYP  0     **** LYP Y 11
    10 GLP5       16 GROUP        1 Y    GLP  0     **** GLP Y 13
    11 ALL1        7 GROUP        1 Z    ALL  0     ROOT ALL Z 15
    12 SEL2       12 GROUP        1 Z    SEL  0     **** SEL Z 16
    13 ASL3        2 GROUP        1 Z    ASL  0     **** ASL Z 17
    14 LYL4       18 GROUP        1 Z    LYL  0     **** LYL Z 18
    15 GLL5       15 GROUP        1 Z    GLL  0     **** GLL Z 20
@<TRIPOS>SET

