#    Name: 1aqv_0HG_1_ligand
#    Modification time : Mon Mar 24 18:49:32 2014

@<TRIPOS>MOLECULE
1aqv_0HG_1_ligand
   49    49     1     0     0
SMALL
NO_CHARGES


@<TRIPOS>ATOM
      1 N          17.7080    0.8830   24.0960 N.4       1 0HG2201     0.0000 
      2 CA         17.4320    1.6350   25.3590 C.3       1 0HG2201     0.0000 
      3 C          16.4650    2.7760   25.0280 C.2       1 0HG2201     0.0000 
      4 O          15.6970    3.2150   25.9200 O.co2     1 0HG2201     0.0000 
      5 CB         18.7300    2.2050   25.9240 C.3       1 0HG2201     0.0000 
      6 CG         18.5570    2.8710   27.2730 C.3       1 0HG2201     0.0000 
      7 CD         19.8720    3.2670   27.8770 C.2       1 0HG2201     0.0000 
      8 OE1        20.9240    3.1970   27.2150 O.2       1 0HG2201     0.0000 
      9 OXT        16.4490    3.1550   23.8330 O.co2     1 0HG2201     0.0000 
     10 CA1        21.0250    4.1120   29.8630 C.3       1 0HG2201     0.0000 
     11 C1         20.9900    3.5660   31.2900 C.2       1 0HG2201     0.0000 
     12 O1         19.9220    3.4010   31.8690 O.2       1 0HG2201     0.0000 
     13 N1         19.8260    3.6830   29.1400 N.am      1 0HG2201     0.0000 
     14 CB1        20.9740    5.6770   30.0980 C.3       1 0HG2201     0.0000 
     15 SG         21.0190    6.6640   28.5710 S.3       1 0HG2201     0.0000 
     16 BR         24.0710    9.9990   33.8260 Br        1 0HG2201     0.0000 
     17 C11        23.0680    7.7880   29.7630 C.ar      1 0HG2201     0.0000 
     18 C2         24.0990    7.3110   30.5800 C.ar      1 0HG2201     0.0000 
     19 C3         24.4130    7.9560   31.7890 C.ar      1 0HG2201     0.0000 
     20 C4         23.7000    9.0910   32.2020 C.ar      1 0HG2201     0.0000 
     21 C5         22.6750    9.5630   31.3800 C.ar      1 0HG2201     0.0000 
     22 C6         22.3590    8.9230   30.1780 C.ar      1 0HG2201     0.0000 
     23 C7         22.7280    7.1530   28.5510 C.3       1 0HG2201     0.0000 
     24 N2         22.1580    3.5050   31.9070 N.am      1 0HG2201     0.0000 
     25 CA2        22.2300    3.0140   33.2640 C.3       1 0HG2201     0.0000 
     26 C8         22.6110    1.5550   33.3630 C.2       1 0HG2201     0.0000 
     27 O2         22.7820    0.8850   32.3140 O.co2     1 0HG2201     0.0000 
     28 OXT1       22.7660    1.0920   34.5040 O.co2     1 0HG2201     0.0000 
     29 H          16.9783    0.9944   26.0767 H         1 0HG2201     0.0000 
     30 H          19.1386    2.9353   25.2078 H         1 0HG2201     0.0000 
     31 H          19.4666    1.3909   26.0123 H         1 0HG2201     0.0000 
     32 H          18.0348    2.1804   27.9487 H         1 0HG2201     0.0000 
     33 H          17.9238    3.7605   27.1544 H         1 0HG2201     0.0000 
     34 H          21.9169    3.8767   29.4095 H         1 0HG2201     0.0000 
     35 H          18.9358    3.7258   29.6814 H         1 0HG2201     0.0000 
     36 H          21.8271    6.0326   30.6405 H         1 0HG2201     0.0000 
     37 H          20.0576    5.9871   30.5590 H         1 0HG2201     0.0000 
     38 H          24.6346    6.4796   30.2954 H         1 0HG2201     0.0000 
     39 H          25.1745    7.5903   32.3764 H         1 0HG2201     0.0000 
     40 H          22.1395   10.4009   31.6646 H         1 0HG2201     0.0000 
     41 H          21.5963    9.2891   29.5896 H         1 0HG2201     0.0000 
     42 H          22.7631    7.7738   27.6646 H         1 0HG2201     0.0000 
     43 H          23.2193    6.2078   28.3571 H         1 0HG2201     0.0000 
     44 H          23.0456    3.7937   31.4689 H         1 0HG2201     0.0000 
     45 H          21.2549    3.1502   33.7819 H         1 0HG2201     0.0000 
     46 H          22.9668    3.6022   33.8546 H         1 0HG2201     0.0000 
     47 H          16.8721    0.5031   23.6997 H         1 0HG2201     0.0000 
     48 H          18.1235    1.4675   23.3990 H         1 0HG2201     0.0000 
     49 H          18.3340    0.1182   24.2484 H         1 0HG2201     0.0000 
@<TRIPOS>BOND
     1    2    1 1    
     2   47    1 1    
     3   48    1 1    
     4   49    1 1    
     5    3    2 1    
     6    5    2 1    
     7   29    2 1    
     8    4    3 ar   
     9    9    3 ar   
    10    6    5 1    
    11   30    5 1    
    12   31    5 1    
    13    7    6 1    
    14   32    6 1    
    15   33    6 1    
    16    8    7 2    
    17   13    7 am   
    18   11   10 1    
    19   13   10 1    
    20   14   10 1    
    21   34   10 1    
    22   12   11 2    
    23   24   11 am   
    24   35   13 1    
    25   15   14 1    
    26   36   14 1    
    27   37   14 1    
    28   23   15 1    
    29   20   16 1    
    30   18   17 ar   
    31   22   17 ar   
    32   23   17 1    
    33   19   18 ar   
    34   38   18 1    
    35   20   19 ar   
    36   39   19 1    
    37   21   20 ar   
    38   22   21 ar   
    39   40   21 1    
    40   41   22 1    
    41   42   23 1    
    42   43   23 1    
    43   25   24 1    
    44   44   24 1    
    45   26   25 1    
    46   45   25 1    
    47   46   25 1    
    48   27   26 ar   
    49   28   26 ar   
@<TRIPOS>SUBSTRUCTURE
     1 0HG2201     1 GROUP   
@<TRIPOS>SET

