#    Name: 4dym_IYZ_1_INTS_M
#    Modification time : Tue Mar 25 10:22:59 2014

@<TRIPOS>MOLECULE
4dym_IYZ_1_INTS_M
   54     0     3     0     0
SMALL
NO_CHARGES


@<TRIPOS>ATOM
      1 CA         -8.3270  -20.6655   12.0315 C.3       1 GLC5        0.0000 
      2 CA         -6.8300  -19.9840   12.8040 C.3       3 GLL5        0.0000 
      3 CA         -9.8240  -21.3470   11.2590 C.3       2 GLP5        0.0000 
      4 CA         -3.8090  -18.7330   14.1140 C.3       1 GLC5        0.0000 
      5 CA         -5.3550  -20.0900   13.2150 C.3       3 GLL5        0.0000 
      6 CA         -2.2630  -17.3760   15.0130 C.3       2 GLP5        0.0000 
      7 CA         -3.7055  -21.3405   15.3750 C.3       1 GLC5        0.0000 
      8 CA         -4.8880  -21.4260   13.8310 C.3       3 GLL5        0.0000 
      9 CA         -2.5230  -21.2550   16.9190 C.3       2 GLP5        0.0000 
     10 CA         -3.5460  -25.0045   13.0465 C.3       1 GLC5        0.0000 
     11 CA         -5.6610  -24.9720   12.9420 C.3       3 GLL5        0.0000 
     12 CA         -1.4310  -25.0370   13.1510 C.3       2 GLP5        0.0000 
     13 CA         -6.3295  -28.3710   17.2955 C.3       1 GLC5        0.0000 
     14 CA         -6.5230  -26.4690   17.1170 C.3       3 GLL5        0.0000 
     15 CA         -6.1360  -30.2730   17.4740 C.3       2 GLP5        0.0000 
     16 CA         -8.2005  -25.3025   17.1805 C.3       1 GLC5        0.0000 
     17 CA         -9.8780  -24.1360   17.2440 C.3       2 GLP5        0.0000 
     18 CA         -7.6880  -24.6215   15.9270 C.3       1 GLC5        0.0000 
     19 CA         -6.3180  -25.1430   16.9940 C.3       3 GLL5        0.0000 
     20 CA         -9.0580  -24.1000   14.8600 C.3       2 GLP5        0.0000 
     21 CA         -6.0305  -25.5560   20.9765 C.3       1 GLC5        0.0000 
     22 CA         -5.7320  -24.4100   19.2360 C.3       3 GLL5        0.0000 
     23 CA         -6.3290  -26.7020   22.7170 C.3       2 GLP5        0.0000 
     24 CA         -3.8855  -22.3055   20.6745 C.3       1 GLC5        0.0000 
     25 CA         -5.6820  -23.3760   20.1900 C.3       3 GLL5        0.0000 
     26 CA         -2.0890  -21.2350   21.1590 C.3       2 GLP5        0.0000 
     27 CA         -5.8530  -24.3765   21.8000 C.3       1 GLC5        0.0000 
     28 CA         -6.0240  -25.3770   23.4100 C.3       2 GLP5        0.0000 
     29 CA         -4.8260  -20.6045   20.4770 C.3       1 GLC5        0.0000 
     30 CA         -6.1770  -22.0910   19.8740 C.3       3 GLL5        0.0000 
     31 CA         -3.4750  -19.1180   21.0800 C.3       2 GLP5        0.0000 
     32 CA        -10.0450  -19.3310   16.7250 C.3       1 GLC5        0.0000 
     33 CA         -8.3790  -20.3470   17.1720 C.3       3 GLL5        0.0000 
     34 CA        -11.7110  -18.3150   16.2780 C.3       2 GLP5        0.0000 
     35 CA         -9.1285  -22.2415   17.2080 C.3       1 GLC5        0.0000 
     36 CA         -9.4495  -20.9500   18.2510 C.3       1 GLC5        0.0000 
     37 CA        -10.5200  -21.5530   19.3300 C.3       2 GLP5        0.0000 
     38 CA         -7.1590  -25.7315   12.0572 C.3       1 GLC5        0.0000 
     39 CA         -8.5240  -25.9060   10.8360 C.3       2 GLP5        0.0000 
     40 CA         -7.5160  -24.9645   14.4964 C.3       1 GLC5        0.0000 
     41 CA         -6.1540  -26.1010   14.9870 C.3       3 GLL5        0.0000 
     42 CA         -5.0288  -26.5565   17.9342 C.3       1 GLC5        0.0000 
     43 CA         -3.6370  -27.3070   18.8130 C.3       2 GLP5        0.0000 
     44 CA         -4.8228  -25.7933   18.7085 C.3       1 GLC5        0.0000 
     45 CA         -6.2850  -24.1490   17.9720 C.3       3 GLL5        0.0000 
     46 CA         -7.7545  -23.9678   19.2852 C.3       1 GLC5        0.0000 
     47 CA         -9.0010  -24.4330   20.7440 C.3       2 GLP5        0.0000 
     48 CA         -4.2294  -24.1340   17.5023 C.3       1 GLC5        0.0000 
     49 CA         -2.4420  -23.7400   16.6450 C.3       2 GLP5        0.0000 
     50 CA         -7.3540  -24.1630   20.2285 C.3       1 GLC5        0.0000 
     51 CA         -7.7195  -23.1977   19.9937 C.3       1 GLC5        0.0000 
     52 CA         -8.4830  -21.8855   19.1702 C.3       1 GLC5        0.0000 
     53 CA         -8.2408  -23.4021   17.7319 C.3       1 GLC5        0.0000 
     54 CA         -6.6990  -21.8340   18.6130 C.3       3 GLL5        0.0000 
@<TRIPOS>BOND
@<TRIPOS>SUBSTRUCTURE
     1 GLC5        1 GROUP        1 X    GLC  0     ROOT GLC X 6
     2 GLP5        3 GROUP        1 Y    GLP  0     ROOT GLP Y 13
     3 GLL5        2 GROUP        1 Z    GLL  0     ROOT GLL Z 20
@<TRIPOS>SET

