#    Name: 4dym_IYZ_1_ligand
#    Modification time : Tue Mar 25 10:23:00 2014

@<TRIPOS>MOLECULE
4dym_IYZ_1_ligand
   42    45     1     0     0
SMALL
NO_CHARGES


@<TRIPOS>ATOM
      1 CAJ        -6.3680  -19.3020   14.0810 C.3       1 IYZ503      0.0000 
      2 CAK        -6.8300  -19.9840   12.8040 C.3       1 IYZ503      0.0000 
      3 CAV        -5.3550  -20.0900   13.2150 C.3       1 IYZ503      0.0000 
      4 CAL        -4.8880  -21.4260   13.8310 C.3       1 IYZ503      0.0000 
      5 NAO        -5.3740  -22.5920   13.0870 N.pl3     1 IYZ503      0.0000 
      6 CAS        -5.6160  -23.7850   13.6860 C.2       1 IYZ503      0.0000 
      7 CAF        -5.6610  -24.9720   12.9420 C.2       1 IYZ503      0.0000 
      8 CAG        -5.9270  -26.1420   13.6150 C.2       1 IYZ503      0.0000 
      9 NAN        -5.8270  -23.8300   15.0240 N.2       1 IYZ503      0.0000 
     10 NAW        -6.0960  -24.8720   15.6430 N.pl3     1 IYZ503      0.0000 
     11 CAU        -6.1540  -26.1010   14.9870 C.2       1 IYZ503      0.0000 
     12 NAM        -6.4570  -27.0300   15.9020 N.pl3     1 IYZ503      0.0000 
     13 CAH        -6.5230  -26.4690   17.1170 C.2       1 IYZ503      0.0000 
     14 CAT        -6.3180  -25.1430   16.9940 C.2       1 IYZ503      0.0000 
     15 CAR        -6.2850  -24.1490   17.9720 C.ar      1 IYZ503      0.0000 
     16 CAI        -6.7310  -22.8560   17.6810 C.ar      1 IYZ503      0.0000 
     17 CAE        -5.7320  -24.4100   19.2360 C.ar      1 IYZ503      0.0000 
     18 CAC        -5.6820  -23.3760   20.1900 C.ar      1 IYZ503      0.0000 
     19 CAD        -6.1770  -22.0910   19.8740 C.ar      1 IYZ503      0.0000 
     20 CAQ        -6.6990  -21.8340   18.6130 C.ar      1 IYZ503      0.0000 
     21 CAP        -7.2810  -20.4340   18.2260 C.2       1 IYZ503      0.0000 
     22 CAA        -8.3790  -20.3470   17.1720 C.3       1 IYZ503      0.0000 
     23 OAB        -6.9200  -19.3980   18.7900 O.2       1 IYZ503      0.0000 
     24 H          -6.5981  -19.8593   14.8074 H         1 IYZ503      0.0000 
     25 H          -6.2367  -18.3868   13.8902 H         1 IYZ503      0.0000 
     26 H          -6.8879  -19.3258   12.1261 H         1 IYZ503      0.0000 
     27 H          -7.2493  -20.7983   13.0433 H         1 IYZ503      0.0000 
     28 H          -4.8693  -19.4689   12.7246 H         1 IYZ503      0.0000 
     29 H          -5.2395  -21.4544   14.8753 H         1 IYZ503      0.0000 
     30 H          -3.7863  -21.4136   13.8621 H         1 IYZ503      0.0000 
     31 H          -5.5240  -22.4533   12.0683 H         1 IYZ503      0.0000 
     32 H          -5.5011  -24.9561   11.9410 H         1 IYZ503      0.0000 
     33 H          -5.9592  -27.0381   13.1173 H         1 IYZ503      0.0000 
     34 H          -6.6081  -27.9785   15.7123 H         1 IYZ503      0.0000 
     35 H          -6.6905  -26.9366   17.9504 H         1 IYZ503      0.0000 
     36 H          -7.1007  -22.6610   16.7233 H         1 IYZ503      0.0000 
     37 H          -5.3715  -25.3343   19.4612 H         1 IYZ503      0.0000 
     38 H          -5.2859  -23.5536   21.1170 H         1 IYZ503      0.0000 
     39 H          -6.1460  -21.3523   20.5859 H         1 IYZ503      0.0000 
     40 H          -8.0779  -20.7121   16.2911 H         1 IYZ503      0.0000 
     41 H          -9.1929  -20.8624   17.4402 H         1 IYZ503      0.0000 
     42 H          -8.6686  -19.4029   17.0145 H         1 IYZ503      0.0000 
@<TRIPOS>BOND
     1    2    1 1    
     2    3    1 1    
     3   24    1 1    
     4   25    1 1    
     5    3    2 1    
     6   26    2 1    
     7   27    2 1    
     8    4    3 1    
     9   28    3 1    
    10    5    4 1    
    11   29    4 1    
    12   30    4 1    
    13    6    5 1    
    14   31    5 1    
    15    7    6 1    
    16    9    6 2    
    17    8    7 2    
    18   32    7 1    
    19   11    8 1    
    20   33    8 1    
    21   10    9 1    
    22   11   10 1    
    23   14   10 1    
    24   12   11 2    
    25   13   12 1    
    26   34   12 1    
    27   14   13 2    
    28   35   13 1    
    29   15   14 1    
    30   16   15 ar   
    31   17   15 ar   
    32   20   16 ar   
    33   36   16 1    
    34   18   17 ar   
    35   37   17 1    
    36   19   18 ar   
    37   38   18 1    
    38   20   19 ar   
    39   39   19 1    
    40   21   20 1    
    41   22   21 1    
    42   23   21 2    
    43   40   22 1    
    44   41   22 1    
    45   42   22 1    
@<TRIPOS>SUBSTRUCTURE
     1 IYZ503      1 GROUP   
@<TRIPOS>SET

