#    Name: 4NBN_1_CAVITY_N1_ALL.mol2
#    Modification time : Tue Mar 11 16:25:57 2014

@<TRIPOS>MOLECULE
4NBN_1_CAVITY_N1_ALL.mol2
  140     0     6     0     0
SMALL
NO_CHARGES


@<TRIPOS>ATOM
      1 CZ         23.9414   27.2989    3.9307 C.ar      4 PHE5        0.0000 
      2 CZ         23.3189   28.6369    3.6615 C.ar      4 PHE5        0.0000 
      3 CZ         22.6964   29.9748    3.3923 C.ar      4 PHE5        0.0000 
      4 CZ         22.0739   31.3127    3.1232 C.ar      4 PHE5        0.0000 
      5 N          21.4515   32.6506    2.8540 N.2       2 ALA2        0.0000 
      6 CA         20.8290   33.9886    2.5849 C.3       5 GLY6        0.0000 
      7 O          22.5914   26.6519    3.8370 O.2       2 ALA2        0.0000 
      8 NZ         21.9689   27.9899    3.5679 N.2       3 LYS4        0.0000 
      9 NZ         21.3464   29.3278    3.2987 N.2       3 LYS4        0.0000 
     10 NZ         20.7239   30.6657    3.0295 N.2       3 LYS4        0.0000 
     11 DU         20.1014   32.0037    2.7604 H         6 CUB7        0.0000 
     12 N          19.4789   33.3416    2.4912 N.2       2 ALA2        0.0000 
     13 CA         18.7513   31.3567    2.6667 C.3       5 GLY6        0.0000 
     14 N          18.1288   32.6946    2.3976 N.2       2 ALA2        0.0000 
     15 DU         16.7788   32.0476    2.3039 H         6 CUB7        0.0000 
     16 N          34.9546   24.6946    7.3111 N.2       2 ALA2        0.0000 
     17 N          33.6046   24.0476    7.2174 N.2       2 ALA2        0.0000 
     18 CA         32.9821   25.3855    6.9483 C.3       5 GLY6        0.0000 
     19 NZ         32.3596   26.7234    6.6791 N.2       3 LYS4        0.0000 
     20 NZ         31.7371   28.0614    6.4099 N.2       3 LYS4        0.0000 
     21 NZ         31.1146   29.3993    6.1408 N.2       3 LYS4        0.0000 
     22 CA         32.2545   23.4006    7.1238 C.3       5 GLY6        0.0000 
     23 N          31.6320   24.7385    6.8546 N.2       2 ALA2        0.0000 
     24 CZ         31.0095   26.0765    6.5854 C.ar      4 PHE5        0.0000 
     25 CZ         30.3870   27.4144    6.3163 C.ar      4 PHE5        0.0000 
     26 CA         29.7645   28.7523    6.0471 C.3       5 GLY6        0.0000 
     27 CA         29.1420   30.0902    5.7780 C.3       5 GLY6        0.0000 
     28 CZ         28.4145   28.1053    5.9535 C.ar      4 PHE5        0.0000 
     29 CZ         27.7920   29.4433    5.6843 C.ar      4 PHE5        0.0000 
     30 CZ         26.4419   28.7963    5.5907 C.ar      4 PHE5        0.0000 
     31 CZ         25.0919   28.1493    5.4970 C.ar      4 PHE5        0.0000 
     32 CZ         24.4694   29.4872    5.2278 C.ar      4 PHE5        0.0000 
     33 CA         23.7418   27.5023    5.4033 C.3       5 GLY6        0.0000 
     34 CZ         23.1193   28.8402    5.1342 C.ar      4 PHE5        0.0000 
     35 CZ         22.4968   30.1782    4.8650 C.ar      4 PHE5        0.0000 
     36 CZ         21.8743   31.5161    4.5959 C.ar      4 PHE5        0.0000 
     37 N          21.2518   32.8540    4.3267 N.2       2 ALA2        0.0000 
     38 NZ         21.7693   28.1933    5.0405 N.2       3 LYS4        0.0000 
     39 NZ         21.1468   29.5312    4.7714 N.2       3 LYS4        0.0000 
     40 CA         20.5243   30.8691    4.5022 C.3       5 GLY6        0.0000 
     41 CA         19.9018   32.2070    4.2330 C.3       5 GLY6        0.0000 
     42 N          19.2793   33.5450    3.9639 N.2       2 ALA2        0.0000 
     43 N          17.9292   32.8980    3.8702 N.2       2 ALA2        0.0000 
     44 N          33.4049   24.2510    8.6901 N.2       2 ALA2        0.0000 
     45 CA         32.7824   25.5889    8.4209 C.3       5 GLY6        0.0000 
     46 CA         32.1599   26.9268    8.1518 C.3       5 GLY6        0.0000 
     47 NZ         31.5374   28.2648    7.8826 N.2       3 LYS4        0.0000 
     48 NZ         30.9150   29.6027    7.6135 N.2       3 LYS4        0.0000 
     49 O          32.0549   23.6040    8.5964 O.2       2 ALA2        0.0000 
     50 N          31.4324   24.9419    8.3273 N.2       2 ALA2        0.0000 
     51 CZ         30.8099   26.2798    8.0581 C.ar      4 PHE5        0.0000 
     52 CZ         30.1874   27.6178    7.7890 C.ar      4 PHE5        0.0000 
     53 CA         29.5649   28.9557    7.5198 C.3       5 GLY6        0.0000 
     54 CZ         28.8373   26.9708    7.6953 C.ar      4 PHE5        0.0000 
     55 CZ         28.2148   28.3087    7.4261 C.ar      4 PHE5        0.0000 
     56 CA         27.5923   29.6466    7.1570 C.3       5 GLY6        0.0000 
     57 CA         26.2423   28.9997    7.0633 C.3       5 GLY6        0.0000 
     58 CA         24.8922   28.3527    6.9697 C.3       5 GLY6        0.0000 
     59 CZ         24.2697   29.6906    6.7005 C.ar      4 PHE5        0.0000 
     60 CA         23.6472   31.0285    6.4314 C.3       5 GLY6        0.0000 
     61 CA         22.9197   29.0436    6.6069 C.3       5 GLY6        0.0000 
     62 CZ         22.2972   30.3816    6.3377 C.ar      4 PHE5        0.0000 
     63 CA         21.6747   31.7195    6.0685 C.3       5 GLY6        0.0000 
     64 N          21.0522   33.0574    5.7994 N.2       2 ALA2        0.0000 
     65 O          20.4297   34.3953    5.5302 O.2       2 ALA2        0.0000 
     66 NZ         21.5696   28.3967    6.5132 N.2       3 LYS4        0.0000 
     67 NZ         20.9471   29.7346    6.2440 N.2       3 LYS4        0.0000 
     68 CA         19.7021   32.4104    5.7057 C.3       5 GLY6        0.0000 
     69 CA         19.0796   33.7484    5.4366 C.3       5 GLY6        0.0000 
     70 CA         33.2053   24.4544   10.1628 C.3       5 GLY6        0.0000 
     71 CA         31.3378   28.4681    9.3553 C.3       5 GLY6        0.0000 
     72 N          31.8553   23.8074   10.0691 N.2       2 ALA2        0.0000 
     73 N          31.2328   25.1453    9.8000 N.2       2 ALA2        0.0000 
     74 CA         30.6103   26.4832    9.5308 C.3       5 GLY6        0.0000 
     75 CA         29.9878   27.8212    9.2616 C.3       5 GLY6        0.0000 
     76 CA         29.3653   29.1591    8.9925 C.3       5 GLY6        0.0000 
     77 O          28.0152   28.5121    8.8988 O.2       2 ALA2        0.0000 
     78 N          27.3927   29.8500    8.6297 N.2       2 ALA2        0.0000 
     79 O          26.6652   27.8651    8.8052 O.2       2 ALA2        0.0000 
     80 N          26.0427   29.2031    8.5360 N.2       2 ALA2        0.0000 
     81 O          25.4202   30.5410    8.2668 O.2       2 ALA2        0.0000 
     82 CA         24.6926   28.5561    8.4424 C.3       5 GLY6        0.0000 
     83 O          24.0701   29.8940    8.1732 O.2       2 ALA2        0.0000 
     84 CA         22.7201   29.2470    8.0795 C.3       5 GLY6        0.0000 
     85 CA         21.4751   31.9229    7.5412 C.3       5 GLY6        0.0000 
     86 CA         20.7475   29.9380    7.7167 C.3       5 GLY6        0.0000 
     87 OG         30.8809   23.4814    2.3429 O.2       1 SER1        0.0000 
     88 OG         23.2008   32.8908    0.0023 O.2       1 SER1        0.0000 
     89 O          21.2282   33.5818   -0.3605 O.2       2 ALA2        0.0000 
     90 O          32.2414   30.9774    3.0199 O.2       2 ALA2        0.0000 
     91 O          34.0038   23.6408    4.2721 O.2       2 ALA2        0.0000 
     92 DU         33.3813   24.9787    4.0029 H         6 CUB7        0.0000 
     93 DU         32.7588   26.3167    3.7337 H         6 CUB7        0.0000 
     94 NZ         32.1363   27.6546    3.4646 N.2       3 LYS4        0.0000 
     95 DU         31.5138   28.9925    3.1954 H         6 CUB7        0.0000 
     96 CZ         30.8913   30.3304    2.9263 C.ar      4 PHE5        0.0000 
     97 O          32.6538   22.9938    4.1784 O.2       2 ALA2        0.0000 
     98 CZ         32.0313   24.3318    3.9093 C.ar      4 PHE5        0.0000 
     99 CZ         31.4088   25.6697    3.6401 C.ar      4 PHE5        0.0000 
    100 CZ         30.7863   27.0076    3.3709 C.ar      4 PHE5        0.0000 
    101 CZ         30.1638   28.3455    3.1018 C.ar      4 PHE5        0.0000 
    102 CZ         29.5413   29.6835    2.8326 C.ar      4 PHE5        0.0000 
    103 OG         28.8137   27.6986    3.0081 O.2       1 SER1        0.0000 
    104 CZ         28.1912   29.0365    2.7390 C.ar      4 PHE5        0.0000 
    105 CZ         26.8412   28.3895    2.6453 C.ar      4 PHE5        0.0000 
    106 CZ         25.4911   27.7425    2.5516 C.ar      4 PHE5        0.0000 
    107 N          23.0011   33.0942    1.4750 N.2       2 ALA2        0.0000 
    108 CZ         24.1411   27.0955    2.4580 C.ar      4 PHE5        0.0000 
    109 CZ         23.5186   28.4335    2.1888 C.ar      4 PHE5        0.0000 
    110 CZ         22.8961   29.7714    1.9197 C.ar      4 PHE5        0.0000 
    111 CZ         22.2736   31.1093    1.6505 C.ar      4 PHE5        0.0000 
    112 CZ         21.6511   32.4472    1.3813 C.ar      4 PHE5        0.0000 
    113 O          21.0286   33.7852    1.1122 O.2       2 ALA2        0.0000 
    114 DU         22.7910   26.4486    2.3643 H         6 CUB7        0.0000 
    115 DU         22.1685   27.7865    2.0952 H         6 CUB7        0.0000 
    116 DU         20.9235   30.4623    1.5569 H         6 CUB7        0.0000 
    117 DU         20.3010   31.8003    1.2877 H         6 CUB7        0.0000 
    118 O          19.6785   33.1382    1.0185 O.2       2 ALA2        0.0000 
    119 O          21.4410   25.8016    2.2707 O.2       2 ALA2        0.0000 
    120 O          17.7060   33.8291    0.6557 O.2       2 ALA2        0.0000 
    121 N          35.7768   23.1533    6.1076 N.2       2 ALA2        0.0000 
    122 N          35.1543   24.4912    5.8384 N.2       2 ALA2        0.0000 
    123 NZ         34.5318   25.8291    5.5692 N.2       3 LYS4        0.0000 
    124 NZ         32.6643   29.8429    4.7618 N.2       3 LYS4        0.0000 
    125 N          33.8042   23.8442    5.7447 N.2       2 ALA2        0.0000 
    126 DU         33.1817   25.1821    5.4756 H         6 CUB7        0.0000 
    127 NZ         32.5592   26.5201    5.2064 N.2       3 LYS4        0.0000 
    128 NZ         31.9367   27.8580    4.9373 N.2       3 LYS4        0.0000 
    129 NZ         31.3142   29.1959    4.6681 N.2       3 LYS4        0.0000 
    130 O          30.6917   30.5338    4.3989 O.2       2 ALA2        0.0000 
    131 N          32.4541   23.1972    5.6511 N.2       2 ALA2        0.0000 
    132 CZ         31.8316   24.5351    5.3819 C.ar      4 PHE5        0.0000 
    133 CZ         31.2092   25.8731    5.1128 C.ar      4 PHE5        0.0000 
    134 CZ         30.5867   27.2110    4.8436 C.ar      4 PHE5        0.0000 
    135 CZ         29.9642   28.5489    4.5744 C.ar      4 PHE5        0.0000 
    136 CZ         29.3417   29.8869    4.3053 C.ar      4 PHE5        0.0000 
    137 CZ         28.6141   27.9019    4.4808 C.ar      4 PHE5        0.0000 
    138 CZ         27.9916   29.2399    4.2116 C.ar      4 PHE5        0.0000 
    139 CZ         26.6416   28.5929    4.1180 C.ar      4 PHE5        0.0000 
    140 CZ         25.2915   27.9459    4.0243 C.ar      4 PHE5        0.0000 
@<TRIPOS>BOND
@<TRIPOS>SUBSTRUCTURE
     1 SER1       87 GROUP   
     2 ALA2        5 GROUP   
     3 LYS4        8 GROUP   
     4 PHE5        1 GROUP   
     5 GLY6        6 GROUP   
     6 CUB7       11 GROUP   
@<TRIPOS>SET

