#    Name: 4nbn_2J7_1_INTS_M
#    Modification time : Tue Mar 25 12:56:22 2014

@<TRIPOS>MOLECULE
4nbn_2J7_1_INTS_M
   71     0     6     0     0
SMALL
NO_CHARGES


@<TRIPOS>ATOM
      1 CA         22.6475   27.6150    6.8025 C.3       2 GLC5        0.0000 
      2 CA         22.5540   29.0250    5.9220 C.3       6 GLL5        0.0000 
      3 CA         22.7410   26.2050    7.6830 C.3       4 GLP5        0.0000 
      4 CA         23.6785   30.4365    5.0345 C.3       2 GLC5        0.0000 
      5 CA         24.8030   31.8480    4.1470 C.3       4 GLP5        0.0000 
      6 CA         23.9090   27.6105    7.0535 C.3       2 GLC5        0.0000 
      7 CA         25.0770   29.0160    6.4240 C.3       6 GLL5        0.0000 
      8 CA         20.8240   34.7235    4.3420 C.3       2 GLC5        0.0000 
      9 CA         20.8490   32.9860    5.6610 C.3       6 GLL5        0.0000 
     10 CA         20.7990   36.4610    3.0230 C.3       4 GLP5        0.0000 
     11 CA         21.6545   30.2760    8.6610 C.3       2 GLC5        0.0000 
     12 CA         22.0470   31.2900    6.9030 C.3       6 GLL5        0.0000 
     13 CA         21.2620   29.2620   10.4190 C.3       4 GLP5        0.0000 
     14 CA         19.5640   30.4240    5.1885 C.3       2 GLC5        0.0000 
     15 CA         21.3000   30.8380    4.6660 C.3       6 GLL5        0.0000 
     16 CA         17.8280   30.0100    5.7110 C.3       4 GLP5        0.0000 
     17 CA         22.0540   32.9695    8.9490 C.3       2 GLC5        0.0000 
     18 CA         21.5030   32.5740    6.8210 C.3       6 GLL5        0.0000 
     19 CA         22.6050   33.3650   11.0770 C.3       4 GLP5        0.0000 
     20 CA         28.6260   30.4395    7.1970 C.3       2 GLC5        0.0000 
     21 CA         27.4700   28.8210    6.8370 C.3       6 GLL5        0.0000 
     22 CA         29.7820   32.0580    7.5570 C.3       4 GLP5        0.0000 
     23 CA         26.1870   27.3155    8.0015 C.3       2 GLC5        0.0000 
     24 CA         25.9880   29.3050    8.5340 C.3       6 GLL5        0.0000 
     25 CA         26.3860   25.3260    7.4690 C.3       4 GLP5        0.0000 
     26 CA         26.1915   27.8685   10.2175 C.3       2 GLC5        0.0000 
     27 CA         26.3950   26.4320   11.9010 C.3       4 GLP5        0.0000 
     28 CA         26.0965   30.8915    7.3460 C.3       2 GLC5        0.0000 
     29 CA         26.2050   32.4780    6.1580 C.3       4 GLP5        0.0000 
     30 CA         25.5060   31.1890    9.5215 C.3       2 GLC5        0.0000 
     31 CA         25.0240   33.0730   10.5090 C.3       4 GLP5        0.0000 
     32 CA         29.1620   27.0480    6.5075 C.3       2 GLC5        0.0000 
     33 CA         30.0180   28.7590    7.1630 C.3       6 GLL5        0.0000 
     34 CA         28.3060   25.3370    5.8520 C.3       4 GLP5        0.0000 
     35 CA         29.9000   30.4085    7.3600 C.3       2 GLC5        0.0000 
     36 CA         32.0155   22.9465    8.1070 C.3       2 GLC5        0.0000 
     37 CA         31.6820   25.0600    8.6230 C.3       6 GLL5        0.0000 
     38 CA         32.3490   20.8330    7.5910 C.3       4 GLP5        0.0000 
     39 CA         29.6710   26.1205   11.2680 C.3       2 GLC5        0.0000 
     40 CA         30.7720   25.7800    9.3890 C.3       6 GLL5        0.0000 
     41 CA         28.5700   26.4610   13.1470 C.3       4 GLP5        0.0000 
     42 CA         30.2670   28.5845   10.2100 C.3       2 GLC5        0.0000 
     43 CA         30.2510   26.9800    8.8990 C.3       6 GLL5        0.0000 
     44 CA         30.2830   30.1890   11.5210 C.3       4 GLP5        0.0000 
     45 N          28.1925   26.9340   10.1145 N.am      1 SEC2        0.0000 
     46 N          29.3490   27.7000    9.6210 N.am      5 SEL2        0.0000 
     47 N          27.0360   26.1680   10.6080 N.am      3 SEP2        0.0000 
     48 N          28.5295   28.0905   10.8820 N.am      1 SEC2        0.0000 
     49 N          27.7100   28.4810   12.1430 N.am      3 SEP2        0.0000 
     50 N          23.7225   31.8610    8.5630 N.am      1 SEC2        0.0000 
     51 N          22.6960   30.8930    8.0320 N.am      5 SEL2        0.0000 
     52 N          24.7490   32.8290    9.0940 N.am      3 SEP2        0.0000 
     53 CA         23.1120   33.0390    6.4765 C.3       2 GLC5        0.0000 
     54 CA         25.0480   33.2980    6.7120 C.3       4 GLP5        0.0000 
     55 CA         19.5467   31.6165    6.0590 C.3       2 GLC5        0.0000 
     56 CA         18.2910   30.6820    6.9970 C.3       4 GLP5        0.0000 
     57 CA         23.5262   32.0772    6.5375 C.3       2 GLC5        0.0000 
     58 CA         20.0798   30.9297    6.6697 C.3       2 GLC5        0.0000 
     59 CA         26.4911   27.0924    6.9908 C.3       2 GLC5        0.0000 
     60 CA         26.4006   30.6684    6.3353 C.3       2 GLC5        0.0000 
     61 CA         26.3680   28.7770    5.9520 C.3       6 GLL5        0.0000 
     62 CA         28.8975   26.0375    8.4162 C.3       2 GLC5        0.0000 
     63 CA         30.6290   27.4600    7.6520 C.3       6 GLL5        0.0000 
     64 CA         27.3550   24.8550    8.5570 C.3       4 GLP5        0.0000 
     65 CA         32.1585   27.5010    9.0182 C.3       2 GLC5        0.0000 
     66 CA         33.8770   27.7820    9.7610 C.3       4 GLP5        0.0000 
     67 CA         33.2235   27.0343    7.8128 C.3       2 GLC5        0.0000 
     68 CA         31.5390   26.7380    6.8940 C.3       6 GLL5        0.0000 
     69 CA         34.6450   27.9240    8.4920 C.3       4 GLP5        0.0000 
     70 CA         29.2910   25.1375    8.7815 C.3       2 GLC5        0.0000 
     71 CA         32.5520   26.6010    9.3835 C.3       2 GLC5        0.0000 
@<TRIPOS>BOND
@<TRIPOS>SUBSTRUCTURE
     1 SEC2       45 GROUP        1 X    SEC  0     ROOT SEC X 2
     2 GLC5        1 GROUP        1 X    GLC  0     **** GLC X 6
     3 SEP2       47 GROUP        1 Y    SEP  0     ROOT SEP Y 9
     4 GLP5        3 GROUP        1 Y    GLP  0     **** GLP Y 13
     5 SEL2       46 GROUP        1 Z    SEL  0     ROOT SEL Z 16
     6 GLL5        2 GROUP        1 Z    GLL  0     **** GLL Z 20
@<TRIPOS>SET

