#    Name: 4nbn_2J7_1_ligand
#    Modification time : Tue Mar 25 12:56:22 2014

@<TRIPOS>MOLECULE
4nbn_2J7_1_ligand
   42    44     1     0     0
SMALL
NO_CHARGES


@<TRIPOS>ATOM
      1 C7         22.5540   29.0250    5.9220 C.3       1 2J7401      0.0000 
      2 N8         23.9850   28.9430    5.5350 N.pl3     1 2J7401      0.0000 
      3 C9         25.0770   29.0160    6.4240 C.ar      1 2J7401      0.0000 
      4 C2         20.8490   32.9860    5.6610 C.ar      1 2J7401      0.0000 
      5 C10        26.3680   28.7770    5.9520 C.ar      1 2J7401      0.0000 
      6 C4         22.0470   31.2900    6.9030 C.ar      1 2J7401      0.0000 
      7 C6         21.3000   30.8380    4.6660 C.ar      1 2J7401      0.0000 
      8 C1         20.7560   32.1160    4.5810 C.ar      1 2J7401      0.0000 
      9 C3         21.5030   32.5740    6.8210 C.ar      1 2J7401      0.0000 
     10 C5         21.9620   30.4230    5.8230 C.ar      1 2J7401      0.0000 
     11 C11        27.4700   28.8210    6.8370 C.ar      1 2J7401      0.0000 
     12 N12        27.2400   29.0770    8.1270 N.ar      1 2J7401      0.0000 
     13 C13        25.9880   29.3050    8.5340 C.ar      1 2J7401      0.0000 
     14 N14        24.9360   29.2790    7.7300 N.ar      1 2J7401      0.0000 
     15 N15        28.7790   28.6010    6.3580 N.pl3     1 2J7401      0.0000 
     16 C16        30.0180   28.7590    7.1630 C.3       1 2J7401      0.0000 
     17 C17        30.6290   27.4600    7.6520 C.ar      1 2J7401      0.0000 
     18 C18        31.5390   26.7380    6.8940 C.ar      1 2J7401      0.0000 
     19 C19        32.0650   25.5510    7.3730 C.ar      1 2J7401      0.0000 
     20 C20        31.6820   25.0600    8.6230 C.ar      1 2J7401      0.0000 
     21 C21        30.7720   25.7800    9.3890 C.ar      1 2J7401      0.0000 
     22 C22        30.2510   26.9800    8.8990 C.ar      1 2J7401      0.0000 
     23 O23        29.3490   27.7000    9.6210 O.3       1 2J7401      0.0000 
     24 O24        22.6960   30.8930    8.0320 O.3       1 2J7401      0.0000 
     25 H          22.4252   28.6645    6.9624 H         1 2J7401      0.0000 
     26 H          21.9531   28.3457    5.2844 H         1 2J7401      0.0000 
     27 H          24.1689   28.8207    4.5088 H         1 2J7401      0.0000 
     28 H          20.4403   33.9240    5.6067 H         1 2J7401      0.0000 
     29 H          26.5271   28.5679    4.9607 H         1 2J7401      0.0000 
     30 H          21.2144   30.1900    3.8682 H         1 2J7401      0.0000 
     31 H          20.2846   32.4166    3.7174 H         1 2J7401      0.0000 
     32 H          21.5860   33.2163    7.6196 H         1 2J7401      0.0000 
     33 H          25.8307   29.5214    9.5742 H         1 2J7401      0.0000 
     34 H          28.9186   28.3034    5.3649 H         1 2J7401      0.0000 
     35 H          29.8099   29.4028    8.0453 H         1 2J7401      0.0000 
     36 H          30.7826   29.3041    6.5675 H         1 2J7401      0.0000 
     37 H          31.8251   27.0899    5.9658 H         1 2J7401      0.0000 
     38 H          32.7453   25.0208    6.8068 H         1 2J7401      0.0000 
     39 H          32.0689   24.1787    8.9694 H         1 2J7401      0.0000 
     40 H          30.4827   25.4342   10.3098 H         1 2J7401      0.0000 
     41 H          29.0803   28.4539    9.0214 H         1 2J7401      0.0000 
     42 H          23.1315   30.0263    7.7889 H         1 2J7401      0.0000 
@<TRIPOS>BOND
     1    2    1 1    
     2   10    1 1    
     3   25    1 1    
     4   26    1 1    
     5    3    2 1    
     6   27    2 1    
     7    5    3 ar   
     8   14    3 ar   
     9    8    4 ar   
    10    9    4 ar   
    11   28    4 1    
    12   11    5 ar   
    13   29    5 1    
    14    9    6 ar   
    15   10    6 ar   
    16   24    6 1    
    17    8    7 ar   
    18   10    7 ar   
    19   30    7 1    
    20   31    8 1    
    21   32    9 1    
    22   12   11 ar   
    23   15   11 1    
    24   13   12 ar   
    25   14   13 ar   
    26   33   13 1    
    27   16   15 1    
    28   34   15 1    
    29   17   16 1    
    30   35   16 1    
    31   36   16 1    
    32   18   17 ar   
    33   22   17 ar   
    34   19   18 ar   
    35   37   18 1    
    36   20   19 ar   
    37   38   19 1    
    38   21   20 ar   
    39   39   20 1    
    40   22   21 ar   
    41   40   21 1    
    42   23   22 1    
    43   41   23 1    
    44   42   24 1    
@<TRIPOS>SUBSTRUCTURE
     1 2J7401      1 GROUP   
@<TRIPOS>SET

