#    Name: 1zem_NAD_6_INTS_M
#    Modification time : Tue Mar 25 11:42:51 2014

@<TRIPOS>MOLECULE
1zem_NAD_6_INTS_M
   91     0     9     0     0
SMALL
NO_CHARGES


@<TRIPOS>ATOM
      1 N          37.9155   43.3650   26.8870 N.am      2 SEC2        0.0000 
      2 N          38.7030   43.7100   28.1390 N.am      8 SEL2        0.0000 
      3 N          37.1280   43.0200   25.6350 N.am      5 SEP2        0.0000 
      4 N          38.7015   40.5480   27.7755 N.am      2 SEC2        0.0000 
      5 N          38.8110   41.3790   29.0910 N.am      8 SEL2        0.0000 
      6 N          38.5920   39.7170   26.4600 N.am      5 SEP2        0.0000 
      7 CA         37.2585   38.2410   29.7990 C.3       3 GLC5        0.0000 
      8 CA         37.8790   39.8280   30.3770 C.3       9 GLL5        0.0000 
      9 CA         36.6380   36.6540   29.2210 C.3       6 GLP5        0.0000 
     10 O          34.9130   39.6755   30.4690 O.2       1 ALC1        0.0000 
     11 O          35.5760   40.7560   30.4810 O.2       7 ALL1        0.0000 
     12 O          34.2500   38.5950   30.4570 O.2       4 ALP1        0.0000 
     13 O          34.4210   39.6820   32.8170 O.2       1 ALC1        0.0000 
     14 O          35.5590   40.3690   33.2520 O.2       7 ALL1        0.0000 
     15 O          33.2830   38.9950   32.3820 O.2       4 ALP1        0.0000 
     16 CA         36.8905   37.6880   30.7960 C.3       3 GLC5        0.0000 
     17 CA         37.1430   38.7220   32.3710 C.3       9 GLL5        0.0000 
     18 CA         38.1290   36.9200   32.0255 C.3       3 GLC5        0.0000 
     19 CA         39.1150   35.1180   31.6800 C.3       6 GLP5        0.0000 
     20 CA         39.8585   36.4180   35.8170 C.3       3 GLC5        0.0000 
     21 CA         37.7670   36.8320   35.3660 C.3       9 GLL5        0.0000 
     22 CA         41.9500   36.0040   36.2680 C.3       6 GLP5        0.0000 
     23 CA         35.9325   34.4525   37.0905 C.3       3 GLC5        0.0000 
     24 CA         37.4110   35.7410   36.1730 C.3       9 GLL5        0.0000 
     25 CA         34.4540   33.1640   38.0080 C.3       6 GLP5        0.0000 
     26 CA         38.2695   34.0745   35.8875 C.3       3 GLC5        0.0000 
     27 CA         39.1280   32.4080   35.6020 C.3       6 GLP5        0.0000 
     28 O          37.3580   34.6125   38.4160 O.2       1 ALC1        0.0000 
     29 O          37.9420   35.4060   37.3630 O.2       7 ALL1        0.0000 
     30 O          36.7740   33.8190   39.4690 O.2       4 ALP1        0.0000 
     31 N          36.3755   33.5095   36.2910 N.am      2 SEC2        0.0000 
     32 N          36.3990   34.8820   35.6830 N.am      8 SEL2        0.0000 
     33 N          36.3520   32.1370   36.8990 N.am      5 SEP2        0.0000 
     34 CA         34.8675   33.5660   33.3875 C.3       3 GLC5        0.0000 
     35 CA         35.7800   35.1300   34.4620 C.3       9 GLL5        0.0000 
     36 CA         33.9550   32.0020   32.3130 C.3       6 GLP5        0.0000 
     37 CA         34.2175   35.5700   33.2205 C.3       3 GLC5        0.0000 
     38 CA         32.6550   36.0100   31.9790 C.3       6 GLP5        0.0000 
     39 CA         34.3885   36.3010   35.4745 C.3       3 GLC5        0.0000 
     40 CA         32.9970   37.4720   36.4870 C.3       6 GLP5        0.0000 
     41 CA         35.1170   34.1470   36.2350 C.3       3 GLC5        0.0000 
     42 CA         36.5110   33.2760   34.3035 C.3       3 GLC5        0.0000 
     43 CA         37.2420   31.4220   34.1450 C.3       6 GLP5        0.0000 
     44 CA         37.4475   35.1240   33.0710 C.3       3 GLC5        0.0000 
     45 N          39.7480   41.5975   24.9840 N.am      2 SEC2        0.0000 
     46 N          40.4700   41.5280   26.3480 N.am      8 SEL2        0.0000 
     47 N          39.0260   41.6670   23.6200 N.am      5 SEP2        0.0000 
     48 CA         41.3680   39.8340   25.2605 C.3       3 GLC5        0.0000 
     49 CA         41.7870   39.5020   27.2620 C.3       9 GLL5        0.0000 
     50 CA         40.9490   40.1660   23.2590 C.3       6 GLP5        0.0000 
     51 CA         43.1970   39.8725   25.5285 C.3       3 GLC5        0.0000 
     52 CA         43.0480   38.6630   27.3840 C.3       9 GLL5        0.0000 
     53 CA         43.3460   41.0820   23.6730 C.3       6 GLP5        0.0000 
     54 CA         43.2925   38.0920   30.6450 C.3       3 GLC5        0.0000 
     55 CA         43.7460   38.6140   28.8160 C.3       9 GLL5        0.0000 
     56 CA         42.8390   37.5700   32.4740 C.3       6 GLP5        0.0000 
     57 N          45.5960   36.7530   29.3935 N.am      2 SEC2        0.0000 
     58 N          44.2530   37.2750   29.1070 N.am      8 SEL2        0.0000 
     59 N          46.9390   36.2310   29.6800 N.am      5 SEP2        0.0000 
     60 O          43.0030   36.7605   28.8265 O.2       1 ALC1        0.0000 
     61 O          44.2530   37.2750   29.1070 O.2       7 ALL1        0.0000 
     62 O          41.7530   36.2460   28.5460 O.2       4 ALP1        0.0000 
     63 N          47.1440   39.8895   29.5145 N.am      2 SEC2        0.0000 
     64 N          45.9380   39.4910   29.6300 N.am      8 SEL2        0.0000 
     65 N          48.3500   40.2880   29.3990 N.am      5 SEP2        0.0000 
     66 N          46.4385   37.8610   29.6550 N.am      2 SEC2        0.0000 
     67 CA         44.3340   40.2260   25.4735 C.3       3 GLC5        0.0000 
     68 CA         45.3220   39.3700   27.2740 C.3       9 GLL5        0.0000 
     69 CA         45.3970   37.9255   26.3735 C.3       3 GLC5        0.0000 
     70 CA         45.4720   36.4810   25.4730 C.3       6 GLP5        0.0000 
     71 CA         46.7470   43.5260   23.6660 C.3       3 GLC5        0.0000 
     72 CA         46.6030   42.6480   25.7060 C.3       9 GLL5        0.0000 
     73 CA         46.8910   44.4040   21.6260 C.3       6 GLP5        0.0000 
     74 CA         46.5145   38.2460   25.9370 C.3       3 GLC5        0.0000 
     75 CA         47.5570   40.0110   26.4010 C.3       9 GLL5        0.0000 
     76 CA         48.1260   39.0945   24.6185 C.3       3 GLC5        0.0000 
     77 CA         48.6950   38.1780   22.8360 C.3       6 GLP5        0.0000 
     78 CA         36.6077   41.0378   29.0138 C.3       3 GLC5        0.0000 
     79 CA         35.8510   41.7720   27.2670 C.3       6 GLP5        0.0000 
     80 CA         38.2725   36.0247   33.2155 C.3       3 GLC5        0.0000 
     81 CA         36.3210   37.5399   36.2469 C.3       3 GLC5        0.0000 
     82 CA         37.0930   37.0310   34.1360 C.3       9 GLL5        0.0000 
     83 CA         35.3010   38.4210   37.5410 C.3       6 GLP5        0.0000 
     84 CA         44.4345   37.5598   26.7865 C.3       3 GLC5        0.0000 
     85 CA         44.7493   41.6347   24.8280 C.3       3 GLC5        0.0000 
     86 CA         45.7020   41.7270   26.2600 C.3       9 GLL5        0.0000 
     87 CA         49.4605   39.6340   26.6720 C.3       3 GLC5        0.0000 
     88 CA         48.4770   40.9830   25.8290 C.3       9 GLL5        0.0000 
     89 CA         50.9040   38.7710   27.2290 C.3       6 GLP5        0.0000 
     90 CA         48.1280   41.1255   24.0216 C.3       3 GLC5        0.0000 
     91 CA         48.3580   40.5170   22.3330 C.3       6 GLP5        0.0000 
@<TRIPOS>BOND
@<TRIPOS>SUBSTRUCTURE
     1 ALC1       10 GROUP        1 X    ALC  0     ROOT ALC X 1
     2 SEC2        1 GROUP        1 X    SEC  0     **** SEC X 2
     3 GLC5        7 GROUP        1 X    GLC  0     **** GLC X 6
     4 ALP1       12 GROUP        1 Y    ALP  0     ROOT ALP Y 8
     5 SEP2        3 GROUP        1 Y    SEP  0     **** SEP Y 9
     6 GLP5        9 GROUP        1 Y    GLP  0     **** GLP Y 13
     7 ALL1       11 GROUP        1 Z    ALL  0     ROOT ALL Z 15
     8 SEL2        2 GROUP        1 Z    SEL  0     **** SEL Z 16
     9 GLL5        8 GROUP        1 Z    GLL  0     **** GLL Z 20
@<TRIPOS>SET

