#    Name: 1zem_NAD_6_ligand
#    Modification time : Tue Mar 25 11:42:51 2014

@<TRIPOS>MOLECULE
1zem_NAD_6_ligand
   69    73     1     0     0
SMALL
NO_CHARGES


@<TRIPOS>ATOM
      1 PA         39.5040   42.7970   29.0610 P.3       1 NAD7263     0.0000 
      2 O1A        39.5510   43.3540   30.3880 O.co2     1 NAD7263     0.0000 
      3 O2A        38.7030   43.7100   28.1390 O.co2     1 NAD7263     0.0000 
      4 O5B        38.8110   41.3790   29.0910 O.3       1 NAD7263     0.0000 
      5 C5B        39.2620   40.3930   30.0090 C.3       1 NAD7263     0.0000 
      6 C4B        37.8790   39.8280   30.3770 C.3       1 NAD7263     0.0000 
      7 O4B        38.0560   38.6630   31.2950 O.3       1 NAD7263     0.0000 
      8 C3B        36.8500   40.7790   31.1440 C.3       1 NAD7263     0.0000 
      9 O3B        35.5760   40.7560   30.4810 O.3       1 NAD7263     0.0000 
     10 C2B        36.8080   40.2290   32.5700 C.3       1 NAD7263     0.0000 
     11 O2B        35.5590   40.3690   33.2520 O.3       1 NAD7263     0.0000 
     12 C1B        37.1430   38.7220   32.3710 C.3       1 NAD7263     0.0000 
     13 N9A        37.6360   38.1550   33.5950 N.pl3     1 NAD7263     0.0000 
     14 C8A        38.6010   38.5870   34.4920 C.2       1 NAD7263     0.0000 
     15 N7A        38.7130   37.8350   35.5700 N.2       1 NAD7263     0.0000 
     16 C5A        37.7670   36.8320   35.3660 C.ar      1 NAD7263     0.0000 
     17 C6A        37.4110   35.7410   36.1730 C.ar      1 NAD7263     0.0000 
     18 N6A        37.9420   35.4060   37.3630 N.pl3     1 NAD7263     0.0000 
     19 N1A        36.3990   34.8820   35.6830 N.ar      1 NAD7263     0.0000 
     20 C2A        35.7800   35.1300   34.4620 C.ar      1 NAD7263     0.0000 
     21 N3A        36.1030   36.2040   33.6400 N.ar      1 NAD7263     0.0000 
     22 C4A        37.0930   37.0310   34.1360 C.ar      1 NAD7263     0.0000 
     23 O3         40.9090   42.6520   28.5450 O.3       1 NAD7263     0.0000 
     24 PN         41.4980   42.2170   27.1630 P.3       1 NAD7263     0.0000 
     25 O1N        40.4700   41.5280   26.3480 O.co2     1 NAD7263     0.0000 
     26 O2N        42.3900   43.0120   26.3740 O.co2     1 NAD7263     0.0000 
     27 O5D        42.2730   40.8440   27.4370 O.3       1 NAD7263     0.0000 
     28 C5D        41.7870   39.5020   27.2620 C.3       1 NAD7263     0.0000 
     29 C4D        43.0480   38.6630   27.3840 C.3       1 NAD7263     0.0000 
     30 O4D        44.1020   39.2050   26.4910 O.3       1 NAD7263     0.0000 
     31 C3D        43.7460   38.6140   28.8160 C.3       1 NAD7263     0.0000 
     32 O3D        44.2530   37.2750   29.1070 O.3       1 NAD7263     0.0000 
     33 C2D        44.8720   39.6510   28.6710 C.3       1 NAD7263     0.0000 
     34 O2D        45.9380   39.4910   29.6300 O.3       1 NAD7263     0.0000 
     35 C1D        45.3220   39.3700   27.2740 C.3       1 NAD7263     0.0000 
     36 N1N        46.1670   40.4290   26.6130 N.pl3     1 NAD7263     0.0000 
     37 C2N        45.7020   41.7270   26.2600 C.ar      1 NAD7263     0.0000 
     38 C3N        46.6030   42.6480   25.7060 C.ar      1 NAD7263     0.0000 
     39 C7N        46.0780   44.0460   25.3440 C.2       1 NAD7263     0.0000 
     40 O7N        46.9010   44.8180   24.9250 O.2       1 NAD7263     0.0000 
     41 N7N        44.8110   44.3800   25.5050 N.am      1 NAD7263     0.0000 
     42 C4N        48.0350   42.3220   25.4770 C.ar      1 NAD7263     0.0000 
     43 C5N        48.4770   40.9830   25.8290 C.ar      1 NAD7263     0.0000 
     44 C6N        47.5570   40.0110   26.4010 C.ar      1 NAD7263     0.0000 
     45 H          39.6892   40.8019   30.8748 H         1 NAD7263     0.0000 
     46 H          39.8165   39.6291   29.5526 H         1 NAD7263     0.0000 
     47 H          37.3736   39.4680   29.4880 H         1 NAD7263     0.0000 
     48 H          37.3053   41.7448   31.1613 H         1 NAD7263     0.0000 
     49 H          37.6410   40.6447   33.1109 H         1 NAD7263     0.0000 
     50 H          36.1921   38.2576   32.0860 H         1 NAD7263     0.0000 
     51 H          39.1490   39.4055   34.3054 H         1 NAD7263     0.0000 
     52 H          35.0253   34.4677   34.1430 H         1 NAD7263     0.0000 
     53 H          41.3679   39.3507   26.2902 H         1 NAD7263     0.0000 
     54 H          41.1094   39.2164   28.0381 H         1 NAD7263     0.0000 
     55 H          42.8570   37.6397   27.0957 H         1 NAD7263     0.0000 
     56 H          43.0404   38.9708   29.5110 H         1 NAD7263     0.0000 
     57 H          44.4180   40.6157   28.6868 H         1 NAD7263     0.0000 
     58 H          45.8585   38.4226   27.2592 H         1 NAD7263     0.0000 
     59 H          44.7293   41.9738   26.4109 H         1 NAD7263     0.0000 
     60 H          44.2108   43.6672   25.8679 H         1 NAD7263     0.0000 
     61 H          44.5666   45.3154   25.2494 H         1 NAD7263     0.0000 
     62 H          48.6448   42.9941   25.1027 H         1 NAD7263     0.0000 
     63 H          49.4458   40.7197   25.6733 H         1 NAD7263     0.0000 
     64 H          47.8535   39.0992   26.6402 H         1 NAD7263     0.0000 
     65 H          35.4635   39.8124   30.1695 H         1 NAD7263     0.0000 
     66 H          34.9175   39.8011   32.7362 H         1 NAD7263     0.0000 
     67 H          37.2600   34.8147   37.7933 H         1 NAD7263     0.0000 
     68 H          43.4619   36.7674   29.4484 H         1 NAD7263     0.0000 
     69 H          45.8235   38.5660   29.9921 H         1 NAD7263     0.0000 
@<TRIPOS>BOND
     1    2    1 ar   
     2    3    1 ar   
     3    4    1 1    
     4   23    1 1    
     5    5    4 1    
     6    6    5 1    
     7   45    5 1    
     8   46    5 1    
     9    7    6 1    
    10    8    6 1    
    11   47    6 1    
    12   12    7 1    
    13    9    8 1    
    14   10    8 1    
    15   48    8 1    
    16   65    9 1    
    17   11   10 1    
    18   12   10 1    
    19   49   10 1    
    20   66   11 1    
    21   13   12 1    
    22   50   12 1    
    23   14   13 1    
    24   22   13 1    
    25   15   14 2    
    26   51   14 1    
    27   16   15 1    
    28   17   16 ar   
    29   22   16 ar   
    30   18   17 1    
    31   19   17 ar   
    32   67   18 1    
    33   20   19 ar   
    34   21   20 ar   
    35   52   20 1    
    36   22   21 ar   
    37   24   23 1    
    38   25   24 ar   
    39   26   24 ar   
    40   27   24 1    
    41   28   27 1    
    42   29   28 1    
    43   53   28 1    
    44   54   28 1    
    45   30   29 1    
    46   31   29 1    
    47   55   29 1    
    48   35   30 1    
    49   32   31 1    
    50   33   31 1    
    51   56   31 1    
    52   68   32 1    
    53   34   33 1    
    54   35   33 1    
    55   57   33 1    
    56   69   34 1    
    57   36   35 1    
    58   58   35 1    
    59   37   36 ar   
    60   44   36 ar   
    61   38   37 ar   
    62   59   37 1    
    63   39   38 1    
    64   42   38 ar   
    65   40   39 2    
    66   41   39 am   
    67   60   41 1    
    68   61   41 1    
    69   43   42 ar   
    70   62   42 1    
    71   44   43 ar   
    72   63   43 1    
    73   64   44 1    
@<TRIPOS>SUBSTRUCTURE
     1 NAD7263     1 GROUP   
@<TRIPOS>SET

