#    Name: 4feg_TDM_2_INTS_M
#    Modification time : Mon Mar 24 19:27:24 2014

@<TRIPOS>MOLECULE
4feg_TDM_2_INTS_M
   82     0    12     0     0
SMALL
NO_CHARGES


@<TRIPOS>ATOM
      1 Zn         23.4880   87.6320   10.4350 Zn        3 ZIC7        0.0000 
      2 Zn         24.2590   87.0510   10.1460 Zn       11 ZIL7        0.0000 
      3 Zn         22.7170   88.2130   10.7240 Zn        7 ZIP7        0.0000 
      4 N          23.8900   86.0485    9.1885 N.am      2 SEC2        0.0000 
      5 N          24.2590   87.0510   10.1460 N.am     10 SEL2        0.0000 
      6 N          23.5210   85.0460    8.2310 N.am      6 SEP2        0.0000 
      7 N          25.7125   84.1395    9.5965 N.am      2 SEC2        0.0000 
      8 N          25.7670   85.0870   10.6870 N.am     10 SEL2        0.0000 
      9 N          25.6580   83.1920    8.5060 N.am      6 SEP2        0.0000 
     10 N          22.9635   87.2305   13.2615 N.am      2 SEC2        0.0000 
     11 N          23.8920   87.5150   14.2150 N.am     10 SEL2        0.0000 
     12 N          22.0350   86.9460   12.3080 N.am      6 SEP2        0.0000 
     13 Zn         23.3630   88.5905   11.4650 Zn        3 ZIC7        0.0000 
     14 Zn         24.0090   88.9680   12.2060 Zn       11 ZIL7        0.0000 
     15 N          22.7885   89.5350   12.7455 N.am      2 SEC2        0.0000 
     16 N          24.0090   88.9680   12.2060 N.am     10 SEL2        0.0000 
     17 N          21.5680   90.1020   13.2850 N.am      6 SEP2        0.0000 
     18 N          24.6600   90.1680   11.9515 N.am      2 SEC2        0.0000 
     19 N          25.3110   91.3680   11.6970 N.am      6 SEP2        0.0000 
     20 N          26.4985   88.1645   14.9505 N.am      2 SEC2        0.0000 
     21 N          25.9990   88.8260   13.7560 N.am     10 SEL2        0.0000 
     22 N          26.9980   87.5030   16.1450 N.am      6 SEP2        0.0000 
     23 N          26.6210   90.1395   13.7540 N.am      2 SEC2        0.0000 
     24 N          27.2430   91.4530   13.7520 N.am      6 SEP2        0.0000 
     25 CA         28.3520   86.6685   12.8455 C.3       4 GLC5        0.0000 
     26 CA         28.0900   87.0750   10.8340 C.3      12 GLL5        0.0000 
     27 CA         28.6140   86.2620   14.8570 C.3       8 GLP5        0.0000 
     28 CA         28.3405   85.9575    9.3725 C.3       4 GLC5        0.0000 
     29 CA         28.5910   84.8400    7.9110 C.3       8 GLP5        0.0000 
     30 CA         27.4735   87.8930    9.0510 C.3       4 GLC5        0.0000 
     31 CA         26.8570   88.7110    7.2680 C.3       8 GLP5        0.0000 
     32 CA         28.0305   89.6030    9.5025 C.3       4 GLC5        0.0000 
     33 CA         28.8720   88.3010   10.4770 C.3      12 GLL5        0.0000 
     34 CA         27.1890   90.9050    8.5280 C.3       8 GLP5        0.0000 
     35 CA         29.8450   86.9690   13.4905 C.3       4 GLC5        0.0000 
     36 CA         31.0760   87.6760   12.1240 C.3      12 GLL5        0.0000 
     37 CA         31.3115   88.7755   13.7080 C.3       4 GLC5        0.0000 
     38 CA         31.5470   89.8750   15.2920 C.3       8 GLP5        0.0000 
     39 CA         31.4640   86.2645    9.9260 C.3       4 GLC5        0.0000 
     40 CA         32.6580   87.4050   11.4400 C.3      12 GLL5        0.0000 
     41 CA         30.2700   85.1240    8.4120 C.3       8 GLP5        0.0000 
     42 CA         32.7000   88.7830   13.8060 C.3       4 GLC5        0.0000 
     43 CA         33.8530   87.6910   12.3200 C.3      12 GLL5        0.0000 
     44 CA         33.0235   89.5110   11.7855 C.3       4 GLC5        0.0000 
     45 CA         32.1940   91.3310   11.2510 C.3       8 GLP5        0.0000 
     46 CA         33.0325   88.3920   15.0075 C.3       4 GLC5        0.0000 
     47 CA         33.5870   87.2150   13.7350 C.3      12 GLL5        0.0000 
     48 CA         32.4780   89.5690   16.2800 C.3       8 GLP5        0.0000 
     49 CA         33.3515   86.3295   15.2740 C.3       4 GLC5        0.0000 
     50 CA         33.1160   85.4440   16.8130 C.3       8 GLP5        0.0000 
     51 CA         28.9525   88.5930    7.7115 C.3       4 GLC5        0.0000 
     52 CA         31.0480   88.4750    8.1550 C.3      12 GLL5        0.0000 
     53 CA         32.9695   89.5375   10.1930 C.3       4 GLC5        0.0000 
     54 CA         33.7450   87.7440    9.1350 C.3      12 GLL5        0.0000 
     55 O          34.5380   83.8765   10.8680 O.2       1 ALC1        0.0000 
     56 O          34.2080   84.9840   10.1700 O.2       9 ALL1        0.0000 
     57 O          34.8680   82.7690   11.5660 O.2       5 ALP1        0.0000 
     58 N          33.1155   82.6815    8.8900 N.am      2 SEC2        0.0000 
     59 N          33.7280   84.0000    8.0950 N.am     10 SEL2        0.0000 
     60 N          32.5030   81.3630    9.6850 N.am      6 SEP2        0.0000 
     61 CA         31.9125   84.6400    7.5955 C.3       4 GLC5        0.0000 
     62 CA         33.5550   84.1560    6.7790 C.3      12 GLL5        0.0000 
     63 CA         31.7305   84.1230    5.7175 C.3       4 GLC5        0.0000 
     64 CA         29.9060   84.0900    4.6560 C.3       8 GLP5        0.0000 
     65 CA         31.9720   82.6540    7.3440 C.3       4 GLC5        0.0000 
     66 CA         33.4280   82.9110    5.9160 C.3      12 GLL5        0.0000 
     67 CA         30.5160   82.3970    8.7720 C.3       8 GLP5        0.0000 
     68 CA         31.6240   82.6405    5.5400 C.3       4 GLC5        0.0000 
     69 CA         29.8200   82.3700    5.1640 C.3       8 GLP5        0.0000 
     70 CA         29.9500   86.6435    9.4728 C.3       4 GLC5        0.0000 
     71 CA         30.3880   88.0250   10.5900 C.3      12 GLL5        0.0000 
     72 CA         30.3235   89.8345   10.4247 C.3       4 GLC5        0.0000 
     73 CA         31.0170   91.5060   10.3160 C.3       8 GLP5        0.0000 
     74 CA         31.9585   85.6813   12.5915 C.3       4 GLC5        0.0000 
     75 CA         32.0500   83.8220   13.4010 C.3       8 GLP5        0.0000 
     76 CA         32.0305   89.4357   11.5165 C.3       4 GLC5        0.0000 
     77 CA         32.8850   85.6375   13.2142 C.3       4 GLC5        0.0000 
     78 CA         30.7172   86.7125    8.6475 C.3       4 GLC5        0.0000 
     79 CA         31.2810   88.1270    9.6110 C.3      12 GLL5        0.0000 
     80 CA         31.0907   89.9035    9.5995 C.3       4 GLC5        0.0000 
     81 CA         31.9651   85.7109    8.1438 C.3       4 GLC5        0.0000 
     82 CA         33.8880   85.1270    8.8820 C.3      12 GLL5        0.0000 
@<TRIPOS>BOND
@<TRIPOS>SUBSTRUCTURE
     1 ALC1       55 GROUP        1 X    ALC  0     ROOT ALC X 1
     2 SEC2        4 GROUP        1 X    SEC  0     **** SEC X 2
     3 ZIC7        1 GROUP        1 X    ZIC  0     **** ZIC X 5
     4 GLC5       25 GROUP        1 X    GLC  0     **** GLC X 6
     5 ALP1       57 GROUP        1 Y    ALP  0     ROOT ALP Y 8
     6 SEP2        6 GROUP        1 Y    SEP  0     **** SEP Y 9
     7 ZIP7        3 GROUP        1 Y    ZIP  0     **** ZIP Y 12
     8 GLP5       27 GROUP        1 Y    GLP  0     **** GLP Y 13
     9 ALL1       56 GROUP        1 Z    ALL  0     ROOT ALL Z 15
    10 SEL2        5 GROUP        1 Z    SEL  0     **** SEL Z 16
    11 ZIL7        2 GROUP        1 Z    ZIL  0     **** ZIL Z 19
    12 GLL5       26 GROUP        1 Z    GLL  0     **** GLL Z 20
@<TRIPOS>SET

