#    Name: 4feg_TDM_2_ligand
#    Modification time : Mon Mar 24 19:27:24 2014

@<TRIPOS>MOLECULE
4feg_TDM_2_ligand
   48    49     1     0     0
SMALL
NO_CHARGES


@<TRIPOS>ATOM
      1 O1A        24.2590   87.0510   10.1460 O.co2     1 TDM709      0.0000 
      2 PA         25.4690   86.5210   10.8390 P.3       1 TDM709      0.0000 
      3 O2A        25.7670   85.0870   10.6870 O.co2     1 TDM709      0.0000 
      4 O3A        25.3520   86.8070   12.3920 O.3       1 TDM709      0.0000 
      5 PB         24.7990   88.1350   13.2120 P.3       1 TDM709      0.0000 
      6 O2B        23.8920   87.5150   14.2150 O.co2     1 TDM709      0.0000 
      7 O3B        24.0090   88.9680   12.2060 O.co2     1 TDM709      0.0000 
      8 O1B        25.9990   88.8260   13.7560 O.co2     1 TDM709      0.0000 
      9 O7         26.6680   87.4190   10.3890 O.3       1 TDM709      0.0000 
     10 C7         28.0900   87.0750   10.8340 C.3       1 TDM709      0.0000 
     11 C6         28.8720   88.3010   10.4770 C.3       1 TDM709      0.0000 
     12 C5         30.3880   88.0250   10.5900 C.2       1 TDM709      0.0000 
     13 S1         31.0760   87.6760   12.1240 S.3       1 TDM709      0.0000 
     14 C2         32.6580   87.4050   11.4400 C.2       1 TDM709      0.0000 
     15 C27        33.8530   87.6910   12.3200 C.2       1 TDM709      0.0000 
     16 C29        33.5870   87.2150   13.7350 C.3       1 TDM709      0.0000 
     17 O28        34.9420   86.9730   11.8000 O.3       1 TDM709      0.0000 
     18 N3         32.6030   87.8600   10.0670 N.pl3     1 TDM709      0.0000 
     19 C4         31.2810   88.1270    9.6110 C.2       1 TDM709      0.0000 
     20 CM4        31.0480   88.4750    8.1550 C.3       1 TDM709      0.0000 
     21 C7'        33.7450   87.7440    9.1350 C.3       1 TDM709      0.0000 
     22 C5'        33.6400   86.4090    8.2940 C.ar      1 TDM709      0.0000 
     23 C4'        33.8880   85.1270    8.8820 C.ar      1 TDM709      0.0000 
     24 N4'        34.2080   84.9840   10.1700 N.pl3     1 TDM709      0.0000 
     25 N3'        33.7280   84.0000    8.0950 N.ar      1 TDM709      0.0000 
     26 C2'        33.5550   84.1560    6.7790 C.ar      1 TDM709      0.0000 
     27 CM2        33.4280   82.9110    5.9160 C.3       1 TDM709      0.0000 
     28 N1'        33.4790   85.3400    6.1990 N.ar      1 TDM709      0.0000 
     29 C6'        33.5300   86.4940    6.9530 C.ar      1 TDM709      0.0000 
     30 H          28.4375   86.2358   10.2832 H         1 TDM709      0.0000 
     31 H          28.1011   86.9166   11.8843 H         1 TDM709      0.0000 
     32 H          28.6205   89.1189   11.1500 H         1 TDM709      0.0000 
     33 H          28.6532   88.6044    9.4546 H         1 TDM709      0.0000 
     34 H          34.6912   87.7135    9.6706 H         1 TDM709      0.0000 
     35 H          33.7634   88.5698    8.4272 H         1 TDM709      0.0000 
     36 H          34.2192   85.8216   10.7162 H         1 TDM709      0.0000 
     37 H          34.4078   84.0522   10.4729 H         1 TDM709      0.0000 
     38 H          33.4831   87.4123    6.4789 H         1 TDM709      0.0000 
     39 H          34.3641   87.3926   14.3388 H         1 TDM709      0.0000 
     40 H          32.7931   87.6710   14.1372 H         1 TDM709      0.0000 
     41 H          33.4084   86.2316   13.7686 H         1 TDM709      0.0000 
     42 H          31.9018   88.4859    7.6345 H         1 TDM709      0.0000 
     43 H          30.4409   87.8176    7.7086 H         1 TDM709      0.0000 
     44 H          30.6299   89.3774    8.0512 H         1 TDM709      0.0000 
     45 H          34.2421   82.3333    5.9754 H         1 TDM709      0.0000 
     46 H          32.6483   82.3477    6.1892 H         1 TDM709      0.0000 
     47 H          33.3006   83.1395    4.9508 H         1 TDM709      0.0000 
     48 H          35.7302   87.5769   11.9183 H         1 TDM709      0.0000 
@<TRIPOS>BOND
     1    2    1 ar   
     2    3    2 ar   
     3    4    2 1    
     4    9    2 1    
     5    5    4 1    
     6    6    5 ar   
     7    7    5 ar   
     8    8    5 ar   
     9   10    9 1    
    10   11   10 1    
    11   30   10 1    
    12   31   10 1    
    13   12   11 1    
    14   32   11 1    
    15   33   11 1    
    16   13   12 1    
    17   19   12 2    
    18   14   13 1    
    19   15   14 2    
    20   18   14 1    
    21   16   15 1    
    22   17   15 1    
    23   39   16 1    
    24   40   16 1    
    25   41   16 1    
    26   48   17 1    
    27   19   18 1    
    28   21   18 1    
    29   20   19 1    
    30   42   20 1    
    31   43   20 1    
    32   44   20 1    
    33   22   21 1    
    34   34   21 1    
    35   35   21 1    
    36   23   22 ar   
    37   29   22 ar   
    38   24   23 1    
    39   25   23 ar   
    40   36   24 1    
    41   37   24 1    
    42   26   25 ar   
    43   27   26 1    
    44   28   26 ar   
    45   45   27 1    
    46   46   27 1    
    47   47   27 1    
    48   29   28 ar   
    49   38   29 1    
@<TRIPOS>SUBSTRUCTURE
     1 TDM709      1 GROUP   
@<TRIPOS>SET

