#    Name: 2yy5_WSA_2_INTS_M
#    Modification time : Mon Apr  7 18:30:40 2014

@<TRIPOS>MOLECULE
2yy5_WSA_2_INTS_M
  107     0     9     0     0
SMALL
NO_CHARGES


@<TRIPOS>ATOM
      1 CA         57.3545    2.6185  105.2840 C.3       3 GLC5        0.0000 
      2 CA         55.9660    3.4680  106.7230 C.3       9 GLL5        0.0000 
      3 CA         58.7430    1.7690  103.8450 C.3       6 GLP5        0.0000 
      4 CA         56.8385    5.9655  106.7540 C.3       3 GLC5        0.0000 
      5 CA         55.6340    4.4870  105.8380 C.3       9 GLL5        0.0000 
      6 CA         58.0430    7.4440  107.6700 C.3       6 GLP5        0.0000 
      7 O          56.7040    3.8620  103.3795 O.2       1 ALC1        0.0000 
      8 O          55.8050    4.6310  104.5260 O.2       7 ALL1        0.0000 
      9 O          57.6030    3.0930  102.2330 O.2       4 ALP1        0.0000 
     10 CA         55.7830    6.0745  102.5165 C.3       3 GLC5        0.0000 
     11 CA         55.3330    5.8140  104.1450 C.3       9 GLL5        0.0000 
     12 CA         56.2330    6.3350  100.8880 C.3       6 GLP5        0.0000 
     13 CA         54.3850    4.0920  104.2815 C.3       3 GLC5        0.0000 
     14 CA         53.4370    2.3700  104.4180 C.3       6 GLP5        0.0000 
     15 CA         56.4440    6.9540  106.4350 C.3       3 GLC5        0.0000 
     16 CA         54.8450    6.4640  105.2000 C.3       9 GLL5        0.0000 
     17 CA         53.4500    4.9285  105.0655 C.3       3 GLC5        0.0000 
     18 CA         52.0550    3.3930  104.9310 C.3       6 GLP5        0.0000 
     19 O          51.0120    6.3140  105.5235 O.2       1 ALC1        0.0000 
     20 O          51.9810    6.9440  104.7570 O.2       7 ALL1        0.0000 
     21 O          50.0430    5.6840  106.2900 O.2       4 ALP1        0.0000 
     22 N          52.2445   10.3110  103.1700 N.am      2 SEC2        0.0000 
     23 N          51.8850    9.7370  104.4700 N.am      8 SEL2        0.0000 
     24 N          52.6040   10.8850  101.8700 N.am      5 SEP2        0.0000 
     25 N          54.6785   12.0245  105.4590 N.am      2 SEC2        0.0000 
     26 N          53.2380   11.9850  105.7220 N.am      8 SEL2        0.0000 
     27 N          56.1190   12.0640  105.1960 N.am      5 SEP2        0.0000 
     28 N          52.5815   13.6020  105.6175 N.am      2 SEC2        0.0000 
     29 N          51.9250   15.2190  105.5130 N.am      5 SEP2        0.0000 
     30 CA         54.6970   12.5800  108.4415 C.3       3 GLC5        0.0000 
     31 CA         52.8170   11.8280  108.7090 C.3       9 GLL5        0.0000 
     32 CA         56.5770   13.3320  108.1740 C.3       6 GLP5        0.0000 
     33 CA         53.3380   11.2905  111.6345 C.3       3 GLC5        0.0000 
     34 CA         52.2140   11.2490  109.9930 C.3       9 GLL5        0.0000 
     35 CA         54.4620   11.3320  113.2760 C.3       6 GLP5        0.0000 
     36 N          51.2015   13.5850  109.9020 N.am      2 SEC2        0.0000 
     37 N          51.2380   12.1610  110.5270 N.am      8 SEL2        0.0000 
     38 N          51.1650   15.0090  109.2770 N.am      5 SEP2        0.0000 
     39 N          50.7265    8.3870  111.8545 N.am      2 SEC2        0.0000 
     40 N          51.7520    9.0590  110.9170 N.am      8 SEL2        0.0000 
     41 N          49.7010    7.7150  112.7920 N.am      5 SEP2        0.0000 
     42 N          49.4565    8.4790  111.5040 N.am      2 SEC2        0.0000 
     43 N          49.2120    9.2430  110.2160 N.am      8 SEL2        0.0000 
     44 O          47.8620    9.3200  110.1900 O.2       1 ALC1        0.0000 
     45 O          49.2120    9.2430  110.2160 O.2       7 ALL1        0.0000 
     46 O          46.5120    9.3970  110.1640 O.2       4 ALP1        0.0000 
     47 O          48.0905    9.3195  109.1120 O.2       1 ALC1        0.0000 
     48 O          46.9690    9.3960  108.0080 O.2       4 ALP1        0.0000 
     49 CA         50.8795   13.3840  111.5390 C.3       3 GLC5        0.0000 
     50 CA         50.0920   11.3820  110.9020 C.3       9 GLL5        0.0000 
     51 CA         51.6670   15.3860  112.1760 C.3       6 GLP5        0.0000 
     52 N          46.1320   13.5100  108.8855 N.am      2 SEC2        0.0000 
     53 N          47.3560   13.5920  110.1100 N.am      8 SEL2        0.0000 
     54 N          44.9080   13.4280  107.6610 N.am      5 SEP2        0.0000 
     55 CA         48.2470   10.4070  112.5015 C.3       3 GLC5        0.0000 
     56 CA         48.0870   12.5340  111.8860 C.3       9 GLL5        0.0000 
     57 CA         48.4070    8.2800  113.1170 C.3       6 GLP5        0.0000 
     58 CA         47.7035   14.6565  113.6500 C.3       3 GLC5        0.0000 
     59 CA         47.1420   12.6660  113.9970 C.3       9 GLL5        0.0000 
     60 CA         48.2650   16.6470  113.3030 C.3       6 GLP5        0.0000 
     61 CA         48.8010   12.4405  114.8560 C.3       3 GLC5        0.0000 
     62 CA         50.4600   12.2150  115.7150 C.3       6 GLP5        0.0000 
     63 CA         46.6560   11.1990  115.5500 C.3       3 GLC5        0.0000 
     64 CA         46.1700    9.7320  117.1030 C.3       6 GLP5        0.0000 
     65 CA         45.4820   12.3045  114.5545 C.3       3 GLC5        0.0000 
     66 CA         43.8220   11.9430  115.1120 C.3       6 GLP5        0.0000 
     67 CA         46.8825   13.9275  115.3630 C.3       3 GLC5        0.0000 
     68 CA         46.6230   15.1890  116.7290 C.3       6 GLP5        0.0000 
     69 N          45.2005   13.9260  114.3935 N.am      2 SEC2        0.0000 
     70 N          46.2120   13.5020  113.5720 N.am      8 SEL2        0.0000 
     71 N          44.1890   14.3500  115.2150 N.am      5 SEP2        0.0000 
     72 CA         44.9965   12.9190  113.7010 C.3       3 GLC5        0.0000 
     73 CA         46.1710   13.8950  112.2900 C.3       9 GLL5        0.0000 
     74 CA         44.9845   14.8140  113.8825 C.3       3 GLC5        0.0000 
     75 CA         43.7980   15.7330  115.4750 C.3       6 GLP5        0.0000 
     76 O          44.1165   15.3325  112.5390 O.2       1 ALC1        0.0000 
     77 O          45.2410   14.7510  111.8680 O.2       7 ALL1        0.0000 
     78 O          42.9920   15.9140  113.2100 O.2       4 ALP1        0.0000 
     79 O          45.1725   15.5590  110.5115 O.2       1 ALC1        0.0000 
     80 O          45.1040   16.3670  109.1550 O.2       4 ALP1        0.0000 
     81 CA         53.4905    4.4177  106.8175 C.3       3 GLC5        0.0000 
     82 CA         54.7290    5.7850  107.6580 C.3       9 GLL5        0.0000 
     83 CA         52.1070    3.1230  106.6530 C.3       6 GLP5        0.0000 
     84 CA         53.7620    5.2955  109.5778 C.3       3 GLC5        0.0000 
     85 CA         52.6290    5.3150  111.0550 C.3       6 GLP5        0.0000 
     86 CA         56.7085    4.6947  109.5025 C.3       3 GLC5        0.0000 
     87 CA         55.0610    4.7670  108.5430 C.3       9 GLL5        0.0000 
     88 CA         58.0470    5.2010  110.6960 C.3       6 GLP5        0.0000 
     89 CA         56.5053    6.3419  107.7163 C.3       3 GLC5        0.0000 
     90 CA         53.7385    3.6558  107.4810 C.3       3 GLC5        0.0000 
     91 CA         54.9860    3.0038  109.7260 C.3       3 GLC5        0.0000 
     92 CA         54.6020    1.8190  111.1430 C.3       6 GLP5        0.0000 
     93 CA         55.7993    1.4925  107.2845 C.3       3 GLC5        0.0000 
     94 CA         55.6790    3.6100  108.0750 C.3       9 GLL5        0.0000 
     95 CA         55.7760   -0.5540  107.1700 C.3       6 GLP5        0.0000 
     96 CA         54.6185    3.1738  105.3493 C.3       3 GLC5        0.0000 
     97 CA         56.2993    7.8700  103.9784 C.3       3 GLC5        0.0000 
     98 CA         57.9400    8.7400  103.0260 C.3       6 GLP5        0.0000 
     99 CA         50.0592    8.2825  109.1190 C.3       3 GLC5        0.0000 
    100 CA         51.4990    9.9100  109.7950 C.3       9 GLL5        0.0000 
    101 CA         49.3530    6.4420  108.4450 C.3       6 GLP5        0.0000 
    102 CA         49.2345    9.5695  111.7318 C.3       3 GLC5        0.0000 
    103 CA         50.0320   10.3360  109.7910 C.3       9 GLL5        0.0000 
    104 CA         45.5520   13.1265  110.3350 C.3       3 GLC5        0.0000 
    105 CA         47.1210   13.4090  111.4080 C.3       9 GLL5        0.0000 
    106 CA         44.4580   12.6010  108.8210 C.3       6 GLP5        0.0000 
    107 CA         47.5763   15.0401  112.6358 C.3       3 GLC5        0.0000 
@<TRIPOS>BOND
@<TRIPOS>SUBSTRUCTURE
     1 ALC1        7 GROUP        1 X    ALC  0     ROOT ALC X 1
     2 SEC2       22 GROUP        1 X    SEC  0     **** SEC X 2
     3 GLC5        1 GROUP        1 X    GLC  0     **** GLC X 6
     4 ALP1        9 GROUP        1 Y    ALP  0     ROOT ALP Y 8
     5 SEP2       24 GROUP        1 Y    SEP  0     **** SEP Y 9
     6 GLP5        3 GROUP        1 Y    GLP  0     **** GLP Y 13
     7 ALL1        8 GROUP        1 Z    ALL  0     ROOT ALL Z 15
     8 SEL2       23 GROUP        1 Z    SEL  0     **** SEL Z 16
     9 GLL5        2 GROUP        1 Z    GLL  0     **** GLL Z 20
@<TRIPOS>SET

