#    Name: 2yy5_WSA_2_ligand
#    Modification time : Mon Apr  7 18:30:40 2014

@<TRIPOS>MOLECULE
2yy5_WSA_2_ligand
   62    66     1     0     0
SMALL
NO_CHARGES


@<TRIPOS>ATOM
      1 CD2        55.0190    5.6400  106.3060 C.ar      1 WSA1351     0.0000 
      2 CE3        54.7290    5.7850  107.6580 C.ar      1 WSA1351     0.0000 
      3 CZ3        55.0610    4.7670  108.5430 C.ar      1 WSA1351     0.0000 
      4 CH2        55.6790    3.6100  108.0750 C.ar      1 WSA1351     0.0000 
      5 CZ2        55.9660    3.4680  106.7230 C.ar      1 WSA1351     0.0000 
      6 CE2        55.6340    4.4870  105.8380 C.ar      1 WSA1351     0.0000 
      7 N11        55.8050    4.6310  104.5260 N.pl3     1 WSA1351     0.0000 
      8 CD1        55.3330    5.8140  104.1450 C.2       1 WSA1351     0.0000 
      9 CG         54.8450    6.4640  105.2000 C.2       1 WSA1351     0.0000 
     10 CB         54.2280    7.8610  105.1890 C.3       1 WSA1351     0.0000 
     11 CA         52.7620    7.8320  105.6280 C.3       1 WSA1351     0.0000 
     12 NH3        51.9810    6.9440  104.7570 N.4       1 WSA1351     0.0000 
     13 C          52.1970    9.2530  105.5530 C.2       1 WSA1351     0.0000 
     14 O          51.8850    9.7370  104.4700 O.2       1 WSA1351     0.0000 
     15 NS         52.0710    9.9170  106.6970 N.am      1 WSA1351     0.0000 
     16 S          51.9900   11.5210  106.4130 S.o2      1 WSA1351     0.0000 
     17 O1S        53.2380   11.9850  105.7220 O.2       1 WSA1351     0.0000 
     18 O2S        50.8150   11.8310  105.5330 O.2       1 WSA1351     0.0000 
     19 O5'        51.8570   12.1450  107.6950 O.3       1 WSA1351     0.0000 
     20 C5'        52.8170   11.8280  108.7090 C.3       1 WSA1351     0.0000 
     21 C4'        52.2140   11.2490  109.9930 C.3       1 WSA1351     0.0000 
     22 O4'        51.2380   12.1610  110.5270 O.3       1 WSA1351     0.0000 
     23 C3'        51.4990    9.9100  109.7950 C.3       1 WSA1351     0.0000 
     24 O3'        51.7520    9.0590  110.9170 O.3       1 WSA1351     0.0000 
     25 C2'        50.0320   10.3360  109.7910 C.3       1 WSA1351     0.0000 
     26 O2'        49.2120    9.2430  110.2160 O.3       1 WSA1351     0.0000 
     27 C1'        50.0920   11.3820  110.9020 C.3       1 WSA1351     0.0000 
     28 N9         48.8780   12.2330  110.8660 N.pl3     1 WSA1351     0.0000 
     29 C8         48.4280   12.8720  109.7890 C.2       1 WSA1351     0.0000 
     30 N7         47.3560   13.5920  110.1100 N.2       1 WSA1351     0.0000 
     31 C5         47.1210   13.4090  111.4080 C.ar      1 WSA1351     0.0000 
     32 C4         48.0870   12.5340  111.8860 C.ar      1 WSA1351     0.0000 
     33 N3         48.0660   12.1840  113.1830 N.ar      1 WSA1351     0.0000 
     34 C2         47.1420   12.6660  113.9970 C.ar      1 WSA1351     0.0000 
     35 N1         46.2120   13.5020  113.5720 N.ar      1 WSA1351     0.0000 
     36 C6         46.1710   13.8950  112.2900 C.ar      1 WSA1351     0.0000 
     37 N6         45.2410   14.7510  111.8680 N.pl3     1 WSA1351     0.0000 
     38 H          54.2731    6.6378  107.9991 H         1 WSA1351     0.0000 
     39 H          54.8509    4.8663  109.5449 H         1 WSA1351     0.0000 
     40 H          55.9235    2.8579  108.7345 H         1 WSA1351     0.0000 
     41 H          56.4211    2.6146  106.3791 H         1 WSA1351     0.0000 
     42 H          56.2153    3.9674  103.9334 H         1 WSA1351     0.0000 
     43 H          55.3422    6.1575  103.2259 H         1 WSA1351     0.0000 
     44 H          54.2910    8.2743  104.1806 H         1 WSA1351     0.0000 
     45 H          54.7906    8.5082  105.8645 H         1 WSA1351     0.0000 
     46 H          52.7164    7.5037  106.6480 H         1 WSA1351     0.0000 
     47 H          52.0212    9.6611  107.5984 H         1 WSA1351     0.0000 
     48 H          53.4079   12.7280  108.9991 H         1 WSA1351     0.0000 
     49 H          53.5677   11.0923  108.3365 H         1 WSA1351     0.0000 
     50 H          53.0084   11.1002  110.7152 H         1 WSA1351     0.0000 
     51 H          51.7494    9.5183  108.8723 H         1 WSA1351     0.0000 
     52 H          49.7974   10.7780  108.9075 H         1 WSA1351     0.0000 
     53 H          50.2234   10.9039  111.8161 H         1 WSA1351     0.0000 
     54 H          48.8263   12.8201  108.8939 H         1 WSA1351     0.0000 
     55 H          47.1485   12.3731  115.0181 H         1 WSA1351     0.0000 
     56 H          45.2608   14.9774  110.8942 H         1 WSA1351     0.0000 
     57 H          44.6070   15.0899  112.5631 H         1 WSA1351     0.0000 
     58 H          52.0084    7.2417  103.8027 H         1 WSA1351     0.0000 
     59 H          52.3236    6.0048  104.7810 H         1 WSA1351     0.0000 
     60 H          51.0185    6.9119  105.0265 H         1 WSA1351     0.0000 
     61 H          52.5283    8.4919  110.6417 H         1 WSA1351     0.0000 
     62 H          48.2722    9.5656  110.1034 H         1 WSA1351     0.0000 
@<TRIPOS>BOND
     1    2    1 ar   
     2    6    1 ar   
     3    9    1 1    
     4    3    2 ar   
     5   38    2 1    
     6    4    3 ar   
     7   39    3 1    
     8    5    4 ar   
     9   40    4 1    
    10    6    5 ar   
    11   41    5 1    
    12    7    6 1    
    13    8    7 1    
    14   42    7 1    
    15    9    8 2    
    16   43    8 1    
    17   10    9 1    
    18   11   10 1    
    19   44   10 1    
    20   45   10 1    
    21   12   11 1    
    22   13   11 1    
    23   46   11 1    
    24   58   12 1    
    25   59   12 1    
    26   60   12 1    
    27   14   13 2    
    28   15   13 am   
    29   16   15 1    
    30   47   15 1    
    31   17   16 2    
    32   18   16 2    
    33   19   16 1    
    34   20   19 1    
    35   21   20 1    
    36   48   20 1    
    37   49   20 1    
    38   22   21 1    
    39   23   21 1    
    40   50   21 1    
    41   27   22 1    
    42   24   23 1    
    43   25   23 1    
    44   51   23 1    
    45   61   24 1    
    46   26   25 1    
    47   27   25 1    
    48   52   25 1    
    49   62   26 1    
    50   28   27 1    
    51   53   27 1    
    52   29   28 1    
    53   32   28 1    
    54   30   29 2    
    55   54   29 1    
    56   31   30 1    
    57   32   31 ar   
    58   36   31 ar   
    59   33   32 ar   
    60   34   33 ar   
    61   35   34 ar   
    62   55   34 1    
    63   36   35 ar   
    64   37   36 1    
    65   56   37 1    
    66   57   37 1    
@<TRIPOS>SUBSTRUCTURE
     1 WSA1351     1 GROUP   
@<TRIPOS>SET

