#    Name: 3E4A_1_CAVITY_N1_ALL.mol2
#    Modification time : Tue Mar 11 17:57:23 2014

@<TRIPOS>MOLECULE
3E4A_1_CAVITY_N1_ALL.mol2
  164     0     7     0     0
SMALL
NO_CHARGES


@<TRIPOS>ATOM
      1 DU        -83.0784   65.9567   13.0321 H         7 CUB7        0.0000 
      2 DU        -83.5665   69.2103    9.9619 H         7 CUB7        0.0000 
      3 O         -83.7293   70.2948    8.9386 O.2       2 ALA2        0.0000 
      4 DU        -82.9478   68.3228    8.9230 H         7 CUB7        0.0000 
      5 O         -83.1105   69.4073    7.8996 O.2       2 ALA2        0.0000 
      6 O         -83.2732   70.4918    6.8762 O.2       2 ALA2        0.0000 
      7 DU        -82.4917   68.5198    6.8607 H         7 CUB7        0.0000 
      8 O         -82.6545   69.6043    5.8373 O.2       2 ALA2        0.0000 
      9 N         -82.8172   70.6888    4.8139 N.2       2 ALA2        0.0000 
     10 N         -83.1427   72.8579    2.7671 N.2       2 ALA2        0.0000 
     11 O         -81.8730   67.6322    5.8217 O.2       2 ALA2        0.0000 
     12 OG        -82.0357   68.7168    4.7983 O.2       1 SER1        0.0000 
     13 OG        -82.3612   70.8858    2.7515 O.2       1 SER1        0.0000 
     14 OD1       -82.5239   71.9703    1.7282 O.3       3 ASP3        0.0000 
     15 OD1       -82.6866   73.0549    0.7048 O.3       3 ASP3        0.0000 
     16 CA        -79.2145   72.0403   14.4676 C.3       6 GLY6        0.0000 
     17 N         -83.0027   71.6611   16.8667 N.2       2 ALA2        0.0000 
     18 N         -83.1654   72.7456   15.8433 N.2       2 ALA2        0.0000 
     19 CA        -83.3282   73.8302   14.8199 C.3       6 GLY6        0.0000 
     20 OG        -81.7216   66.4916   13.3832 O.2       1 SER1        0.0000 
     21 DU        -81.8844   67.5761   12.3598 H         7 CUB7        0.0000 
     22 DU        -82.0471   68.6606   11.3364 H         7 CUB7        0.0000 
     23 DU        -82.2098   69.7452   10.3130 H         7 CUB7        0.0000 
     24 N         -82.3726   70.8297    9.2896 N.2       2 ALA2        0.0000 
     25 N         -82.5353   71.9142    8.2663 N.2       2 ALA2        0.0000 
     26 CZ        -81.2656   66.6886   11.3208 C.ar      5 PHE5        0.0000 
     27 CZ        -81.4283   67.7731   10.2975 C.ar      5 PHE5        0.0000 
     28 CZ        -81.5911   68.8576    9.2741 C.ar      5 PHE5        0.0000 
     29 CZ        -81.7538   69.9422    8.2507 C.ar      5 PHE5        0.0000 
     30 N         -81.9165   71.0267    7.2273 N.2       2 ALA2        0.0000 
     31 CZ        -81.1350   69.0546    7.2117 C.ar      5 PHE5        0.0000 
     32 O         -81.2978   70.1392    6.1884 O.2       2 ALA2        0.0000 
     33 N         -81.4605   71.2237    5.1650 N.2       2 ALA2        0.0000 
     34 N         -81.6232   72.3082    4.1416 N.2       2 ALA2        0.0000 
     35 N         -81.7860   73.3927    3.1182 N.2       2 ALA2        0.0000 
     36 O         -80.5163   68.1671    6.1728 O.2       2 ALA2        0.0000 
     37 O         -80.6790   69.2516    5.1494 O.2       2 ALA2        0.0000 
     38 N         -81.8087   73.2805   16.1944 N.2       2 ALA2        0.0000 
     39 CA        -79.7897   69.5334   14.1009 C.3       6 GLY6        0.0000 
     40 DU        -79.9524   70.6179   13.0775 H         7 CUB7        0.0000 
     41 OG        -80.1152   71.7024   12.0542 O.2       1 SER1        0.0000 
     42 OG        -80.2779   72.7870   11.0308 O.2       1 SER1        0.0000 
     43 OG        -80.4406   73.8715   10.0074 O.2       1 SER1        0.0000 
     44 CZ        -79.3337   69.7304   12.0386 C.ar      5 PHE5        0.0000 
     45 CZ        -79.4964   70.8149   11.0152 C.ar      5 PHE5        0.0000 
     46 CZ        -79.6591   71.8994    9.9918 C.ar      5 PHE5        0.0000 
     47 OG        -79.8219   72.9839    8.9684 O.2       1 SER1        0.0000 
     48 CZ        -79.9846   74.0685    7.9451 C.ar      5 PHE5        0.0000 
     49 CZ        -80.1473   75.1530    6.9217 C.ar      5 PHE5        0.0000 
     50 CZ        -79.2031   72.0964    7.9295 C.ar      5 PHE5        0.0000 
     51 DU        -79.3658   73.1809    6.9061 H         7 CUB7        0.0000 
     52 CZ        -79.5286   74.2655    5.8827 C.ar      5 PHE5        0.0000 
     53 OG        -83.8806   71.4355    1.3771 O.2       1 SER1        0.0000 
     54 N         -84.0433   72.5200    0.3537 N.2       2 ALA2        0.0000 
     55 CA        -84.2061   73.6045   -0.6697 C.3       6 GLY6        0.0000 
     56 NZ        -83.2619   70.5479    0.3381 N.2       4 LYS4        0.0000 
     57 NZ        -83.4246   71.6325   -0.6853 N.2       4 LYS4        0.0000 
     58 NZ        -83.5873   72.7170   -1.7086 N.2       4 LYS4        0.0000 
     59 O         -83.7500   73.8015   -2.7320 O.2       2 ALA2        0.0000 
     60 CZ        -78.5844   71.2089    6.8905 C.ar      5 PHE5        0.0000 
     61 O         -78.7471   72.2934    5.8672 O.2       2 ALA2        0.0000 
     62 O         -78.9098   73.3779    4.8438 O.2       2 ALA2        0.0000 
     63 CA        -79.0725   74.4625    3.8204 C.3       6 GLY6        0.0000 
     64 O         -78.2911   72.4904    3.8048 O.2       2 ALA2        0.0000 
     65 O         -79.6478   71.9555    3.4537 O.2       2 ALA2        0.0000 
     66 OG        -83.5779   69.1542   16.5000 O.2       1 SER1        0.0000 
     67 N         -83.7407   70.2387   15.4767 N.2       2 ALA2        0.0000 
     68 CA        -83.9034   71.3232   14.4533 C.3       6 GLY6        0.0000 
     69 OG        -82.9592   68.2666   15.4611 O.2       1 SER1        0.0000 
     70 DU        -83.1219   69.3512   14.4377 H         7 CUB7        0.0000 
     71 DU        -83.2846   70.4357   13.4143 H         7 CUB7        0.0000 
     72 O         -83.4474   71.5202   12.3909 O.2       2 ALA2        0.0000 
     73 OG        -82.3404   67.3791   14.4221 O.2       1 SER1        0.0000 
     74 DU        -82.5031   68.4636   13.3987 H         7 CUB7        0.0000 
     75 N         -82.8286   70.6327   11.3520 N.2       2 ALA2        0.0000 
     76 N         -82.9913   71.7172   10.3286 N.2       2 ALA2        0.0000 
     77 OG        -85.0746   69.8161    2.0494 O.2       1 SER1        0.0000 
     78 OG        -85.2373   70.9006    1.0260 O.2       1 SER1        0.0000 
     79 CA        -85.4000   71.9851    0.0026 C.3       6 GLY6        0.0000 
     80 CA        -85.5628   73.0697   -1.0208 C.3       6 GLY6        0.0000 
     81 NZ        -84.6186   70.0131   -0.0130 N.2       4 LYS4        0.0000 
     82 NZ        -84.7813   71.0976   -1.0364 N.2       4 LYS4        0.0000 
     83 NZ        -84.9440   72.1821   -2.0597 N.2       4 LYS4        0.0000 
     84 N         -85.1067   73.2667   -3.0831 N.2       2 ALA2        0.0000 
     85 O         -84.1739   70.1540    4.4628 O.2       2 ALA2        0.0000 
     86 N         -84.3366   71.2385    3.4394 N.2       2 ALA2        0.0000 
     87 CZ        -77.8464   72.6313    8.2806 C.ar      5 PHE5        0.0000 
     88 CA        -78.0091   73.7158    7.2572 C.3       6 GLY6        0.0000 
     89 CZ        -78.1719   74.8003    6.2338 C.ar      5 PHE5        0.0000 
     90 O         -77.3904   72.8283    6.2182 O.2       2 ALA2        0.0000 
     91 N         -77.5531   73.9128    5.1949 N.2       2 ALA2        0.0000 
     92 N         -80.3649   67.0264   13.7343 N.2       2 ALA2        0.0000 
     93 CA        -80.5277   68.1110   12.7109 C.3       6 GLY6        0.0000 
     94 CZ        -80.6904   69.1955   11.6875 C.ar      5 PHE5        0.0000 
     95 CZ        -80.8531   70.2800   10.6641 C.ar      5 PHE5        0.0000 
     96 CZ        -81.0159   71.3646    9.6407 C.ar      5 PHE5        0.0000 
     97 N         -81.1786   72.4491    8.6174 N.2       2 ALA2        0.0000 
     98 N         -81.3413   73.5336    7.5940 N.2       2 ALA2        0.0000 
     99 CZ        -81.5040   74.6181    6.5706 C.ar      5 PHE5        0.0000 
    100 CZ        -80.3971   70.4770    8.6018 C.ar      5 PHE5        0.0000 
    101 CZ        -80.5598   71.5616    7.5784 C.ar      5 PHE5        0.0000 
    102 N         -80.7225   72.6461    6.5550 N.2       2 ALA2        0.0000 
    103 N         -80.8853   73.7306    5.5316 N.2       2 ALA2        0.0000 
    104 N         -81.0480   74.8151    4.5083 N.2       2 ALA2        0.0000 
    105 CZ        -79.9411   70.6740    6.5395 C.ar      5 PHE5        0.0000 
    106 O         -80.1038   71.7585    5.5161 O.2       2 ALA2        0.0000 
    107 O         -80.2665   72.8431    4.4927 O.2       2 ALA2        0.0000 
    108 N         -80.4292   73.9276    3.4693 N.2       2 ALA2        0.0000 
    109 OG        -82.2212   69.6890   16.8511 O.2       1 SER1        0.0000 
    110 CA        -82.3839   70.7736   15.8277 C.3       6 GLY6        0.0000 
    111 N         -82.5467   71.8581   14.8044 N.2       2 ALA2        0.0000 
    112 CA        -82.7094   72.9426   13.7810 C.3       6 GLY6        0.0000 
    113 O         -82.8721   74.0272   12.7576 O.2       2 ALA2        0.0000 
    114 OG        -81.6025   68.8015   15.8122 O.2       1 SER1        0.0000 
    115 DU        -81.7652   69.8860   14.7888 H         7 CUB7        0.0000 
    116 DU        -81.9279   70.9706   13.7654 H         7 CUB7        0.0000 
    117 DU        -82.0906   72.0551   12.7420 H         7 CUB7        0.0000 
    118 O         -82.2534   73.1396   11.7186 O.2       2 ALA2        0.0000 
    119 CA        -82.4161   74.2242   10.6953 C.3       6 GLY6        0.0000 
    120 OG        -80.9837   67.9140   14.7732 O.2       1 SER1        0.0000 
    121 DU        -81.1464   68.9985   13.7498 H         7 CUB7        0.0000 
    122 DU        -81.3092   70.0830   12.7265 H         7 CUB7        0.0000 
    123 DU        -81.4719   71.1676   11.7031 H         7 CUB7        0.0000 
    124 N         -81.6346   72.2521   10.6797 N.2       2 ALA2        0.0000 
    125 N         -81.7973   73.3366    9.6563 N.2       2 ALA2        0.0000 
    126 CZ        -81.9601   74.4211    8.6329 C.ar      5 PHE5        0.0000 
    127 CA        -81.0272   71.3084   16.1788 C.3       6 GLY6        0.0000 
    128 N         -81.1900   72.3930   15.1555 N.2       2 ALA2        0.0000 
    129 N         -81.3527   73.4775   14.1321 N.2       2 ALA2        0.0000 
    130 OG        -81.5154   74.5620   13.1087 O.2       1 SER1        0.0000 
    131 CA        -80.2458   69.3364   16.1633 C.3       6 GLY6        0.0000 
    132 CA        -80.4085   70.4209   15.1399 C.3       6 GLY6        0.0000 
    133 CA        -80.5712   71.5054   14.1165 C.3       6 GLY6        0.0000 
    134 OG        -80.7339   72.5900   13.0931 O.2       1 SER1        0.0000 
    135 OG        -81.0594   74.7590   11.0463 O.2       1 SER1        0.0000 
    136 CZ        -76.4897   73.1661    8.6317 C.ar      5 PHE5        0.0000 
    137 CA        -76.6524   74.2507    7.6083 C.3       6 GLY6        0.0000 
    138 NZ        -76.0337   73.3631    6.5693 N.2       4 LYS4        0.0000 
    139 CA        -86.9195   72.5348   -1.3719 C.3       6 GLY6        0.0000 
    140 DU        -86.3007   71.6473   -2.4108 H         7 CUB7        0.0000 
    141 N         -86.4635   72.7318   -3.4342 N.2       2 ALA2        0.0000 
    142 NZ        -85.3565   68.5907   -1.4030 N.2       4 LYS4        0.0000 
    143 NZ        -85.5192   69.6752   -2.4264 N.2       4 LYS4        0.0000 
    144 OG        -80.8417   70.3362    4.1260 O.2       1 SER1        0.0000 
    145 OG        -81.0045   71.4207    3.1026 O.2       1 SER1        0.0000 
    146 N         -81.1672   72.5052    2.0793 N.2       2 ALA2        0.0000 
    147 CA        -78.5957   71.1528   13.4286 C.3       6 GLY6        0.0000 
    148 OG        -78.3024   72.4343   10.3429 O.2       1 SER1        0.0000 
    149 OG        -78.4652   73.5188    9.3195 O.2       1 SER1        0.0000 
    150 CZ        -78.6279   74.6033    8.2962 C.ar      5 PHE5        0.0000 
    151 O         -85.6933   70.7036    3.0883 O.2       2 ALA2        0.0000 
    152 N         -85.8561   71.7882    2.0649 N.2       2 ALA2        0.0000 
    153 N         -86.0188   72.8727    1.0416 N.2       2 ALA2        0.0000 
    154 O         -84.9346   68.6193   16.1489 O.2       2 ALA2        0.0000 
    155 CA        -85.0974   69.7038   15.1256 C.3       6 GLY6        0.0000 
    156 OG        -84.1531   66.6472   16.1334 O.2       1 SER1        0.0000 
    157 OG        -84.3159   67.7318   15.1100 O.2       1 SER1        0.0000 
    158 DU        -84.4786   68.8163   14.0866 H         7 CUB7        0.0000 
    159 CA        -84.6413   69.9008   13.0632 C.3       6 GLY6        0.0000 
    160 CA        -84.8041   70.9854   12.0398 C.3       6 GLY6        0.0000 
    161 OG        -83.5344   65.7597   15.0944 O.2       1 SER1        0.0000 
    162 OG        -83.6971   66.8442   14.0710 O.2       1 SER1        0.0000 
    163 DU        -83.8598   67.9288   13.0477 H         7 CUB7        0.0000 
    164 N         -84.1853   70.0978   11.0009 N.2       2 ALA2        0.0000 
@<TRIPOS>BOND
@<TRIPOS>SUBSTRUCTURE
     1 SER1       12 GROUP   
     2 ALA2        3 GROUP   
     3 ASP3       14 GROUP   
     4 LYS4       56 GROUP   
     5 PHE5       26 GROUP   
     6 GLY6       16 GROUP   
     7 CUB7        1 GROUP   
@<TRIPOS>SET

