#    Name: 3e4a_QIX_1_INTS_M
#    Modification time : Tue Mar 25 00:53:39 2014

@<TRIPOS>MOLECULE
3e4a_QIX_1_INTS_M
   55     0    12     0     0
SMALL
NO_CHARGES


@<TRIPOS>ATOM
      1 CA        -74.6195   74.5365    7.2215 C.3       4 GLC5        0.0000 
      2 CA        -76.2450   73.7380    6.6110 C.3      12 GLL5        0.0000 
      3 CA        -72.9940   75.3350    7.8320 C.3       8 GLP5        0.0000 
      4 CA        -77.7270   75.0275    3.7640 C.3       4 GLC5        0.0000 
      5 CA        -78.3910   73.7670    5.2080 C.3      12 GLL5        0.0000 
      6 CA        -77.0630   76.2880    2.3200 C.3       8 GLP5        0.0000 
      7 CA        -82.7055   62.4175    3.9245 C.3       4 GLC5        0.0000 
      8 CA        -84.3350   63.0460    5.0360 C.3      12 GLL5        0.0000 
      9 CA        -81.0760   61.7890    2.8130 C.3       8 GLP5        0.0000 
     10 CA        -82.5610   66.4425    3.4135 C.3       4 GLC5        0.0000 
     11 CA        -83.6630   66.7630    5.1330 C.3      12 GLL5        0.0000 
     12 CA        -81.4590   66.1220    1.6940 C.3       8 GLP5        0.0000 
     13 N         -84.8720   70.1785    6.1760 N.am      2 SEC2        0.0000 
     14 N         -84.1130   69.0180    6.0330 N.am     10 SEL2        0.0000 
     15 N         -85.6310   71.3390    6.3190 N.am      6 SEP2        0.0000 
     16 CA        -79.9930   69.4490    7.5600 C.3       4 GLC5        0.0000 
     17 CA        -81.9670   69.8220    6.7410 C.3      12 GLL5        0.0000 
     18 CA        -78.0190   69.0760    8.3790 C.3       8 GLP5        0.0000 
     19 O         -83.1165   71.8510    5.5735 O.2       1 ALC1        0.0000 
     20 O         -82.0160   70.9050    5.7430 O.2       9 ALL1        0.0000 
     21 O         -84.2170   72.7970    5.4040 O.2       5 ALP1        0.0000 
     22 N         -79.2630   69.2110    4.6090 N.am      2 SEC2        0.0000 
     23 N         -80.2710   70.1740    4.3700 N.am     10 SEL2        0.0000 
     24 N         -78.2550   68.2480    4.8480 N.am      6 SEP2        0.0000 
     25 N         -78.7385   70.2395    4.5035 N.am      2 SEC2        0.0000 
     26 N         -77.2060   70.3050    4.6370 N.am      6 SEP2        0.0000 
     27 Zn        -81.0310   72.3740   -0.6750 Zn        3 ZIC7        0.0000 
     28 Zn        -81.6720   72.8910   -0.6890 Zn       11 ZIL7        0.0000 
     29 Zn        -80.3900   71.8570   -0.6610 Zn        7 ZIP7        0.0000 
     30 N         -82.1120   74.5485   -0.4190 N.am      2 SEC2        0.0000 
     31 N         -81.6720   72.8910   -0.6890 N.am     10 SEL2        0.0000 
     32 N         -82.5520   76.2060   -0.1490 N.am      6 SEP2        0.0000 
     33 N         -81.7975   71.4440   -1.3305 N.am      2 SEC2        0.0000 
     34 N         -81.9230   69.9970   -1.9720 N.am      6 SEP2        0.0000 
     35 Zn        -81.0615   71.3975    0.2610 Zn        3 ZIC7        0.0000 
     36 Zn        -81.7330   70.9380    1.1830 Zn       11 ZIL7        0.0000 
     37 N         -82.0245   69.6690    1.4890 N.am      2 SEC2        0.0000 
     38 N         -81.7330   70.9380    1.1830 N.am     10 SEL2        0.0000 
     39 N         -82.3160   68.4000    1.7950 N.am      6 SEP2        0.0000 
     40 CA        -80.8435   75.5405    5.1360 C.3       4 GLC5        0.0000 
     41 CA        -81.0740   73.6690    4.3770 C.3      12 GLL5        0.0000 
     42 CA        -80.6130   77.4120    5.8950 C.3       8 GLP5        0.0000 
     43 CA        -82.3715   75.4025    4.0935 C.3       4 GLC5        0.0000 
     44 CA        -83.6690   77.1360    3.8100 C.3       8 GLP5        0.0000 
     45 CA        -76.6542   75.4965    8.1970 C.3       4 GLC5        0.0000 
     46 CA        -76.3020   73.6570    9.2580 C.3      12 GLL5        0.0000 
     47 CA        -77.3450   77.3210    7.7890 C.3       8 GLP5        0.0000 
     48 CA        -74.4787   74.5035    8.2185 C.3       4 GLC5        0.0000 
     49 CA        -75.6250   73.6870    7.9520 C.3      12 GLL5        0.0000 
     50 CA        -77.1540   75.5255    7.1810 C.3       4 GLC5        0.0000 
     51 CA        -80.2045   68.9353    9.3563 C.3       4 GLC5        0.0000 
     52 CA        -81.6760   70.4060   10.5690 C.3      12 GLL5        0.0000 
     53 CA        -78.6000   67.8910    8.7870 C.3       8 GLP5        0.0000 
     54 CA        -77.8794   75.4781    8.1760 C.3       4 GLC5        0.0000 
     55 CA        -78.3740   73.6520    7.8800 C.3      12 GLL5        0.0000 
@<TRIPOS>BOND
@<TRIPOS>SUBSTRUCTURE
     1 ALC1       19 GROUP        1 X    ALC  0     ROOT ALC X 1
     2 SEC2       13 GROUP        1 X    SEC  0     **** SEC X 2
     3 ZIC7       27 GROUP        1 X    ZIC  0     **** ZIC X 5
     4 GLC5        1 GROUP        1 X    GLC  0     **** GLC X 6
     5 ALP1       21 GROUP        1 Y    ALP  0     ROOT ALP Y 8
     6 SEP2       15 GROUP        1 Y    SEP  0     **** SEP Y 9
     7 ZIP7       29 GROUP        1 Y    ZIP  0     **** ZIP Y 12
     8 GLP5        3 GROUP        1 Y    GLP  0     **** GLP Y 13
     9 ALL1       20 GROUP        1 Z    ALL  0     ROOT ALL Z 15
    10 SEL2       14 GROUP        1 Z    SEL  0     **** SEL Z 16
    11 ZIL7       28 GROUP        1 Z    ZIL  0     **** ZIL Z 19
    12 GLL5        2 GROUP        1 Z    GLL  0     **** GLL Z 20
@<TRIPOS>SET

