#    Name: 3e4a_QIX_1_ligand
#    Modification time : Tue Mar 25 00:53:40 2014

@<TRIPOS>MOLECULE
3e4a_QIX_1_ligand
   74    75     1     0     0
SMALL
NO_CHARGES


@<TRIPOS>ATOM
      1 C10       -81.0710   71.0300    4.6220 C.2       1 QIX2001     0.0000 
      2 C13       -82.4480   72.3830    2.9330 C.3       1 QIX2001     0.0000 
      3 C20       -80.4880   73.6470    6.6630 C.ar      1 QIX2001     0.0000 
      4 C21       -79.8130   73.6030    7.9260 C.ar      1 QIX2001     0.0000 
      5 C22       -78.3740   73.6520    7.8800 C.ar      1 QIX2001     0.0000 
      6 C24       -76.3020   73.6570    9.2580 C.ar      1 QIX2001     0.0000 
      7 C26       -76.2450   73.7380    6.6110 C.ar      1 QIX2001     0.0000 
      8 C28       -78.3910   73.7670    5.2080 C.ar      1 QIX2001     0.0000 
      9 O54       -85.5020   61.9620    3.2000 O.2       1 QIX2001     0.0000 
     10 C52       -84.8390   62.9240    3.5300 C.2       1 QIX2001     0.0000 
     11 N53       -84.8120   64.0670    2.5640 N.am      1 QIX2001     0.0000 
     12 C46       -84.3350   63.0460    5.0360 C.3       1 QIX2001     0.0000 
     13 N45       -83.4730   64.2520    5.2850 N.am      1 QIX2001     0.0000 
     14 C43       -83.9720   65.5110    5.9790 C.2       1 QIX2001     0.0000 
     15 O44       -84.8020   65.6660    6.8990 O.2       1 QIX2001     0.0000 
     16 C32       -83.6630   66.7630    5.1330 C.3       1 QIX2001     0.0000 
     17 N31       -82.5280   67.4680    5.7410 N.am      1 QIX2001     0.0000 
     18 C29       -82.9640   68.7720    6.2190 C.2       1 QIX2001     0.0000 
     19 O30       -84.1130   69.0180    6.0330 O.2       1 QIX2001     0.0000 
     20 C08       -81.9670   69.8220    6.7410 C.3       1 QIX2001     0.0000 
     21 C07       -82.4390   70.4340    8.1010 C.3       1 QIX2001     0.0000 
     22 C06       -81.9420   69.5530    9.2820 C.3       1 QIX2001     0.0000 
     23 C05       -81.6760   70.4060   10.5690 C.3       1 QIX2001     0.0000 
     24 N04       -80.3300   70.0580   11.1120 N.pl3     1 QIX2001     0.0000 
     25 C02       -80.2480   69.9920   12.5970 C.cat     1 QIX2001     0.0000 
     26 N03       -80.8230   68.7790   13.2730 N.pl3     1 QIX2001     0.0000 
     27 N01       -79.5760   70.9000   13.2330 N.pl3     1 QIX2001     0.0000 
     28 N09       -82.0160   70.9050    5.7430 N.am      1 QIX2001     0.0000 
     29 O11       -80.2710   70.1740    4.3700 O.2       1 QIX2001     0.0000 
     30 C12       -81.0920   72.2900    3.7020 C.3       1 QIX2001     0.0000 
     31 C14       -82.3340   71.9210    1.4630 C.2       1 QIX2001     0.0000 
     32 N16       -82.3760   72.9930    0.5080 N.am      1 QIX2001     0.0000 
     33 O17       -81.6720   72.8910   -0.6890 O.3       1 QIX2001     0.0000 
     34 O15       -81.7330   70.9380    1.1830 O.2       1 QIX2001     0.0000 
     35 C18       -81.0740   73.6690    4.3770 C.3       1 QIX2001     0.0000 
     36 C19       -79.8690   73.7240    5.3510 C.ar      1 QIX2001     0.0000 
     37 C27       -77.6810   73.7220    6.5350 C.ar      1 QIX2001     0.0000 
     38 C25       -75.6250   73.6870    7.9520 C.ar      1 QIX2001     0.0000 
     39 C23       -77.7340   73.6430    9.2230 C.ar      1 QIX2001     0.0000 
     40 H         -82.7909   73.4189    2.9581 H         1 QIX2001     0.0000 
     41 H         -83.1827   71.7618    3.4485 H         1 QIX2001     0.0000 
     42 H         -81.5476   73.6211    6.6796 H         1 QIX2001     0.0000 
     43 H         -80.3019   73.5426    8.7797 H         1 QIX2001     0.0000 
     44 H         -75.7876   73.6475   10.0910 H         1 QIX2001     0.0000 
     45 H         -75.6745   73.7814    5.8033 H         1 QIX2001     0.0000 
     46 H         -77.9401   73.8167    4.3867 H         1 QIX2001     0.0000 
     47 H         -85.3172   63.9345    1.7113 H         1 QIX2001     0.0000 
     48 H         -84.2909   64.8716    2.8488 H         1 QIX2001     0.0000 
     49 H         -83.7858   62.1251    5.2670 H         1 QIX2001     0.0000 
     50 H         -85.2276   63.0719    5.6728 H         1 QIX2001     0.0000 
     51 H         -82.5068   64.2329    4.9770 H         1 QIX2001     0.0000 
     52 H         -84.5494   67.3879    5.1175 H         1 QIX2001     0.0000 
     53 H         -83.4288   66.4402    4.1244 H         1 QIX2001     0.0000 
     54 H         -81.6653   67.1279    5.8074 H         1 QIX2001     0.0000 
     55 H         -81.0197   69.4215    6.8276 H         1 QIX2001     0.0000 
     56 H         -83.5167   70.4696    8.1126 H         1 QIX2001     0.0000 
     57 H         -82.0273   71.4258    8.1992 H         1 QIX2001     0.0000 
     58 H         -81.0188   69.0602    8.9946 H         1 QIX2001     0.0000 
     59 H         -82.6949   68.8054    9.5099 H         1 QIX2001     0.0000 
     60 H         -82.4521   70.1775   11.2859 H         1 QIX2001     0.0000 
     61 H         -81.7221   71.4498   10.2918 H         1 QIX2001     0.0000 
     62 H         -79.5760   69.8899   10.5455 H         1 QIX2001     0.0000 
     63 H         -81.2232   68.0880   12.6710 H         1 QIX2001     0.0000 
     64 H         -80.7595   68.7598   14.2708 H         1 QIX2001     0.0000 
     65 H         -79.5625   70.8201   14.2297 H         1 QIX2001     0.0000 
     66 H         -79.1333   71.5963   12.6680 H         1 QIX2001     0.0000 
     67 H         -82.7553   71.6158    5.8362 H         1 QIX2001     0.0000 
     68 H         -80.3292   72.2506    2.9646 H         1 QIX2001     0.0000 
     69 H         -82.9291   73.8239    0.7255 H         1 QIX2001     0.0000 
     70 H         -81.9828   73.8107    4.9346 H         1 QIX2001     0.0000 
     71 H         -80.9578   74.4353    3.6312 H         1 QIX2001     0.0000 
     72 H         -74.5661   73.6701    7.9725 H         1 QIX2001     0.0000 
     73 H         -78.2904   73.6281   10.0328 H         1 QIX2001     0.0000 
     74 H         -81.8160   73.7670   -1.1493 H         1 QIX2001     0.0000 
@<TRIPOS>BOND
     1   28    1 am   
     2   29    1 2    
     3   30    1 1    
     4   30    2 1    
     5   31    2 1    
     6   40    2 1    
     7   41    2 1    
     8    4    3 ar   
     9   36    3 ar   
    10   42    3 1    
    11    5    4 ar   
    12   43    4 1    
    13   37    5 ar   
    14   39    5 ar   
    15   38    6 ar   
    16   39    6 ar   
    17   44    6 1    
    18   37    7 ar   
    19   38    7 ar   
    20   45    7 1    
    21   36    8 ar   
    22   37    8 ar   
    23   46    8 1    
    24   10    9 2    
    25   11   10 am   
    26   12   10 1    
    27   47   11 1    
    28   48   11 1    
    29   13   12 1    
    30   49   12 1    
    31   50   12 1    
    32   14   13 am   
    33   51   13 1    
    34   15   14 2    
    35   16   14 1    
    36   17   16 1    
    37   52   16 1    
    38   53   16 1    
    39   18   17 am   
    40   54   17 1    
    41   19   18 2    
    42   20   18 1    
    43   21   20 1    
    44   28   20 1    
    45   55   20 1    
    46   22   21 1    
    47   56   21 1    
    48   57   21 1    
    49   23   22 1    
    50   58   22 1    
    51   59   22 1    
    52   24   23 1    
    53   60   23 1    
    54   61   23 1    
    55   25   24 ar   
    56   62   24 1    
    57   26   25 ar   
    58   27   25 ar   
    59   63   26 1    
    60   64   26 1    
    61   65   27 1    
    62   66   27 1    
    63   67   28 1    
    64   35   30 1    
    65   68   30 1    
    66   32   31 am   
    67   34   31 2    
    68   33   32 1    
    69   69   32 1    
    70   74   33 1    
    71   36   35 1    
    72   70   35 1    
    73   71   35 1    
    74   72   38 1    
    75   73   39 1    
@<TRIPOS>SUBSTRUCTURE
     1 QIX2001     1 GROUP   
@<TRIPOS>SET

