#    Name: 3s1d_ZIR_1_INTS_M
#    Modification time : Mon Apr  7 22:00:37 2014

@<TRIPOS>MOLECULE
3s1d_ZIR_1_INTS_M
   67     0     9     0     0
SMALL
NO_CHARGES


@<TRIPOS>ATOM
      1 CA        -35.0935  -14.6800   -3.6830 C.3       3 GLC5        0.0000 
      2 CA        -35.7970  -15.5800   -2.0920 C.3       9 GLL5        0.0000 
      3 CA        -34.3900  -13.7800   -5.2740 C.3       6 GLP5        0.0000 
      4 CA        -37.2705  -16.4755   -1.3650 C.3       3 GLC5        0.0000 
      5 CA        -38.7440  -17.3710   -0.6380 C.3       6 GLP5        0.0000 
      6 CA        -33.8305  -16.5445   -2.1090 C.3       3 GLC5        0.0000 
      7 CA        -31.8640  -17.5090   -2.1260 C.3       6 GLP5        0.0000 
      8 CA        -35.8905  -14.1715   -4.3235 C.3       3 GLC5        0.0000 
      9 CA        -37.3910  -14.5630   -3.3730 C.3       9 GLL5        0.0000 
     10 CA        -38.8065  -14.2465   -1.8485 C.3       3 GLC5        0.0000 
     11 CA        -40.2220  -13.9300   -0.3240 C.3       6 GLP5        0.0000 
     12 CA        -36.9025  -14.7705   -5.5325 C.3       3 GLC5        0.0000 
     13 CA        -37.6900  -15.7620   -3.9740 C.3       9 GLL5        0.0000 
     14 CA        -36.1150  -13.7790   -7.0910 C.3       6 GLP5        0.0000 
     15 CA        -39.5880  -16.4045   -3.5705 C.3       3 GLC5        0.0000 
     16 CA        -41.4860  -17.0470   -3.1670 C.3       6 GLP5        0.0000 
     17 CA        -35.6910  -15.3285   -4.4365 C.3       3 GLC5        0.0000 
     18 CA        -36.9920  -16.8770   -3.5990 C.3       9 GLL5        0.0000 
     19 N         -39.6485  -15.5570   -6.2305 N.am      2 SEC2        0.0000 
     20 N         -38.6500  -15.5640   -4.8640 N.am      8 SEL2        0.0000 
     21 N         -40.6470  -15.5500   -7.5970 N.am      5 SEP2        0.0000 
     22 CA        -39.2495  -13.0765   -1.9695 C.3       3 GLC5        0.0000 
     23 CA        -38.2770  -12.2230   -3.6150 C.3       9 GLL5        0.0000 
     24 O         -38.3485  -18.3395   -5.3395 O.2       1 ALC1        0.0000 
     25 O         -37.2980  -18.0520   -4.1550 O.2       7 ALL1        0.0000 
     26 O         -39.3990  -18.6270   -6.5240 O.2       4 ALP1        0.0000 
     27 CA        -37.3210  -18.5650   -5.4395 C.3       3 GLC5        0.0000 
     28 CA        -37.2560  -19.2390   -3.3150 C.3       9 GLL5        0.0000 
     29 CA        -37.3860  -17.8910   -7.5640 C.3       6 GLP5        0.0000 
     30 CA        -36.0475  -19.6325   -1.5185 C.3       3 GLC5        0.0000 
     31 CA        -34.8390  -20.0260    0.2780 C.3       6 GLP5        0.0000 
     32 CA        -35.8545  -20.8250   -0.8855 C.3       3 GLC5        0.0000 
     33 CA        -36.8700  -21.6240   -2.0490 C.3       9 GLL5        0.0000 
     34 CA        -36.3045  -23.4085   -1.6980 C.3       3 GLC5        0.0000 
     35 CA        -35.7390  -25.1930   -1.3470 C.3       6 GLP5        0.0000 
     36 CA        -35.2575  -21.0235   -2.9660 C.3       3 GLC5        0.0000 
     37 CA        -33.6450  -20.4230   -3.8830 C.3       6 GLP5        0.0000 
     38 CA        -39.7525  -24.1965   -4.7425 C.3       3 GLC5        0.0000 
     39 CA        -38.7120  -22.7830   -3.5040 C.3       9 GLL5        0.0000 
     40 CA        -40.7930  -25.6100   -5.9810 C.3       6 GLP5        0.0000 
     41 CA        -38.1965  -24.9205   -3.8695 C.3       3 GLC5        0.0000 
     42 CA        -37.6810  -27.0580   -4.2350 C.3       6 GLP5        0.0000 
     43 CA        -37.2255  -23.9880   -2.4255 C.3       3 GLC5        0.0000 
     44 N         -36.3130  -10.0420   -4.4265 N.am      2 SEC2        0.0000 
     45 N         -37.1270  -10.8140   -5.1530 N.am      8 SEL2        0.0000 
     46 N         -35.4990   -9.2700   -3.7000 N.am      5 SEP2        0.0000 
     47 CA        -40.7525   -8.5385   -4.0295 C.3       3 GLC5        0.0000 
     48 CA        -39.2300  -10.1460   -4.3190 C.3       9 GLL5        0.0000 
     49 CA        -42.2750   -6.9310   -3.7400 C.3       6 GLP5        0.0000 
     50 O         -37.0140   -9.2960   -3.5385 O.2       1 ALC1        0.0000 
     51 O         -38.5290   -9.3220   -3.3770 O.2       7 ALL1        0.0000 
     52 O         -35.4990   -9.2700   -3.7000 O.2       4 ALP1        0.0000 
     53 CA        -40.9760  -12.2580   -2.0230 C.3       3 GLC5        0.0000 
     54 CA        -40.2900  -10.9900   -3.6280 C.3       9 GLL5        0.0000 
     55 CA        -41.6620  -13.5260   -0.4180 C.3       6 GLP5        0.0000 
     56 CA        -37.3635  -17.1052   -5.6753 C.3       3 GLC5        0.0000 
     57 CA        -38.0051  -16.6954   -2.1371 C.3       3 GLC5        0.0000 
     58 CA        -37.2193  -12.7673   -5.6550 C.3       3 GLC5        0.0000 
     59 CA        -38.1968  -18.5725   -2.0753 C.3       3 GLC5        0.0000 
     60 CA        -35.6472  -20.0985   -3.6978 C.3       3 GLC5        0.0000 
     61 CA        -39.9988  -21.7673   -2.1745 C.3       3 GLC5        0.0000 
     62 CA        -37.9070  -21.5400   -3.1160 C.3       9 GLL5        0.0000 
     63 CA        -41.6880  -21.3730   -1.0390 C.3       6 GLP5        0.0000 
     64 CA        -38.0942  -20.5360   -0.9688 C.3       3 GLC5        0.0000 
     65 CA        -38.8000  -19.4900    0.6450 C.3       6 GLP5        0.0000 
     66 CA        -36.3717  -22.5802   -4.0550 C.3       3 GLC5        0.0000 
     67 CA        -34.4340  -22.9990   -4.8000 C.3       6 GLP5        0.0000 
@<TRIPOS>BOND
@<TRIPOS>SUBSTRUCTURE
     1 ALC1       24 GROUP        1 X    ALC  0     ROOT ALC X 1
     2 SEC2       19 GROUP        1 X    SEC  0     **** SEC X 2
     3 GLC5        1 GROUP        1 X    GLC  0     **** GLC X 6
     4 ALP1       26 GROUP        1 Y    ALP  0     ROOT ALP Y 8
     5 SEP2       21 GROUP        1 Y    SEP  0     **** SEP Y 9
     6 GLP5        3 GROUP        1 Y    GLP  0     **** GLP Y 13
     7 ALL1       25 GROUP        1 Z    ALL  0     ROOT ALL Z 15
     8 SEL2       20 GROUP        1 Z    SEL  0     **** SEL Z 16
     9 GLL5        2 GROUP        1 Z    GLL  0     **** GLL Z 20
@<TRIPOS>SET

