#    Name: 3s1d_ZIR_1_ligand
#    Modification time : Mon Apr  7 22:00:37 2014

@<TRIPOS>MOLECULE
3s1d_ZIR_1_ligand
   45    47     1     0     0
SMALL
NO_CHARGES


@<TRIPOS>ATOM
      1 N1        -36.0530  -16.7400   -2.6460 N.ar      1 ZIR536      0.0000 
      2 C2        -35.7970  -15.5800   -2.0920 C.ar      1 ZIR536      0.0000 
      3 N3        -36.4320  -14.5240   -2.4490 N.ar      1 ZIR536      0.0000 
      4 C4        -37.3910  -14.5630   -3.3730 C.ar      1 ZIR536      0.0000 
      5 C5        -37.6900  -15.7620   -3.9740 C.ar      1 ZIR536      0.0000 
      6 C6        -36.9920  -16.8770   -3.5990 C.ar      1 ZIR536      0.0000 
      7 N7        -38.6500  -15.5640   -4.8640 N.2       1 ZIR536      0.0000 
      8 C8        -38.9510  -14.3170   -4.8130 C.2       1 ZIR536      0.0000 
      9 N9        -38.1860  -13.6730   -3.9240 N.pl3     1 ZIR536      0.0000 
     10 C1'       -38.2770  -12.2230   -3.6150 C.3       1 ZIR536      0.0000 
     11 N10       -37.2980  -18.0520   -4.1550 N.pl3     1 ZIR536      0.0000 
     12 C11       -37.2560  -19.2390   -3.3150 C.3       1 ZIR536      0.0000 
     13 C12       -38.0430  -20.3090   -3.7100 C.2       1 ZIR536      0.0000 
     14 C13       -37.9070  -21.5400   -3.1160 C.2       1 ZIR536      0.0000 
     15 C14       -36.8700  -21.6240   -2.0490 C.3       1 ZIR536      0.0000 
     16 C15       -38.7120  -22.7830   -3.5040 C.3       1 ZIR536      0.0000 
     17 C2'       -38.3700  -11.2880   -4.8230 C.3       1 ZIR536      0.0000 
     18 O2'       -37.1270  -10.8140   -5.1530 O.3       1 ZIR536      0.0000 
     19 C3'       -39.2300  -10.1460   -4.3190 C.3       1 ZIR536      0.0000 
     20 O3'       -38.5290   -9.3220   -3.3770 O.3       1 ZIR536      0.0000 
     21 C4'       -40.2900  -10.9900   -3.6280 C.3       1 ZIR536      0.0000 
     22 O4'       -39.6200  -12.1520   -3.1280 O.3       1 ZIR536      0.0000 
     23 C5'       -41.2570  -11.5040   -4.6460 C.3       1 ZIR536      0.0000 
     24 O5'       -42.4940  -11.0380   -4.2760 O.3       1 ZIR536      0.0000 
     25 H         -35.0484  -15.5263   -1.3353 H         1 ZIR536      0.0000 
     26 H         -39.6558  -13.8601   -5.3515 H         1 ZIR536      0.0000 
     27 H         -37.6108  -11.9015   -2.9238 H         1 ZIR536      0.0000 
     28 H         -37.5588  -18.1717   -5.1284 H         1 ZIR536      0.0000 
     29 H         -37.5134  -18.9240   -2.2520 H         1 ZIR536      0.0000 
     30 H         -36.1680  -19.5580   -3.2152 H         1 ZIR536      0.0000 
     31 H         -38.7424  -20.1731   -4.4645 H         1 ZIR536      0.0000 
     32 H         -38.8894  -11.7873   -5.5893 H         1 ZIR536      0.0000 
     33 H         -39.6607   -9.6626   -5.1249 H         1 ZIR536      0.0000 
     34 H         -40.7684  -10.4509   -2.8880 H         1 ZIR536      0.0000 
     35 H         -41.1952  -12.5956   -4.6490 H         1 ZIR536      0.0000 
     36 H         -40.9394  -11.1401   -5.6269 H         1 ZIR536      0.0000 
     37 H         -35.9593  -21.4031   -2.3980 H         1 ZIR536      0.0000 
     38 H         -37.0576  -20.9908   -1.2981 H         1 ZIR536      0.0000 
     39 H         -36.8178  -22.5409   -1.6532 H         1 ZIR536      0.0000 
     40 H         -38.5638  -23.0382   -4.4595 H         1 ZIR536      0.0000 
     41 H         -38.4632  -23.5754   -2.9470 H         1 ZIR536      0.0000 
     42 H         -39.6949  -22.6401   -3.3879 H         1 ZIR536      0.0000 
     43 H         -36.5620  -11.6305   -5.2719 H         1 ZIR536      0.0000 
     44 H         -37.5598   -9.4842   -3.5624 H         1 ZIR536      0.0000 
     45 H         -43.1148  -11.8084   -4.4215 H         1 ZIR536      0.0000 
@<TRIPOS>BOND
     1    2    1 ar   
     2    6    1 ar   
     3    3    2 ar   
     4   25    2 1    
     5    4    3 ar   
     6    5    4 ar   
     7    9    4 1    
     8    6    5 ar   
     9    7    5 1    
    10   11    6 1    
    11    8    7 2    
    12    9    8 1    
    13   26    8 1    
    14   10    9 1    
    15   17   10 1    
    16   22   10 1    
    17   27   10 1    
    18   12   11 1    
    19   28   11 1    
    20   13   12 1    
    21   29   12 1    
    22   30   12 1    
    23   14   13 2    
    24   31   13 1    
    25   15   14 1    
    26   16   14 1    
    27   37   15 1    
    28   38   15 1    
    29   39   15 1    
    30   40   16 1    
    31   41   16 1    
    32   42   16 1    
    33   18   17 1    
    34   19   17 1    
    35   32   17 1    
    36   43   18 1    
    37   20   19 1    
    38   21   19 1    
    39   33   19 1    
    40   44   20 1    
    41   22   21 1    
    42   23   21 1    
    43   34   21 1    
    44   24   23 1    
    45   35   23 1    
    46   36   23 1    
    47   45   24 1    
@<TRIPOS>SUBSTRUCTURE
     1 ZIR536      1 GROUP   
@<TRIPOS>SET

