#    Name: 3q0v_LL4_2_INTS_M
#    Modification time : Tue Mar 25 08:46:04 2014

@<TRIPOS>MOLECULE
3q0v_LL4_2_INTS_M
   70     0     6     0     0
SMALL
NO_CHARGES


@<TRIPOS>ATOM
      1 CA         27.7120   43.8140    4.7800 C.3       2 GLC5        0.0000 
      2 CA         29.4970   43.4880    3.6110 C.3       6 GLL5        0.0000 
      3 CA         25.9270   44.1400    5.9490 C.3       4 GLP5        0.0000 
      4 CA         28.9820   41.6565    2.7385 C.3       2 GLC5        0.0000 
      5 CA         28.4670   39.8250    1.8660 C.3       4 GLP5        0.0000 
      6 CA         32.6660   44.3580    1.0400 C.3       2 GLC5        0.0000 
      7 CA         30.4740   44.0260    1.3700 C.3       6 GLL5        0.0000 
      8 CA         34.8580   44.6900    0.7100 C.3       4 GLP5        0.0000 
      9 CA         29.3760   42.3015    0.9435 C.3       2 GLC5        0.0000 
     10 CA         28.2780   40.5770    0.5170 C.3       4 GLP5        0.0000 
     11 CA         29.9515   44.5300   -0.5595 C.3       2 GLC5        0.0000 
     12 CA         29.4290   45.0340   -2.4890 C.3       4 GLP5        0.0000 
     13 CA         27.5735   45.0255    1.5200 C.3       2 GLC5        0.0000 
     14 CA         29.0940   45.5490    2.7990 C.3       6 GLL5        0.0000 
     15 CA         26.0530   44.5020    0.2410 C.3       4 GLP5        0.0000 
     16 N          26.6970   47.3630    0.6235 N.am      1 SEC2        0.0000 
     17 N          27.9480   47.8710    1.0590 N.am      5 SEL2        0.0000 
     18 N          25.4460   46.8550    0.1880 N.am      3 SEP2        0.0000 
     19 CA         29.5395   47.9000    6.0705 C.3       2 GLC5        0.0000 
     20 CA         28.5080   48.7840    4.5280 C.3       6 GLL5        0.0000 
     21 CA         30.5710   47.0160    7.6130 C.3       4 GLP5        0.0000 
     22 CA         26.3150   48.6395    4.2765 C.3       2 GLC5        0.0000 
     23 CA         24.1220   48.4950    4.0250 C.3       4 GLP5        0.0000 
     24 CA         30.0440   50.8895    6.0080 C.3       2 GLC5        0.0000 
     25 CA         28.1860   50.0650    5.2470 C.3       6 GLL5        0.0000 
     26 CA         31.9020   51.7140    6.7690 C.3       4 GLP5        0.0000 
     27 CA         29.1290   49.4525    2.0820 C.3       2 GLC5        0.0000 
     28 CA         26.9770   49.6460    2.5900 C.3       6 GLL5        0.0000 
     29 CA         31.2810   49.2590    1.5740 C.3       4 GLP5        0.0000 
     30 CA         25.5495   49.0705    3.3075 C.3       2 GLC5        0.0000 
     31 CA         25.2585   52.2990    3.4340 C.3       2 GLC5        0.0000 
     32 CA         27.0170   51.0840    3.0720 C.3       6 GLL5        0.0000 
     33 CA         23.5000   53.5140    3.7960 C.3       4 GLP5        0.0000 
     34 CA         27.8865   52.6140    1.9820 C.3       2 GLC5        0.0000 
     35 CA         28.7560   54.1440    0.8920 C.3       4 GLP5        0.0000 
     36 CA         25.2225   50.4100    3.5995 C.3       2 GLC5        0.0000 
     37 CA         23.4280   49.7360    4.1270 C.3       4 GLP5        0.0000 
     38 CA         29.4760   52.3480    4.7300 C.3       2 GLC5        0.0000 
     39 CA         27.7260   51.2170    4.4250 C.3       6 GLL5        0.0000 
     40 CA         31.2260   53.4790    5.0350 C.3       4 GLP5        0.0000 
     41 CA         29.4090   54.7180    5.1750 C.3       2 GLC5        0.0000 
     42 CA         27.5920   55.9570    5.3150 C.3       6 GLL5        0.0000 
     43 CA         26.7340   56.4480    7.7600 C.3       2 GLC5        0.0000 
     44 CA         27.8440   57.0410    6.1100 C.3       6 GLL5        0.0000 
     45 CA         25.6240   55.8550    9.4100 C.3       4 GLP5        0.0000 
     46 CA         29.8770   58.5580    6.4655 C.3       2 GLC5        0.0000 
     47 CA         28.0030   58.2040    5.4150 C.3       6 GLL5        0.0000 
     48 CA         31.7510   58.9120    7.5160 C.3       4 GLP5        0.0000 
     49 CA         26.1120   57.7935    3.5375 C.3       2 GLC5        0.0000 
     50 CA         27.6350   56.4660    3.7090 C.3       6 GLL5        0.0000 
     51 CA         24.5890   59.1210    3.3660 C.3       4 GLP5        0.0000 
     52 CA         28.1955   55.3050    2.3005 C.3       2 GLC5        0.0000 
     53 CA         30.1400   42.7253    4.5638 C.3       2 GLC5        0.0000 
     54 CA         30.2030   44.5270    2.7600 C.3       6 GLL5        0.0000 
     55 CA         30.4300   41.4430    5.9420 C.3       4 GLP5        0.0000 
     56 CA         31.2290   44.5577    4.4548 C.3       2 GLC5        0.0000 
     57 CA         32.6080   45.1080    5.7240 C.3       4 GLP5        0.0000 
     58 CA         31.5567   45.8058    1.9190 C.3       2 GLC5        0.0000 
     59 CA         32.7750   47.3350    1.7730 C.3       4 GLP5        0.0000 
     60 CA         30.5813   47.1298    1.8255 C.3       2 GLC5        0.0000 
     61 CA         29.5270   46.8180    2.4470 C.3       6 GLL5        0.0000 
     62 CA         31.8520   48.0760    1.0280 C.3       4 GLP5        0.0000 
     63 CA         26.1670   50.4070    1.1270 C.3       2 GLC5        0.0000 
     64 CA         25.3370   50.4490   -0.5770 C.3       4 GLP5        0.0000 
     65 CA         29.8002   49.9959    3.8051 C.3       2 GLC5        0.0000 
     66 CA         31.5640   49.6710    2.9540 C.3       4 GLP5        0.0000 
     67 CA         26.2720   58.6448    4.0533 C.3       2 GLC5        0.0000 
     68 CA         27.9070   58.1330    4.0660 C.3       6 GLL5        0.0000 
     69 CA         29.4265   57.1433    2.7923 C.3       2 GLC5        0.0000 
     70 CA         31.0820   56.9870    1.6970 C.3       4 GLP5        0.0000 
@<TRIPOS>BOND
@<TRIPOS>SUBSTRUCTURE
     1 SEC2       16 GROUP        1 X    SEC  0     ROOT SEC X 2
     2 GLC5        1 GROUP        1 X    GLC  0     **** GLC X 6
     3 SEP2       18 GROUP        1 Y    SEP  0     ROOT SEP Y 9
     4 GLP5        3 GROUP        1 Y    GLP  0     **** GLP Y 13
     5 SEL2       17 GROUP        1 Z    SEL  0     ROOT SEL Z 16
     6 GLL5        2 GROUP        1 Z    GLL  0     **** GLL Z 20
@<TRIPOS>SET

