#    Name: 3q0v_LL4_2_ligand
#    Modification time : Tue Mar 25 08:46:04 2014

@<TRIPOS>MOLECULE
3q0v_LL4_2_ligand
   46    48     1     0     0
SMALL
NO_CHARGES


@<TRIPOS>ATOM
      1 CAV        29.4970   43.4880    3.6110 C.3       1 LL4217      0.0000 
      2 CAU        30.2030   44.5270    2.7600 C.3       1 LL4217      0.0000 
      3 CAW        30.4740   44.0260    1.3700 C.3       1 LL4217      0.0000 
      4 CAT        29.0940   45.5490    2.7990 C.3       1 LL4217      0.0000 
      5 CAS        29.5270   46.8180    2.4470 C.3       1 LL4217      0.0000 
      6 CAQ        28.4000   47.7980    2.2050 C.2       1 LL4217      0.0000 
      7 OAR        27.9480   47.8710    1.0590 O.2       1 LL4217      0.0000 
      8 NAN        28.0590   48.7710    3.0620 N.am      1 LL4217      0.0000 
      9 CAO        28.5080   48.7840    4.5280 C.3       1 LL4217      0.0000 
     10 CAP        28.1860   50.0650    5.2470 C.3       1 LL4217      0.0000 
     11 CAM        26.9770   49.6460    2.5900 C.3       1 LL4217      0.0000 
     12 CAL        27.0170   51.0840    3.0720 C.3       1 LL4217      0.0000 
     13 CAK        27.7260   51.2170    4.4250 C.3       1 LL4217      0.0000 
     14 CAH        27.4360   52.4390    5.2410 C.2       1 LL4217      0.0000 
     15 NAG        27.5950   53.6360    4.6760 N.2       1 LL4217      0.0000 
     16 OAI        27.1840   52.5510    6.5630 O.3       1 LL4217      0.0000 
     17 NAJ        27.1850   54.0170    6.7640 N.2       1 LL4217      0.0000 
     18 CAF        27.4470   54.6010    5.5910 C.2       1 LL4217      0.0000 
     19 CAE        27.5920   55.9570    5.3150 C.2       1 LL4217      0.0000 
     20 CAD        27.8440   57.0410    6.1100 C.2       1 LL4217      0.0000 
     21 CAC        28.0030   58.2040    5.4150 C.2       1 LL4217      0.0000 
     22 CAB        27.9070   58.1330    4.0660 C.2       1 LL4217      0.0000 
     23 SAA        27.6350   56.4660    3.7090 S.3       1 LL4217      0.0000 
     24 H          31.0257   44.8827    3.2640 H         1 LL4217      0.0000 
     25 H          28.6583   45.5241    3.8253 H         1 LL4217      0.0000 
     26 H          28.2827   45.1814    2.1278 H         1 LL4217      0.0000 
     27 H          30.1537   46.8052    1.5197 H         1 LL4217      0.0000 
     28 H          30.1887   47.2677    3.2299 H         1 LL4217      0.0000 
     29 H          29.5960   48.6044    4.5613 H         1 LL4217      0.0000 
     30 H          28.0279   47.9374    5.0474 H         1 LL4217      0.0000 
     31 H          29.0911   50.3763    5.8384 H         1 LL4217      0.0000 
     32 H          27.4119   49.8448    6.0333 H         1 LL4217      0.0000 
     33 H          25.9853   49.2128    2.8803 H         1 LL4217      0.0000 
     34 H          26.9610   49.6585    1.4698 H         1 LL4217      0.0000 
     35 H          25.9956   51.4649    3.1693 H         1 LL4217      0.0000 
     36 H          27.5415   51.7012    2.3360 H         1 LL4217      0.0000 
     37 H          28.8846   51.6029    3.9883 H         1 LL4217      0.0000 
     38 H          27.9051   56.9848    7.1000 H         1 LL4217      0.0000 
     39 H          28.1857   59.0843    5.8938 H         1 LL4217      0.0000 
     40 H          27.9422   58.6678    3.3581 H         1 LL4217      0.0000 
     41 H          30.0371   42.6510    3.6994 H         1 LL4217      0.0000 
     42 H          29.3219   43.8229    4.5368 H         1 LL4217      0.0000 
     43 H          28.6136   43.2271    3.2217 H         1 LL4217      0.0000 
     44 H          30.9382   44.7134    0.8114 H         1 LL4217      0.0000 
     45 H          31.0545   43.2118    1.3753 H         1 LL4217      0.0000 
     46 H          29.6302   43.7813    0.8923 H         1 LL4217      0.0000 
@<TRIPOS>BOND
     1    2    1 1    
     2   41    1 1    
     3   42    1 1    
     4   43    1 1    
     5    3    2 1    
     6    4    2 1    
     7   24    2 1    
     8   44    3 1    
     9   45    3 1    
    10   46    3 1    
    11    5    4 1    
    12   25    4 1    
    13   26    4 1    
    14    6    5 1    
    15   27    5 1    
    16   28    5 1    
    17    7    6 2    
    18    8    6 am   
    19    9    8 1    
    20   11    8 1    
    21   10    9 1    
    22   29    9 1    
    23   30    9 1    
    24   13   10 1    
    25   31   10 1    
    26   32   10 1    
    27   12   11 1    
    28   33   11 1    
    29   34   11 1    
    30   13   12 1    
    31   35   12 1    
    32   36   12 1    
    33   14   13 1    
    34   37   13 1    
    35   15   14 2    
    36   16   14 1    
    37   18   15 1    
    38   17   16 1    
    39   18   17 2    
    40   19   18 1    
    41   20   19 2    
    42   23   19 1    
    43   21   20 1    
    44   38   20 1    
    45   22   21 2    
    46   39   21 1    
    47   23   22 1    
    48   40   22 1    
@<TRIPOS>SUBSTRUCTURE
     1 LL4217      1 GROUP   
@<TRIPOS>SET

