#    Name: 1sr7_MOF_2_INTS_M
#    Modification time : Tue Mar 25 02:41:15 2014

@<TRIPOS>MOLECULE
1sr7_MOF_2_INTS_M
   84     0     9     0     0
SMALL
NO_CHARGES


@<TRIPOS>ATOM
      1 N          12.6225   18.0765    1.7245 N.am      2 SEC2        0.0000 
      2 N          13.2340   18.0720    3.1270 N.am      8 SEL2        0.0000 
      3 N          12.0110   18.0810    0.3220 N.am      5 SEP2        0.0000 
      4 CA         10.7990   19.0505    3.1960 C.3       3 GLC5        0.0000 
      5 CA         11.2390   17.3440    3.9810 C.3       9 GLL5        0.0000 
      6 CA         10.3590   20.7570    2.4110 C.3       6 GLP5        0.0000 
      7 CA         15.5625   16.7805    4.0990 C.3       3 GLC5        0.0000 
      8 CA         13.6020   16.2030    4.4940 C.3       9 GLL5        0.0000 
      9 CA         17.5230   17.3580    3.7040 C.3       6 GLP5        0.0000 
     10 CA         15.6410   13.8280    5.4750 C.3       3 GLC5        0.0000 
     11 CA         13.8020   14.3760    6.1990 C.3       9 GLL5        0.0000 
     12 CA         17.4800   13.2800    4.7510 C.3       6 GLP5        0.0000 
     13 CA          9.3335   14.8450    4.0135 C.3       3 GLC5        0.0000 
     14 CA         10.8110   14.2030    5.2620 C.3       9 GLL5        0.0000 
     15 CA          7.8560   15.4870    2.7650 C.3       6 GLP5        0.0000 
     16 CA         10.0930   12.1245    5.7315 C.3       3 GLC5        0.0000 
     17 CA          9.3750   10.0460    6.2010 C.3       6 GLP5        0.0000 
     18 CA         10.8400   13.2690    3.5870 C.3       3 GLC5        0.0000 
     19 CA         10.8690   12.3350    1.9120 C.3       6 GLP5        0.0000 
     20 CA         11.4240   19.1465    7.4395 C.3       3 GLC5        0.0000 
     21 CA         12.0860   17.2410    7.6980 C.3       9 GLL5        0.0000 
     22 CA         10.7620   21.0520    7.1810 C.3       6 GLP5        0.0000 
     23 CA         13.2740   18.5290    7.4990 C.3       3 GLC5        0.0000 
     24 CA         14.4620   19.8170    7.3000 C.3       6 GLP5        0.0000 
     25 O           7.7160   15.1770    7.9640 O.2       1 ALC1        0.0000 
     26 O           9.0030   14.8540    7.2360 O.2       7 ALL1        0.0000 
     27 O           6.4290   15.5000    8.6920 O.2       4 ALP1        0.0000 
     28 CA         14.9320   15.5840    8.7395 C.3       3 GLC5        0.0000 
     29 CA         13.5980   14.5730    7.7050 C.3       9 GLL5        0.0000 
     30 CA         16.2660   16.5950    9.7740 C.3       6 GLP5        0.0000 
     31 CA         12.8180   12.2545    9.4180 C.3       3 GLC5        0.0000 
     32 CA         12.5830   13.7820   10.5930 C.3       9 GLL5        0.0000 
     33 CA         13.0530   10.7270    8.2430 C.3       6 GLP5        0.0000 
     34 CA         13.8875   14.6140   14.5975 C.3       3 GLC5        0.0000 
     35 CA         12.6390   14.3450   13.0950 C.3       9 GLL5        0.0000 
     36 CA         15.1360   14.8830   16.1000 C.3       6 GLP5        0.0000 
     37 CA         14.4730   13.6920   12.9560 C.3       3 GLC5        0.0000 
     38 CA         16.3070   13.0390   12.8170 C.3       6 GLP5        0.0000 
     39 CA         11.5715   14.3435   14.7440 C.3       3 GLC5        0.0000 
     40 CA         10.5040   14.3420   16.3930 C.3       6 GLP5        0.0000 
     41 CA         10.9515   11.7880    9.5975 C.3       3 GLC5        0.0000 
     42 CA          9.6950   13.5570    9.7290 C.3       9 GLL5        0.0000 
     43 CA         12.2080   10.0190    9.4660 C.3       6 GLP5        0.0000 
     44 CA          8.7885   11.8870   10.4760 C.3       3 GLC5        0.0000 
     45 CA          7.8820   10.2170   11.2230 C.3       6 GLP5        0.0000 
     46 CA          8.4380   17.7235   12.7720 C.3       3 GLC5        0.0000 
     47 CA          8.3240   15.9750   12.0960 C.3       9 GLL5        0.0000 
     48 CA          8.5520   19.4720   13.4480 C.3       6 GLP5        0.0000 
     49 CA          6.8295   16.9430   13.8335 C.3       3 GLC5        0.0000 
     50 CA          6.8450   15.2300   12.6160 C.3       9 GLL5        0.0000 
     51 CA          6.8140   18.6560   15.0510 C.3       6 GLP5        0.0000 
     52 CA          5.9590   15.0595   14.0790 C.3       3 GLC5        0.0000 
     53 CA          5.0730   14.8890   15.5420 C.3       6 GLP5        0.0000 
     54 CA          4.9460   16.1245   12.6845 C.3       3 GLC5        0.0000 
     55 CA          3.0470   17.0190   12.7530 C.3       6 GLP5        0.0000 
     56 CA          5.4440   14.0855   12.4230 C.3       3 GLC5        0.0000 
     57 CA          4.0430   12.9410   12.2300 C.3       6 GLP5        0.0000 
     58 CA         14.6420   18.7965   10.8625 C.3       3 GLC5        0.0000 
     59 CA         13.1290   19.8380   11.5980 C.3       9 GLL5        0.0000 
     60 CA         16.1550   17.7550   10.1270 C.3       6 GLP5        0.0000 
     61 CA          9.4132   16.2230    3.6427 C.3       3 GLC5        0.0000 
     62 CA         10.7020   16.5740    5.0600 C.3       9 GLL5        0.0000 
     63 CA         13.3765   12.6008    7.5975 C.3       3 GLC5        0.0000 
     64 CA         13.4259   13.8686    4.0794 C.3       3 GLC5        0.0000 
     65 CA         13.3160   12.6490    2.5640 C.3       6 GLP5        0.0000 
     66 CA          9.2722   17.8025    8.2490 C.3       3 GLC5        0.0000 
     67 CA          9.8180   15.8550    7.7810 C.3       9 GLL5        0.0000 
     68 CA          8.7800   19.6420    7.9840 C.3       6 GLP5        0.0000 
     69 CA         12.5113   12.6530    8.5213 C.3       3 GLC5        0.0000 
     70 CA         11.8670   14.6450    9.5300 C.3       9 GLL5        0.0000 
     71 CA         13.6387   12.4808   11.5757 C.3       3 GLC5        0.0000 
     72 CA         15.0900   11.0280   11.9210 C.3       6 GLP5        0.0000 
     73 CA         12.6690   17.7948   14.8365 C.3       3 GLC5        0.0000 
     74 CA         11.9000   18.3820   12.7320 C.3       9 GLL5        0.0000 
     75 CA         13.3160   16.7210   16.4890 C.3       6 GLP5        0.0000 
     76 CA         12.8445   20.4890   14.7885 C.3       3 GLC5        0.0000 
     77 CA         12.1440   19.3550   13.6360 C.3       9 GLL5        0.0000 
     78 CA         13.1830   21.1690   16.3080 C.3       6 GLP5        0.0000 
     79 CA         10.4985   19.5189   13.2455 C.3       3 GLC5        0.0000 
     80 CA         12.8680   20.2630   12.9020 C.3       9 GLL5        0.0000 
     81 CA         14.6642   21.1178   12.7385 C.3       3 GLC5        0.0000 
     82 CA         16.3300   22.1850   13.2270 C.3       6 GLP5        0.0000 
     83 CA         11.4641   20.0102   11.1885 C.3       3 GLC5        0.0000 
     84 CA         10.4180   20.5610    9.6600 C.3       6 GLP5        0.0000 
@<TRIPOS>BOND
@<TRIPOS>SUBSTRUCTURE
     1 ALC1       25 GROUP        1 X    ALC  0     ROOT ALC X 1
     2 SEC2        1 GROUP        1 X    SEC  0     **** SEC X 2
     3 GLC5        4 GROUP        1 X    GLC  0     **** GLC X 6
     4 ALP1       27 GROUP        1 Y    ALP  0     ROOT ALP Y 8
     5 SEP2        3 GROUP        1 Y    SEP  0     **** SEP Y 9
     6 GLP5        6 GROUP        1 Y    GLP  0     **** GLP Y 13
     7 ALL1       26 GROUP        1 Z    ALL  0     ROOT ALL Z 15
     8 SEL2        2 GROUP        1 Z    SEL  0     **** SEL Z 16
     9 GLL5        5 GROUP        1 Z    GLL  0     **** GLL Z 20
@<TRIPOS>SET

