#    Name: 1sr7_MOF_2_ligand
#    Modification time : Tue Mar 25 02:41:15 2014

@<TRIPOS>MOLECULE
1sr7_MOF_2_ligand
   65    69     1     0     0
SMALL
NO_CHARGES


@<TRIPOS>ATOM
      1 O35        13.2340   18.0720    3.1270 O.2       1 MOF302      0.0000 
      2 C34        12.7390   17.2340    3.8440 C.2       1 MOF302      0.0000 
      3 C33        11.2390   17.3440    3.9810 C.2       1 MOF302      0.0000 
      4 C32        13.6020   16.2030    4.4940 C.2       1 MOF302      0.0000 
      5 C29        12.9370   15.3980    5.4870 C.2       1 MOF302      0.0000 
      6 C26        13.8020   14.3760    6.1990 C.3       1 MOF302      0.0000 
      7 C24        11.4400   15.4600    5.8340 C.3       1 MOF302      0.0000 
      8 C30        10.7020   16.5740    5.0600 C.2       1 MOF302      0.0000 
      9 C31        10.8110   14.2030    5.2620 C.3       1 MOF302      0.0000 
     10 C19        11.2750   15.6130    7.3360 C.3       1 MOF302      0.0000 
     11 CL25       12.0860   17.2410    7.6980 Cl        1 MOF302      0.0000 
     12 C15         9.8180   15.8550    7.7810 C.3       1 MOF302      0.0000 
     13 O21         9.0030   14.8540    7.2360 O.3       1 MOF302      0.0000 
     14 C14        12.0720   14.5130    8.0690 C.3       1 MOF302      0.0000 
     15 C20        13.5980   14.5730    7.7050 C.3       1 MOF302      0.0000 
     16 C6         11.8670   14.6450    9.5300 C.3       1 MOF302      0.0000 
     17 C9         12.5830   13.7820   10.5930 C.3       1 MOF302      0.0000 
     18 C3         11.7920   14.0850   11.8680 C.3       1 MOF302      0.0000 
     19 C10        12.6390   14.3450   13.0950 C.3       1 MOF302      0.0000 
     20 C2         10.4160   14.8900    9.9930 C.3       1 MOF302      0.0000 
     21 C7          9.7110   16.0710    9.2470 C.3       1 MOF302      0.0000 
     22 C8          9.6950   13.5570    9.7290 C.3       1 MOF302      0.0000 
     23 C1         10.6280   15.0140   11.4980 C.3       1 MOF302      0.0000 
     24 C5          9.3480   14.8840   12.2940 C.2       1 MOF302      0.0000 
     25 O13         9.1690   14.0120   13.0720 O.2       1 MOF302      0.0000 
     26 C12         8.3240   15.9750   12.0960 C.3       1 MOF302      0.0000 
     27 CL18        6.8450   15.2300   12.6160 Cl        1 MOF302      0.0000 
     28 O4         11.1770   16.3570   11.6090 O.3       1 MOF302      0.0000 
     29 C11        11.1650   17.1180   12.8040 C.2       1 MOF302      0.0000 
     30 O17        10.6250   16.6510   13.7740 O.2       1 MOF302      0.0000 
     31 C16        11.9000   18.3820   12.7320 C.2       1 MOF302      0.0000 
     32 C22        12.1440   19.3550   13.6360 C.2       1 MOF302      0.0000 
     33 C27        12.8680   20.2630   12.9020 C.2       1 MOF302      0.0000 
     34 C28        13.1290   19.8380   11.5980 C.2       1 MOF302      0.0000 
     35 O23        12.5190   18.6320   11.4710 O.3       1 MOF302      0.0000 
     36 H          10.7309   17.8891    3.3812 H         1 MOF302      0.0000 
     37 H          14.5302   16.1039    4.2499 H         1 MOF302      0.0000 
     38 H          14.8368   14.5392    5.9566 H         1 MOF302      0.0000 
     39 H          13.4949   13.3823    5.9262 H         1 MOF302      0.0000 
     40 H           9.7272   16.7480    5.3857 H         1 MOF302      0.0000 
     41 H           9.5514   16.8443    7.2843 H         1 MOF302      0.0000 
     42 H          11.6952   13.5507    7.7332 H         1 MOF302      0.0000 
     43 H          13.9820   15.5402    8.0045 H         1 MOF302      0.0000 
     44 H          14.1096   13.7900    8.2508 H         1 MOF302      0.0000 
     45 H          12.3348   15.7505    9.7909 H         1 MOF302      0.0000 
     46 H          13.5795   14.1104   10.6991 H         1 MOF302      0.0000 
     47 H          12.4862   12.7625   10.3412 H         1 MOF302      0.0000 
     48 H          11.2570   13.0532   12.0704 H         1 MOF302      0.0000 
     49 H           8.6752   16.0915    9.5622 H         1 MOF302      0.0000 
     50 H          10.2024   16.9899    9.5412 H         1 MOF302      0.0000 
     51 H           8.1556   16.2064   11.0945 H         1 MOF302      0.0000 
     52 H           8.4472   16.7798   12.7456 H         1 MOF302      0.0000 
     53 H          11.8951   19.4103   14.5226 H         1 MOF302      0.0000 
     54 H          13.1775   21.1304   13.2503 H         1 MOF302      0.0000 
     55 H          13.6280   20.3083   10.9566 H         1 MOF302      0.0000 
     56 H          10.9309   14.1457    4.2709 H         1 MOF302      0.0000 
     57 H          11.2124   13.3753    5.6541 H         1 MOF302      0.0000 
     58 H           9.8279   14.1651    5.4410 H         1 MOF302      0.0000 
     59 H          13.2157   13.5600   13.3213 H         1 MOF302      0.0000 
     60 H          13.2472   15.1284   12.9672 H         1 MOF302      0.0000 
     61 H          12.0776   14.5379   13.8997 H         1 MOF302      0.0000 
     62 H           9.7238   13.3043    8.7619 H         1 MOF302      0.0000 
     63 H          10.1077   12.8038   10.2412 H         1 MOF302      0.0000 
     64 H           8.7313   13.5974    9.9928 H         1 MOF302      0.0000 
     65 H           8.1048   14.9968    7.6518 H         1 MOF302      0.0000 
@<TRIPOS>BOND
     1    2    1 2    
     2    3    2 1    
     3    4    2 1    
     4    8    3 2    
     5   36    3 1    
     6    5    4 2    
     7   37    4 1    
     8    6    5 1    
     9    7    5 1    
    10   15    6 1    
    11   38    6 1    
    12   39    6 1    
    13    8    7 1    
    14    9    7 1    
    15   10    7 1    
    16   40    8 1    
    17   56    9 1    
    18   57    9 1    
    19   58    9 1    
    20   11   10 1    
    21   12   10 1    
    22   14   10 1    
    23   13   12 1    
    24   21   12 1    
    25   41   12 1    
    26   65   13 1    
    27   15   14 1    
    28   16   14 1    
    29   42   14 1    
    30   43   15 1    
    31   44   15 1    
    32   17   16 1    
    33   20   16 1    
    34   45   16 1    
    35   18   17 1    
    36   46   17 1    
    37   47   17 1    
    38   19   18 1    
    39   23   18 1    
    40   48   18 1    
    41   59   19 1    
    42   60   19 1    
    43   61   19 1    
    44   21   20 1    
    45   22   20 1    
    46   23   20 1    
    47   49   21 1    
    48   50   21 1    
    49   62   22 1    
    50   63   22 1    
    51   64   22 1    
    52   24   23 1    
    53   28   23 1    
    54   25   24 2    
    55   26   24 1    
    56   27   26 1    
    57   51   26 1    
    58   52   26 1    
    59   29   28 1    
    60   30   29 2    
    61   31   29 1    
    62   32   31 2    
    63   35   31 1    
    64   33   32 1    
    65   53   32 1    
    66   34   33 2    
    67   54   33 1    
    68   35   34 1    
    69   55   34 1    
@<TRIPOS>SUBSTRUCTURE
     1 MOF302      1 GROUP   
@<TRIPOS>SET

