#    Name: 2vuw_5ID_1_INTS_M
#    Modification time : Tue Mar 25 03:02:00 2014

@<TRIPOS>MOLECULE
2vuw_5ID_1_INTS_M
   60     0     9     0     0
SMALL
NO_CHARGES


@<TRIPOS>ATOM
      1 N          14.9110   -8.4470  -16.4590 N.am      2 SEC2        0.0000 
      2 N          14.7290   -8.2350  -15.0450 N.am      8 SEL2        0.0000 
      3 N          15.0930   -8.6590  -17.8730 N.am      5 SEP2        0.0000 
      4 O          14.6735   -7.2960  -15.9660 O.2       1 ALC1        0.0000 
      5 O          14.7290   -8.2350  -15.0450 O.2       7 ALL1        0.0000 
      6 O          14.6180   -6.3570  -16.8870 O.2       4 ALP1        0.0000 
      7 CA         12.9740   -7.4560  -15.8145 C.3       3 GLC5        0.0000 
      8 CA         13.6370   -8.7670  -14.2440 C.3       9 GLL5        0.0000 
      9 CA         12.3110   -6.1450  -17.3850 C.3       6 GLP5        0.0000 
     10 CA         11.9645   -8.8790  -15.3615 C.3       3 GLC5        0.0000 
     11 CA         10.2920   -8.9910  -16.4790 C.3       6 GLP5        0.0000 
     12 O          12.2860   -6.0250  -13.8635 O.2       1 ALC1        0.0000 
     13 O          13.4950   -6.4260  -13.4740 O.2       7 ALL1        0.0000 
     14 O          11.0770   -5.6240  -14.2530 O.2       4 ALP1        0.0000 
     15 CA         14.7055   -7.9310   -8.8180 C.3       3 GLC5        0.0000 
     16 CA         14.5920   -7.5400  -10.9690 C.3       9 GLL5        0.0000 
     17 CA         14.8190   -8.3220   -6.6670 C.3       6 GLP5        0.0000 
     18 CA         14.9495   -9.4085   -9.9290 C.3       3 GLC5        0.0000 
     19 CA         15.3070  -11.2770   -8.8890 C.3       6 GLP5        0.0000 
     20 N          12.4685   -7.0210   -9.9140 N.am      2 SEC2        0.0000 
     21 N          13.4440   -8.0860  -10.2640 N.am      8 SEL2        0.0000 
     22 N          11.4930   -5.9560   -9.5640 N.am      5 SEP2        0.0000 
     23 CA         15.1395  -11.9310  -13.9670 C.3       3 GLC5        0.0000 
     24 CA         14.2630   -9.9730  -13.5570 C.3       9 GLL5        0.0000 
     25 CA         16.0160  -13.8890  -14.3770 C.3       6 GLP5        0.0000 
     26 CA         16.2740   -9.6090  -12.6665 C.3       3 GLC5        0.0000 
     27 CA         18.2850   -9.2450  -11.7760 C.3       6 GLP5        0.0000 
     28 CA         14.3440  -12.8600  -14.0990 C.3       3 GLC5        0.0000 
     29 CA         12.6720  -11.8310  -13.8210 C.3       9 GLL5        0.0000 
     30 CA         14.1790  -13.5195  -15.0415 C.3       3 GLC5        0.0000 
     31 CA         12.3420  -13.1500  -15.7060 C.3       9 GLL5        0.0000 
     32 CA         10.5465  -13.7835  -16.7360 C.3       3 GLC5        0.0000 
     33 CA          8.7510  -14.4170  -17.7660 C.3       6 GLP5        0.0000 
     34 CA         10.8495  -12.2035  -15.7475 C.3       3 GLC5        0.0000 
     35 CA          9.3570  -11.2570  -15.7890 C.3       6 GLP5        0.0000 
     36 N          10.5385  -14.5590  -16.0585 N.am      2 SEC2        0.0000 
     37 N          11.3890  -13.8490  -15.0560 N.am      8 SEL2        0.0000 
     38 N           9.6880  -15.2690  -17.0610 N.am      5 SEP2        0.0000 
     39 O           9.5515  -15.5785  -13.6435 O.2       1 ALC1        0.0000 
     40 O          10.0610  -14.2890  -13.1860 O.2       7 ALL1        0.0000 
     41 O           9.0420  -16.8680  -14.1010 O.2       4 ALP1        0.0000 
     42 CA          9.8600  -13.9445   -9.3985 C.3       3 GLC5        0.0000 
     43 CA         10.4550  -12.5160  -10.2360 C.3       9 GLL5        0.0000 
     44 CA          9.2650  -15.3730   -8.5610 C.3       6 GLP5        0.0000 
     45 CA         10.0800  -10.6310  -11.3555 C.3       3 GLC5        0.0000 
     46 CA          9.7050   -8.7460  -12.4750 C.3       6 GLP5        0.0000 
     47 CA         11.6393   -8.5257  -13.0590 C.3       3 GLC5        0.0000 
     48 CA         13.5100   -7.8440  -13.0420 C.3       9 GLL5        0.0000 
     49 CA         16.5012   -8.5400  -11.7245 C.3       3 GLC5        0.0000 
     50 CA         14.8430   -8.1300  -12.3770 C.3       9 GLL5        0.0000 
     51 CA         12.0938  -14.5380  -12.7668 C.3       3 GLC5        0.0000 
     52 CA         11.6780  -11.9210  -11.8430 C.3       9 GLL5        0.0000 
     53 CA         12.8260  -16.1760  -12.4000 C.3       6 GLP5        0.0000 
     54 CA         10.4835  -12.0673  -14.7085 C.3       3 GLC5        0.0000 
     55 CA         11.0390  -13.5770  -13.7830 C.3       9 GLL5        0.0000 
     56 CA         13.7034  -12.5311  -11.5617 C.3       3 GLC5        0.0000 
     57 CA         11.6900  -12.5250  -13.1250 C.3       9 GLL5        0.0000 
     58 CA         15.2510  -13.2670  -10.4780 C.3       6 GLP5        0.0000 
     59 CA         10.9304  -10.2706  -12.5602 C.3       3 GLC5        0.0000 
     60 CA         12.5830  -10.9040  -11.7930 C.3       9 GLL5        0.0000 
@<TRIPOS>BOND
@<TRIPOS>SUBSTRUCTURE
     1 ALC1        4 GROUP        1 X    ALC  0     ROOT ALC X 1
     2 SEC2        1 GROUP        1 X    SEC  0     **** SEC X 2
     3 GLC5        7 GROUP        1 X    GLC  0     **** GLC X 6
     4 ALP1        6 GROUP        1 Y    ALP  0     ROOT ALP Y 8
     5 SEP2        3 GROUP        1 Y    SEP  0     **** SEP Y 9
     6 GLP5        9 GROUP        1 Y    GLP  0     **** GLP Y 13
     7 ALL1        5 GROUP        1 Z    ALL  0     ROOT ALL Z 15
     8 SEL2        2 GROUP        1 Z    SEL  0     **** SEL Z 16
     9 GLL5        8 GROUP        1 Z    GLL  0     **** GLL Z 20
@<TRIPOS>SET

