#    Name: 2vuw_5ID_1_ligand
#    Modification time : Tue Mar 25 03:02:00 2014

@<TRIPOS>MOLECULE
2vuw_5ID_1_ligand
   33    35     1     0     0
SMALL
NO_CHARGES


@<TRIPOS>ATOM
      1 O2'        14.7290   -8.2350  -15.0450 O.3       1 5ID1800     0.0000 
      2 C2'        13.6370   -8.7670  -14.2440 C.3       1 5ID1800     0.0000 
      3 C3'        13.5100   -7.8440  -13.0420 C.3       1 5ID1800     0.0000 
      4 O3'        13.4950   -6.4260  -13.4740 O.3       1 5ID1800     0.0000 
      5 C4'        14.8430   -8.1300  -12.3770 C.3       1 5ID1800     0.0000 
      6 C5'        14.5920   -7.5400  -10.9690 C.3       1 5ID1800     0.0000 
      7 O5'        13.4440   -8.0860  -10.2640 O.3       1 5ID1800     0.0000 
      8 O4'        14.7540   -9.5210  -12.2530 O.3       1 5ID1800     0.0000 
      9 C1'        14.2630   -9.9730  -13.5570 C.3       1 5ID1800     0.0000 
     10 N9         13.2150  -10.8810  -13.0030 N.pl3     1 5ID1800     0.0000 
     11 C8         12.5830  -10.9040  -11.7930 C.2       1 5ID1800     0.0000 
     12 C7         11.6780  -11.9210  -11.8430 C.2       1 5ID1800     0.0000 
     13 C5         11.6900  -12.5250  -13.1250 C.ar      1 5ID1800     0.0000 
     14 C4         12.6720  -11.8310  -13.8210 C.ar      1 5ID1800     0.0000 
     15 N3         12.9910  -12.1700  -15.0860 N.ar      1 5ID1800     0.0000 
     16 C2         12.3420  -13.1500  -15.7060 C.ar      1 5ID1800     0.0000 
     17 N1         11.3890  -13.8490  -15.0560 N.ar      1 5ID1800     0.0000 
     18 C6         11.0390  -13.5770  -13.7830 C.ar      1 5ID1800     0.0000 
     19 N6         10.0610  -14.2890  -13.1860 N.pl3     1 5ID1800     0.0000 
     20 IAE        10.4550  -12.5160  -10.2360 I         1 5ID1800     0.0000 
     21 H          12.8012   -8.9669  -14.6802 H         1 5ID1800     0.0000 
     22 H          12.7433   -8.1271  -12.4433 H         1 5ID1800     0.0000 
     23 H          15.5882   -7.7329  -12.8400 H         1 5ID1800     0.0000 
     24 H          14.4940   -6.4362  -11.0888 H         1 5ID1800     0.0000 
     25 H          15.5260   -7.6900  -10.3794 H         1 5ID1800     0.0000 
     26 H          14.9543  -10.4547  -14.0827 H         1 5ID1800     0.0000 
     27 H          12.7443  -10.3230  -11.0600 H         1 5ID1800     0.0000 
     28 H          12.5643  -13.3869  -16.7009 H         1 5ID1800     0.0000 
     29 H           9.8293  -14.0204  -12.2510 H         1 5ID1800     0.0000 
     30 H           9.6547  -15.0220  -13.7315 H         1 5ID1800     0.0000 
     31 H          14.3110   -7.5276  -15.6149 H         1 5ID1800     0.0000 
     32 H          12.5482   -6.2470  -13.7414 H         1 5ID1800     0.0000 
     33 H          12.7710   -8.2810  -10.9775 H         1 5ID1800     0.0000 
@<TRIPOS>BOND
     1    2    1 1    
     2   31    1 1    
     3    3    2 1    
     4    9    2 1    
     5   21    2 1    
     6    4    3 1    
     7    5    3 1    
     8   22    3 1    
     9   32    4 1    
    10    6    5 1    
    11    8    5 1    
    12   23    5 1    
    13    7    6 1    
    14   24    6 1    
    15   25    6 1    
    16   33    7 1    
    17    9    8 1    
    18   10    9 1    
    19   26    9 1    
    20   11   10 1    
    21   14   10 1    
    22   12   11 2    
    23   27   11 1    
    24   13   12 1    
    25   20   12 1    
    26   14   13 ar   
    27   18   13 ar   
    28   15   14 ar   
    29   16   15 ar   
    30   17   16 ar   
    31   28   16 1    
    32   18   17 ar   
    33   19   18 1    
    34   29   19 1    
    35   30   19 1    
@<TRIPOS>SUBSTRUCTURE
     1 5ID1800     1 GROUP   
@<TRIPOS>SET

