#    Name: 1IEI_1_CAVITY_N1_6.mol2
#    Modification time : Tue Mar 11 08:04:16 2014

@<TRIPOS>MOLECULE
1IEI_1_CAVITY_N1_6.mol2
   95     0     5     0     0
SMALL
NO_CHARGES


@<TRIPOS>ATOM
      1 CA         -9.0607    2.9324   14.5974 C.3       4 GLY6        0.0000 
      2 CA         -8.4273    1.6181   14.9459 C.3       4 GLY6        0.0000 
      3 CZ         -8.9707   -0.4187   14.7087 C.ar      3 PHE5        0.0000 
      4 CA         -8.3797    2.9063   13.2611 C.3       4 GLY6        0.0000 
      5 CA         -7.7463    1.5920   13.6097 C.3       4 GLY6        0.0000 
      6 CZ         -9.5565    2.1838   12.6754 C.ar      3 PHE5        0.0000 
      7 CA         -8.9231    0.8695   13.0240 C.3       4 GLY6        0.0000 
      8 CZ         -8.2897   -0.4448   13.3725 C.ar      3 PHE5        0.0000 
      9 DU        -10.0999    0.1470   12.4382 H         5 CUB7        0.0000 
     10 CZ         -9.4665   -1.1673   12.7868 C.ar      3 PHE5        0.0000 
     11 CZ        -10.0099   -3.2041   12.5496 C.ar      3 PHE5        0.0000 
     12 CA         -2.2679    1.1049   14.7277 C.3       4 GLY6        0.0000 
     13 CA         -1.6344   -0.2094   15.0762 C.3       4 GLY6        0.0000 
     14 CA         -3.4447    0.3824   14.1420 C.3       4 GLY6        0.0000 
     15 CZ         -2.8113   -0.9319   14.4905 C.ar      3 PHE5        0.0000 
     16 CA         -6.5218    3.6027   12.5107 C.3       4 GLY6        0.0000 
     17 CZ         -7.6986    2.8802   11.9249 C.ar      3 PHE5        0.0000 
     18 CA         -7.0652    1.5659   12.2735 C.3       4 GLY6        0.0000 
     19 CZ         -8.2420    0.8434   11.6877 C.ar      3 PHE5        0.0000 
     20 CZ         -7.6086   -0.4709   12.0363 C.ar      3 PHE5        0.0000 
     21 CZ        -10.0523    1.4352   10.7535 C.ar      3 PHE5        0.0000 
     22 CZ         -9.4188    0.1209   11.1020 C.ar      3 PHE5        0.0000 
     23 CZ         -8.7854   -1.1934   11.4506 C.ar      3 PHE5        0.0000 
     24 CA        -11.2291    0.7127   10.1678 C.3       4 GLY6        0.0000 
     25 CA        -10.5957   -0.6016   10.5163 C.3       4 GLY6        0.0000 
     26 CZ         -9.9622   -1.9159   10.8648 C.ar      3 PHE5        0.0000 
     27 CZ         -9.3288   -3.2302   11.2134 C.ar      3 PHE5        0.0000 
     28 CZ         -8.6954   -4.5444   11.5619 C.ar      3 PHE5        0.0000 
     29 CA         -8.0620   -5.8587   11.9104 C.3       4 GLY6        0.0000 
     30 DU        -11.1391   -2.6384   10.2791 H         5 CUB7        0.0000 
     31 DU        -10.5056   -3.9527   10.6276 H         5 CUB7        0.0000 
     32 OG         -0.4100    1.8013   13.9772 O.2       1 SER1        0.0000 
     33 CA         -2.2202    2.3930   13.0429 C.3       4 GLY6        0.0000 
     34 CZ         -1.5868    1.0788   13.3915 C.ar      3 PHE5        0.0000 
     35 CA         -4.0305    2.9848   12.1087 C.3       4 GLY6        0.0000 
     36 CA         -3.3970    1.6705   12.4572 C.3       4 GLY6        0.0000 
     37 CA         -2.7636    0.3563   12.8058 C.3       4 GLY6        0.0000 
     38 CA         -5.2073    2.2623   11.5230 C.3       4 GLY6        0.0000 
     39 CA         -4.5739    0.9480   11.8715 C.3       4 GLY6        0.0000 
     40 CZ         -3.9404   -0.3662   12.2200 C.ar      3 PHE5        0.0000 
     41 CZ         -6.3841    1.5398   10.9373 C.ar      3 PHE5        0.0000 
     42 CZ         -5.7507    0.2255   11.2858 C.ar      3 PHE5        0.0000 
     43 CZ         -7.5609    0.8173   10.3515 C.ar      3 PHE5        0.0000 
     44 CZ         -6.9275   -0.4970   10.7001 C.ar      3 PHE5        0.0000 
     45 CZ         -8.7378    0.0948    9.7658 C.ar      3 PHE5        0.0000 
     46 CZ         -8.1043   -1.2195   10.1143 C.ar      3 PHE5        0.0000 
     47 CZ         -7.4709   -2.5338   10.4629 C.ar      3 PHE5        0.0000 
     48 CZ         -6.8375   -3.8480   10.8114 C.ar      3 PHE5        0.0000 
     49 CZ         -9.9146   -0.6277    9.1801 C.ar      3 PHE5        0.0000 
     50 O          -9.2812   -1.9420    9.5286 O.2       2 ALA2        0.0000 
     51 CZ         -8.6477   -3.2563    9.8772 C.ar      3 PHE5        0.0000 
     52 CA         -8.0143   -4.5705   10.2257 C.3       4 GLY6        0.0000 
     53 CZ        -11.0914   -1.3502    8.5944 C.ar      3 PHE5        0.0000 
     54 O         -10.4580   -2.6645    8.9429 O.2       2 ALA2        0.0000 
     55 DU         -9.8246   -3.9788    9.2914 H         5 CUB7        0.0000 
     56 N          -9.1912   -5.2930    9.6400 N.2       2 ALA2        0.0000 
     57 DU        -11.6348   -3.3870    8.3572 H         5 CUB7        0.0000 
     58 N         -11.0014   -4.7013    8.7057 N.2       2 ALA2        0.0000 
     59 N         -10.3680   -6.0155    9.0542 N.2       2 ALA2        0.0000 
     60 CZ         -4.5262    2.2362   10.1868 C.ar      3 PHE5        0.0000 
     61 CZ         -3.8928    0.9219   10.5353 C.ar      3 PHE5        0.0000 
     62 O          -3.2594   -0.3923   10.8838 O.2       2 ALA2        0.0000 
     63 CZ         -5.7030    1.5137    9.6010 C.ar      3 PHE5        0.0000 
     64 DU         -5.0696    0.1994    9.9496 H         5 CUB7        0.0000 
     65 CZ         -4.4362   -1.1148   10.2981 C.ar      3 PHE5        0.0000 
     66 CZ         -6.8799    0.7912    9.0153 C.ar      3 PHE5        0.0000 
     67 DU         -6.2464   -0.5231    9.3639 H         5 CUB7        0.0000 
     68 CZ         -5.6130   -1.8374    9.7124 C.ar      3 PHE5        0.0000 
     69 CZ         -7.4233   -1.2456    8.7781 C.ar      3 PHE5        0.0000 
     70 CA         -6.7898   -2.5599    9.1267 C.3       4 GLY6        0.0000 
     71 CA         -6.1564   -3.8741    9.4752 C.3       4 GLY6        0.0000 
     72 O          -8.6001   -1.9681    8.1924 O.2       2 ALA2        0.0000 
     73 O          -7.9667   -3.2824    8.5409 O.2       2 ALA2        0.0000 
     74 CA         -7.3333   -4.5966    8.8895 C.3       4 GLY6        0.0000 
     75 O          -9.1435   -4.0049    7.9552 O.2       2 ALA2        0.0000 
     76 N         -10.3203   -4.7274    7.3695 N.2       2 ALA2        0.0000 
     77 CZ         -3.8451    2.2101    8.8506 C.ar      3 PHE5        0.0000 
     78 CA         -5.6554    2.8019    7.9163 C.3       4 GLY6        0.0000 
     79 CZ         -5.0220    1.4876    8.2648 C.ar      3 PHE5        0.0000 
     80 CZ         -4.3885    0.1733    8.6134 C.ar      3 PHE5        0.0000 
     81 O          -3.7551   -1.1409    8.9619 O.2       2 ALA2        0.0000 
     82 CZ         -6.1988    0.7651    7.6791 C.ar      3 PHE5        0.0000 
     83 DU         -5.5654   -0.5492    8.0276 H         5 CUB7        0.0000 
     84 CA         -4.9320   -1.8635    8.3762 C.3       4 GLY6        0.0000 
     85 CZ         -4.2985   -3.1777    8.7247 C.ar      3 PHE5        0.0000 
     86 O          -6.7422   -1.2717    7.4419 O.2       2 ALA2        0.0000 
     87 CA         -6.1088   -2.5860    7.7905 C.3       4 GLY6        0.0000 
     88 CZ         -7.2856   -3.3085    7.2047 C.ar      3 PHE5        0.0000 
     89 CZ         -4.3409    1.4615    6.9286 C.ar      3 PHE5        0.0000 
     90 N          -3.7075    0.1472    7.2772 N.2       2 ALA2        0.0000 
     91 O          -3.0741   -1.1671    7.6257 O.2       2 ALA2        0.0000 
     92 CZ         -5.5177    0.7390    6.3429 C.ar      3 PHE5        0.0000 
     93 CZ         -4.8843   -0.5753    6.6914 C.ar      3 PHE5        0.0000 
     94 N          -4.2509   -1.8896    7.0400 N.2       2 ALA2        0.0000 
     95 CZ         -6.0611   -1.2978    6.1057 C.ar      3 PHE5        0.0000 
@<TRIPOS>BOND
@<TRIPOS>SUBSTRUCTURE
     1 SER1       32 GROUP   
     2 ALA2       50 GROUP   
     3 PHE5        3 GROUP   
     4 GLY6        1 GROUP   
     5 CUB7        9 GROUP   
@<TRIPOS>SET

