#    Name: 1iei_ZES_1_INTS_M
#    Modification time : Tue Mar 25 06:58:47 2014

@<TRIPOS>MOLECULE
1iei_ZES_1_INTS_M
   52     0     6     0     0
SMALL
NO_CHARGES


@<TRIPOS>ATOM
      1 CA         -3.1610    2.0765    9.8440 C.3       2 GLC5        0.0000 
      2 CA         -5.0500    2.4080   10.5430 C.3       6 GLL5        0.0000 
      3 CA         -1.2720    1.7450    9.1450 C.3       4 GLP5        0.0000 
      4 CA         -6.5425    3.3010    9.8755 C.3       2 GLC5        0.0000 
      5 CA         -8.0350    4.1940    9.2080 C.3       4 GLP5        0.0000 
      6 CA         -8.7175   -3.2385    6.3455 C.3       2 GLC5        0.0000 
      7 CA         -8.6100   -4.3420    8.2130 C.3       6 GLL5        0.0000 
      8 CA         -8.8250   -2.1350    4.4780 C.3       4 GLP5        0.0000 
      9 CA         -6.8785   -4.9340    7.9525 C.3       2 GLC5        0.0000 
     10 CA         -5.1470   -5.5260    7.6920 C.3       4 GLP5        0.0000 
     11 CA         -8.4495   -5.6325    6.6280 C.3       2 GLC5        0.0000 
     12 CA         -8.2890   -6.9230    5.0430 C.3       4 GLP5        0.0000 
     13 CA         -6.9120   -0.1535    5.5475 C.3       2 GLC5        0.0000 
     14 CA         -5.4250   -0.3960    6.7230 C.3       6 GLL5        0.0000 
     15 CA         -8.3990    0.0890    4.3720 C.3       4 GLP5        0.0000 
     16 CA         -5.5050   -2.0245    5.6070 C.3       2 GLC5        0.0000 
     17 CA         -5.5850   -3.6530    4.4910 C.3       4 GLP5        0.0000 
     18 CA         -4.4155    0.6030    5.5725 C.3       2 GLC5        0.0000 
     19 CA         -3.4060    1.6020    4.4220 C.3       4 GLP5        0.0000 
     20 N          -2.2020   -0.9930    8.8145 N.am      1 SEC2        0.0000 
     21 N          -3.3890   -1.2230    8.0230 N.am      5 SEL2        0.0000 
     22 N          -1.0150   -0.7630    9.6060 N.am      3 SEP2        0.0000 
     23 N          -3.6250   -1.7230    4.5090 N.am      1 SEC2        0.0000 
     24 N          -3.2520   -1.0640    5.7530 N.am      5 SEL2        0.0000 
     25 N          -3.9980   -2.3820    3.2650 N.am      3 SEP2        0.0000 
     26 N          -2.4170   -2.0610    5.7745 N.am      1 SEC2        0.0000 
     27 N          -1.5820   -3.0580    5.7960 N.am      3 SEP2        0.0000 
     28 CA         -1.9340    3.6050   10.4490 C.3       2 GLC5        0.0000 
     29 CA         -3.1650    4.2090   11.5120 C.3       6 GLL5        0.0000 
     30 CA         -0.7030    3.0010    9.3860 C.3       4 GLP5        0.0000 
     31 CA         -3.8910    5.4165    9.9090 C.3       2 GLC5        0.0000 
     32 CA         -4.6170    6.6240    8.3060 C.3       4 GLP5        0.0000 
     33 CA         -3.2920    6.1110   11.4905 C.3       2 GLC5        0.0000 
     34 CA         -3.4190    8.0130   11.4690 C.3       4 GLP5        0.0000 
     35 CA          0.1430    0.8370   12.2465 C.3       2 GLC5        0.0000 
     36 CA         -0.2600    0.9920   14.0970 C.3       6 GLL5        0.0000 
     37 CA          0.5460    0.6820   10.3960 C.3       4 GLP5        0.0000 
     38 CA          0.8430    0.0325   14.9700 C.3       2 GLC5        0.0000 
     39 CA          1.9460   -0.9270   15.8430 C.3       4 GLP5        0.0000 
     40 CA         -0.7465    1.7855   16.0670 C.3       2 GLC5        0.0000 
     41 CA         -1.2330    2.5790   18.0370 C.3       4 GLP5        0.0000 
     42 CA          0.5640    2.3680   15.2975 C.3       2 GLC5        0.0000 
     43 CA          1.3880    3.7440   16.4980 C.3       4 GLP5        0.0000 
     44 CA         -6.4225   -3.9988    8.0747 C.3       2 GLC5        0.0000 
     45 CA         -7.2540   -2.0790    8.0930 C.3       6 GLL5        0.0000 
     46 CA         -4.5385    3.1538   12.6638 C.3       2 GLC5        0.0000 
     47 CA         -4.5770    4.1340   14.2840 C.3       4 GLP5        0.0000 
     48 CA         -4.2804    1.2727   13.6716 C.3       2 GLC5        0.0000 
     49 CA         -3.8590    0.6820   12.1000 C.3       6 GLL5        0.0000 
     50 CA         -5.4780    1.7670   14.7880 C.3       4 GLP5        0.0000 
     51 CA         -3.6892    3.8030   13.0787 C.3       2 GLC5        0.0000 
     52 CA         -2.9690    2.8900   11.8880 C.3       6 GLL5        0.0000 
@<TRIPOS>BOND
@<TRIPOS>SUBSTRUCTURE
     1 SEC2       20 GROUP        1 X    SEC  0     ROOT SEC X 2
     2 GLC5        1 GROUP        1 X    GLC  0     **** GLC X 6
     3 SEP2       22 GROUP        1 Y    SEP  0     ROOT SEP Y 9
     4 GLP5        3 GROUP        1 Y    GLP  0     **** GLP Y 13
     5 SEL2       21 GROUP        1 Z    SEL  0     ROOT SEL Z 16
     6 GLL5        2 GROUP        1 Z    GLL  0     **** GLL Z 20
@<TRIPOS>SET

