#    Name: 1iei_ZES_1_ligand
#    Modification time : Tue Mar 25 06:58:47 2014

@<TRIPOS>MOLECULE
1iei_ZES_1_ligand
   36    38     1     0     0
SMALL
NO_CHARGES


@<TRIPOS>ATOM
      1 C1         -8.6640   -2.4490   10.0590 C.ar      1 ZES351      0.0000 
      2 C2         -8.2350   -1.2420   10.5960 C.ar      1 ZES351      0.0000 
      3 C3         -7.2760   -0.4960    9.8800 C.ar      1 ZES351      0.0000 
      4 C4         -6.8340   -0.8410    8.6170 C.ar      1 ZES351      0.0000 
      5 C5         -7.2540   -2.0790    8.0930 C.ar      1 ZES351      0.0000 
      6 C6         -8.1420   -2.8640    8.8220 C.ar      1 ZES351      0.0000 
      7 C10        -6.5730    0.5810   10.5240 C.2       1 ZES351      0.0000 
      8 N11        -5.6750    1.3200    9.8660 N.am      1 ZES351      0.0000 
      9 C12        -5.4010    1.1220    8.5930 C.2       1 ZES351      0.0000 
     10 N13        -5.9800   -0.0110    7.9620 N.am      1 ZES351      0.0000 
     11 C14        -5.0500    2.4080   10.5430 C.3       1 ZES351      0.0000 
     12 C15        -3.9500    1.9390   11.5440 C.ar      1 ZES351      0.0000 
     13 C18        -2.9690    2.8900   11.8880 C.ar      1 ZES351      0.0000 
     14 C19        -1.9070    2.5800   12.5820 C.ar      1 ZES351      0.0000 
     15 C20        -1.8340    1.3470   13.1080 C.ar      1 ZES351      0.0000 
     16 C21        -2.7790    0.4030   12.9130 C.ar      1 ZES351      0.0000 
     17 C22        -3.8590    0.6820   12.1000 C.ar      1 ZES351      0.0000 
     18 CL6        -8.6100   -4.3420    8.2130 Cl        1 ZES351      0.0000 
     19 C27        -5.4250   -0.3960    6.7230 C.3       1 ZES351      0.0000 
     20 C28        -3.8920   -0.9470    6.9710 C.2       1 ZES351      0.0000 
     21 O31        -3.3890   -1.2230    8.0230 O.co2     1 ZES351      0.0000 
     22 O32        -3.2520   -1.0640    5.7530 O.co2     1 ZES351      0.0000 
     23 O33        -4.6300    1.8720    8.0210 O.2       1 ZES351      0.0000 
     24 O34        -6.8050    0.7940   11.6860 O.2       1 ZES351      0.0000 
     25 F35        -3.1650    4.2090   11.5120 F         1 ZES351      0.0000 
     26 BR3        -0.2600    0.9920   14.0970 Br        1 ZES351      0.0000 
     27 H          -9.3442   -3.0281   10.5470 H         1 ZES351      0.0000 
     28 H          -8.5955   -0.8980   11.4781 H         1 ZES351      0.0000 
     29 H          -6.9055   -2.3910    7.1853 H         1 ZES351      0.0000 
     30 H          -5.7757    3.0044   11.1260 H         1 ZES351      0.0000 
     31 H          -4.5613    3.1072    9.8397 H         1 ZES351      0.0000 
     32 H          -1.1329    3.2545   12.7324 H         1 ZES351      0.0000 
     33 H          -2.7072   -0.5245   13.3621 H         1 ZES351      0.0000 
     34 H          -4.5709   -0.0255   11.9164 H         1 ZES351      0.0000 
     35 H          -5.3125    0.4186    6.0150 H         1 ZES351      0.0000 
     36 H          -5.9395   -1.2228    6.2441 H         1 ZES351      0.0000 
@<TRIPOS>BOND
     1    2    1 ar   
     2    6    1 ar   
     3   27    1 1    
     4    3    2 ar   
     5   28    2 1    
     6    4    3 ar   
     7    7    3 1    
     8    5    4 ar   
     9   10    4 1    
    10    6    5 ar   
    11   29    5 1    
    12   18    6 1    
    13    8    7 am   
    14   24    7 2    
    15    9    8 am   
    16   11    8 1    
    17   10    9 am   
    18   23    9 2    
    19   19   10 1    
    20   12   11 1    
    21   30   11 1    
    22   31   11 1    
    23   13   12 ar   
    24   17   12 ar   
    25   14   13 ar   
    26   25   13 1    
    27   15   14 ar   
    28   32   14 1    
    29   16   15 ar   
    30   26   15 1    
    31   17   16 ar   
    32   33   16 1    
    33   34   17 1    
    34   20   19 1    
    35   35   19 1    
    36   36   19 1    
    37   21   20 ar   
    38   22   20 ar   
@<TRIPOS>SUBSTRUCTURE
     1 ZES351      1 GROUP   
@<TRIPOS>SET

