#    Name: 3U8N_17_CAVITY_N1_6.mol2
#    Modification time : Tue Mar 11 06:45:13 2014

@<TRIPOS>MOLECULE
3U8N_17_CAVITY_N1_6.mol2
   40     0     4     0     0
SMALL
NO_CHARGES


@<TRIPOS>ATOM
      1 CA         81.0986    0.9794   17.8037 C.3       3 GLY6        0.0000 
      2 CA         80.5041    1.1303   19.1726 C.3       3 GLY6        0.0000 
      3 CA         79.9096    1.2811   20.5414 C.3       3 GLY6        0.0000 
      4 N          79.3150    1.4320   21.9103 N.2       2 ALA2        0.0000 
      5 CA         79.9338    0.1289   17.3916 C.3       3 GLY6        0.0000 
      6 CA         79.3393    0.2798   18.7604 C.3       3 GLY6        0.0000 
      7 CA         78.7448    0.4306   20.1293 C.3       3 GLY6        0.0000 
      8 N          78.1502    0.5815   21.4981 N.2       2 ALA2        0.0000 
      9 CA         78.1745   -0.5707   18.3482 C.3       3 GLY6        0.0000 
     10 CA         77.5800   -0.4199   19.7171 C.3       3 GLY6        0.0000 
     11 CA         82.4279   -0.3978   16.8891 C.3       3 GLY6        0.0000 
     12 CA         80.6442    0.0548   20.9957 C.3       3 GLY6        0.0000 
     13 CA         80.0497    0.2057   22.3646 C.3       3 GLY6        0.0000 
     14 CA         79.4794   -0.7957   20.5835 C.3       3 GLY6        0.0000 
     15 CA         80.9100    4.3593   22.2804 C.3       3 GLY6        0.0000 
     16 CA         80.3154    4.5102   23.6492 C.3       3 GLY6        0.0000 
     17 N          80.9342    3.2071   19.1305 N.2       2 ALA2        0.0000 
     18 CA         80.3397    3.3580   20.4994 C.3       3 GLY6        0.0000 
     19 O          79.7452    3.5088   21.8682 O.2       2 ALA2        0.0000 
     20 N          79.1506    3.6597   23.2371 N.2       2 ALA2        0.0000 
     21 CA         79.6050    4.5843   20.0451 C.3       3 GLY6        0.0000 
     22 CA         79.0105    4.7352   21.4139 C.3       3 GLY6        0.0000 
     23 O          78.4159    4.8860   22.7828 O.2       2 ALA2        0.0000 
     24 CA         81.6446    3.1330   22.7346 C.3       3 GLY6        0.0000 
     25 OG         81.0501    3.2839   24.1035 O.2       1 SER1        0.0000 
     26 CA         81.6689    1.9807   19.5848 C.3       3 GLY6        0.0000 
     27 CA         81.0744    2.1316   20.9536 C.3       3 GLY6        0.0000 
     28 OG         80.4798    2.2825   22.3225 O.2       1 SER1        0.0000 
     29 N          79.8853    2.4334   23.6913 N.2       2 ALA2        0.0000 
     30 CA         79.5808    5.7365   23.1950 C.3       3 GLY6        0.0000 
     31 O          78.4402    3.7338   19.6329 O.2       2 ALA2        0.0000 
     32 O          77.2754    2.8833   19.2207 O.2       2 ALA2        0.0000 
     33 CA         81.8091    0.9053   21.4079 C.3       3 GLY6        0.0000 
     34 OG         81.2145    1.0562   22.7767 O.2       1 SER1        0.0000 
     35 OG         80.6200    1.2070   24.1456 O.2       1 SER1        0.0000 
     36 DU         79.7694    2.3566   18.7183 H         4 CUB7        0.0000 
     37 O          79.1749    2.5075   20.0872 O.2       2 ALA2        0.0000 
     38 O          78.5804    2.6583   21.4560 O.2       2 ALA2        0.0000 
     39 DU         78.6046    1.5061   18.3062 H         4 CUB7        0.0000 
     40 CA         78.0101    1.6570   19.6750 C.3       3 GLY6        0.0000 
@<TRIPOS>BOND
@<TRIPOS>SUBSTRUCTURE
     1 SER1       25 GROUP   
     2 ALA2        4 GROUP   
     3 GLY6        1 GROUP   
     4 CUB7       36 GROUP   
@<TRIPOS>SET

