#    Name: 3u8n_09S_17_INTS_M
#    Modification time : Mon Mar 24 21:54:49 2014

@<TRIPOS>MOLECULE
3u8n_09S_17_INTS_M
   63     0     3     0     0
SMALL
NO_CHARGES


@<TRIPOS>ATOM
      1 CA         88.4200   -4.4100   23.5705 C.3       1 GLC5        0.0000 
      2 CA         88.1280   -2.7120   23.1810 C.3       3 GLL5        0.0000 
      3 CA         88.7120   -6.1080   23.9600 C.3       2 GLP5        0.0000 
      4 CA         89.5805   -2.1210   21.8485 C.3       1 GLC5        0.0000 
      5 CA         91.0330   -1.5300   20.5160 C.3       2 GLP5        0.0000 
      6 CA         87.3935   -2.4245   21.3300 C.3       1 GLC5        0.0000 
      7 CA         86.6590   -2.1370   19.4790 C.3       2 GLP5        0.0000 
      8 CA         90.6720   -1.9935   25.0625 C.3       1 GLC5        0.0000 
      9 CA         88.9760   -2.2730   24.3820 C.3       3 GLL5        0.0000 
     10 CA         92.3680   -1.7140   25.7430 C.3       2 GLP5        0.0000 
     11 CA         89.4120   -3.8040   25.1670 C.3       1 GLC5        0.0000 
     12 CA         89.8480   -5.3350   25.9520 C.3       2 GLP5        0.0000 
     13 CA         90.4375   -1.9610   23.0000 C.3       1 GLC5        0.0000 
     14 CA         91.8990   -1.6490   21.6180 C.3       2 GLP5        0.0000 
     15 CA         89.8110   -0.9715   26.1040 C.3       1 GLC5        0.0000 
     16 CA         87.9490   -0.1780   25.2790 C.3       3 GLL5        0.0000 
     17 CA         91.6730   -1.7650   26.9290 C.3       2 GLP5        0.0000 
     18 CA         89.2030    1.0565   25.1425 C.3       1 GLC5        0.0000 
     19 CA         90.4570    2.2910   25.0060 C.3       2 GLP5        0.0000 
     20 CA         87.2350    1.0845   26.1190 C.3       1 GLC5        0.0000 
     21 CA         86.5210    2.3470   26.9590 C.3       2 GLP5        0.0000 
     22 CA         86.2685    0.7835   25.7230 C.3       1 GLC5        0.0000 
     23 CA         86.9350    0.2290   24.2070 C.3       3 GLL5        0.0000 
     24 CA         85.6020    1.3380   27.2390 C.3       2 GLP5        0.0000 
     25 CA         86.5550    0.3605   21.2235 C.3       1 GLC5        0.0000 
     26 CA         87.2020   -0.3790   22.8130 C.3       3 GLL5        0.0000 
     27 CA         85.9080    1.1000   19.6340 C.3       2 GLP5        0.0000 
     28 CA         85.8045    0.7465   21.7810 C.3       1 GLC5        0.0000 
     29 CA         84.4070    1.8720   20.7490 C.3       2 GLP5        0.0000 
     30 CA         86.9305   -1.2580   21.1460 C.3       1 GLC5        0.0000 
     31 CA         84.4765   -4.3935   20.6835 C.3       1 GLC5        0.0000 
     32 CA         83.2770   -3.6580   22.3910 C.3       3 GLL5        0.0000 
     33 CA         85.6760   -5.1290   18.9760 C.3       2 GLP5        0.0000 
     34 CA         84.3555   -4.6025   24.1095 C.3       1 GLC5        0.0000 
     35 CA         85.5980   -3.7640   22.4880 C.3       3 GLL5        0.0000 
     36 CA         83.1130   -5.4410   25.7310 C.3       2 GLP5        0.0000 
     37 CA         85.2255   -0.2705   21.2010 C.3       1 GLC5        0.0000 
     38 CA         84.5430   -1.6410   22.7680 C.3       3 GLL5        0.0000 
     39 CA         84.4750    0.1155   21.7585 C.3       1 GLC5        0.0000 
     40 CA         80.4635   -6.0895   22.2145 C.3       1 GLC5        0.0000 
     41 CA         81.8090   -4.5790   22.1780 C.3       3 GLL5        0.0000 
     42 CA         79.1180   -7.6000   22.2510 C.3       2 GLP5        0.0000 
     43 CA         80.2415   -3.7315   22.3300 C.3       1 GLC5        0.0000 
     44 CA         78.6740   -2.8840   22.4820 C.3       2 GLP5        0.0000 
     45 CA         81.6930   -3.7690   20.3425 C.3       1 GLC5        0.0000 
     46 CA         81.5770   -2.9590   18.5070 C.3       2 GLP5        0.0000 
     47 CA         81.7425   -5.9285   20.4105 C.3       1 GLC5        0.0000 
     48 CA         81.6760   -7.2780   18.6430 C.3       2 GLP5        0.0000 
     49 CA         82.0680   -0.9365   20.9680 C.3       1 GLC5        0.0000 
     50 CA         82.1350   -0.1790   22.6790 C.3       3 GLL5        0.0000 
     51 CA         82.0010   -1.6940   19.2570 C.3       2 GLP5        0.0000 
     52 CA         88.4072    1.3015   23.7085 C.3       1 GLC5        0.0000 
     53 CA         89.7460    2.6780   23.9070 C.3       2 GLP5        0.0000 
     54 CA         82.8280   -4.7797   24.0078 C.3       1 GLC5        0.0000 
     55 CA         83.6508   -2.5463   24.7310 C.3       1 GLC5        0.0000 
     56 CA         83.3930   -3.1400   26.7760 C.3       2 GLP5        0.0000 
     57 CA         82.9551   -1.9975   20.9449 C.3       1 GLC5        0.0000 
     58 CA         85.8834   -2.2473   21.0811 C.3       1 GLC5        0.0000 
     59 CA         82.9560    1.0225   21.8357 C.3       1 GLC5        0.0000 
     60 CA         82.8605    1.1130   24.1822 C.3       1 GLC5        0.0000 
     61 CA         84.2160    2.0530   25.4420 C.3       2 GLP5        0.0000 
     62 CA         79.8195   -0.7345   23.0418 C.3       1 GLC5        0.0000 
     63 CA         78.1340   -1.6420   23.1610 C.3       2 GLP5        0.0000 
@<TRIPOS>BOND
@<TRIPOS>SUBSTRUCTURE
     1 GLC5        1 GROUP        1 X    GLC  0     ROOT GLC X 6
     2 GLP5        3 GROUP        1 Y    GLP  0     ROOT GLP Y 13
     3 GLL5        2 GROUP        1 Z    GLL  0     ROOT GLL Z 20
@<TRIPOS>SET

