#    Name: 3u8n_09S_17_ligand
#    Modification time : Mon Mar 24 21:54:49 2014

@<TRIPOS>MOLECULE
3u8n_09S_17_ligand
   34    35     1     0     0
SMALL
NO_CHARGES


@<TRIPOS>ATOM
      1 C1         88.1280   -2.7120   23.1810 C.3       1 09S211      0.0000 
      2 C2         88.9760   -2.2730   24.3820 C.3       1 09S211      0.0000 
      3 N1         88.1110   -1.6520   25.4070 N.4       1 09S211      0.0000 
      4 C3         87.9490   -0.1780   25.2790 C.3       1 09S211      0.0000 
      5 C4         86.9350    0.2290   24.2070 C.3       1 09S211      0.0000 
      6 C5         87.2020   -0.3790   22.8130 C.3       1 09S211      0.0000 
      7 N2         86.9890   -1.8310   22.8410 N.3       1 09S211      0.0000 
      8 C6         83.2770   -3.6580   22.3910 C.ar      1 09S211      0.0000 
      9 N3         84.4160   -4.3650   22.3400 N.ar      1 09S211      0.0000 
     10 C7         85.5980   -3.7640   22.4880 C.ar      1 09S211      0.0000 
     11 C8         85.7470   -2.3840   22.7090 C.ar      1 09S211      0.0000 
     12 C9         84.5430   -1.6410   22.7680 C.ar      1 09S211      0.0000 
     13 C10        83.2740   -2.2640   22.6040 C.ar      1 09S211      0.0000 
     14 BR1        81.8090   -4.5790   22.1780 Br        1 09S211      0.0000 
     15 O1         82.0600   -1.5900   22.6750 O.3       1 09S211      0.0000 
     16 C11        82.1350   -0.1790   22.6790 C.3       1 09S211      0.0000 
     17 C12        80.8750    0.5250   23.1660 C.3       1 09S211      0.0000 
     18 H          87.7612   -3.7455   23.3834 H         1 09S211      0.0000 
     19 H          88.8078   -2.8097   22.3023 H         1 09S211      0.0000 
     20 H          89.7270   -1.5651   24.0324 H         1 09S211      0.0000 
     21 H          89.4812   -3.1502   24.7853 H         1 09S211      0.0000 
     22 H          88.9188    0.2877   25.0329 H         1 09S211      0.0000 
     23 H          87.6247    0.2505   26.2429 H         1 09S211      0.0000 
     24 H          86.9296    1.3274   24.1150 H         1 09S211      0.0000 
     25 H          85.9260   -0.0719   24.5331 H         1 09S211      0.0000 
     26 H          88.2297   -0.1393   22.5325 H         1 09S211      0.0000 
     27 H          86.5280    0.1020   22.1013 H         1 09S211      0.0000 
     28 H          86.4918   -4.3335   22.4411 H         1 09S211      0.0000 
     29 H          84.5834   -0.6252   22.9334 H         1 09S211      0.0000 
     30 H          82.3604    0.2209   21.6577 H         1 09S211      0.0000 
     31 H          82.9808    0.1833   23.3172 H         1 09S211      0.0000 
     32 H          80.6458    0.2687   24.1050 H         1 09S211      0.0000 
     33 H          80.9756    1.5198   23.1499 H         1 09S211      0.0000 
     34 H          80.0820    0.3014   22.5993 H         1 09S211      0.0000 
@<TRIPOS>BOND
     1    2    1 1    
     2    7    1 1    
     3   18    1 1    
     4   19    1 1    
     5    3    2 1    
     6   20    2 1    
     7   21    2 1    
     8    4    3 1    
     9    5    4 1    
    10   22    4 1    
    11   23    4 1    
    12    6    5 1    
    13   24    5 1    
    14   25    5 1    
    15    7    6 1    
    16   26    6 1    
    17   27    6 1    
    18   11    7 1    
    19    9    8 ar   
    20   13    8 ar   
    21   14    8 1    
    22   10    9 ar   
    23   11   10 ar   
    24   28   10 1    
    25   12   11 ar   
    26   13   12 ar   
    27   29   12 1    
    28   15   13 1    
    29   16   15 1    
    30   17   16 1    
    31   30   16 1    
    32   31   16 1    
    33   32   17 1    
    34   33   17 1    
    35   34   17 1    
@<TRIPOS>SUBSTRUCTURE
     1 09S211      1 GROUP   
@<TRIPOS>SET

