#    Name: 1GLL_1_CAVITY_N1_ALL.mol2
#    Modification time : Tue Mar 11 02:05:10 2014

@<TRIPOS>MOLECULE
1GLL_1_CAVITY_N1_ALL.mol2
  118     0     7     0     0
SMALL
NO_CHARGES


@<TRIPOS>ATOM
      1 OG         39.3422   11.0939   33.7819 O.2       1 SER1        0.0000 
      2 N          31.1350   12.8811   38.6755 N.2       2 ALA2        0.0000 
      3 O          31.5433   13.4040   37.3302 O.2       2 ALA2        0.0000 
      4 O          31.9517   13.9269   35.9848 O.2       2 ALA2        0.0000 
      5 O          32.3600   14.4498   34.6395 O.2       2 ALA2        0.0000 
      6 CA         32.7683   14.9727   33.2942 C.3       6 GLY6        0.0000 
      7 N          32.2720   11.9033   38.6405 N.2       2 ALA2        0.0000 
      8 DU         32.6803   12.4262   37.2952 H         7 CUB7        0.0000 
      9 DU         33.0886   12.9491   35.9499 H         7 CUB7        0.0000 
     10 DU         33.4969   13.4720   34.6046 H         7 CUB7        0.0000 
     11 CA         33.9052   13.9949   33.2593 C.3       6 GLY6        0.0000 
     12 O          34.3136   14.5178   31.9139 O.2       2 ALA2        0.0000 
     13 O          33.4090   10.9255   38.6055 O.2       2 ALA2        0.0000 
     14 O          33.8173   11.4484   37.2602 O.2       2 ALA2        0.0000 
     15 DU         34.2256   11.9713   35.9149 H         7 CUB7        0.0000 
     16 DU         34.6339   12.4942   34.5696 H         7 CUB7        0.0000 
     17 DU         35.0422   13.0171   33.2243 H         7 CUB7        0.0000 
     18 OG         35.4505   13.5400   31.8790 O.2       1 SER1        0.0000 
     19 O          34.9542   10.4706   37.2252 O.2       2 ALA2        0.0000 
     20 O          35.3625   10.9935   35.8799 O.2       2 ALA2        0.0000 
     21 DU         35.7709   11.5164   34.5346 H         7 CUB7        0.0000 
     22 DU         36.1792   12.0393   33.1893 H         7 CUB7        0.0000 
     23 OG         36.5875   12.5622   31.8440 O.2       1 SER1        0.0000 
     24 OG         36.9958   13.0851   30.4987 O.2       1 SER1        0.0000 
     25 O          36.4995   10.0157   35.8449 O.2       2 ALA2        0.0000 
     26 OG         36.9078   10.5386   34.4996 O.2       1 SER1        0.0000 
     27 OG         37.3161   11.0615   33.1543 O.2       1 SER1        0.0000 
     28 CA         30.3339   14.4174   34.0120 C.3       6 GLY6        0.0000 
     29 N          30.2459   11.8709   38.0130 N.2       2 ALA2        0.0000 
     30 CA         30.6542   12.3938   36.6676 C.3       6 GLY6        0.0000 
     31 CA         31.0625   12.9167   35.3223 C.3       6 GLY6        0.0000 
     32 CA         31.4708   13.4396   33.9770 C.3       6 GLY6        0.0000 
     33 N          31.3828   10.8931   37.9780 N.2       2 ALA2        0.0000 
     34 DU         31.7912   11.4160   36.6327 H         7 CUB7        0.0000 
     35 DU         32.1995   11.9389   35.2874 H         7 CUB7        0.0000 
     36 OD1        32.6078   12.4618   33.9421 O.3       3 ASP3        0.0000 
     37 CA         33.0161   12.9847   32.5967 C.3       6 GLY6        0.0000 
     38 O          33.4244   13.5076   31.2514 O.2       2 ALA2        0.0000 
     39 O          32.5198    9.9153   37.9430 O.2       2 ALA2        0.0000 
     40 O          32.9281   10.4382   36.5977 O.2       2 ALA2        0.0000 
     41 OD1        33.3364   10.9611   35.2524 O.3       3 ASP3        0.0000 
     42 OD1        33.7447   11.4840   33.9071 O.3       3 ASP3        0.0000 
     43 OD1        34.1531   12.0069   32.5618 O.3       3 ASP3        0.0000 
     44 OG         34.5614   12.5298   31.2165 O.2       1 SER1        0.0000 
     45 O          34.0651    9.4604   36.5627 O.2       2 ALA2        0.0000 
     46 NZ         34.4734    9.9833   35.2174 N.2       4 LYS4        0.0000 
     47 OD1        34.8817   10.5062   33.8721 O.3       3 ASP3        0.0000 
     48 OD1        35.2900   11.0291   32.5268 O.3       3 ASP3        0.0000 
     49 OG         35.6983   11.5520   31.1815 O.2       1 SER1        0.0000 
     50 OG         36.1066   12.0749   29.8362 O.2       1 SER1        0.0000 
     51 O          35.6104    9.0055   35.1824 O.2       2 ALA2        0.0000 
     52 OG         36.0187    9.5284   33.8371 O.2       1 SER1        0.0000 
     53 OG         36.4270   10.0513   32.4918 O.2       1 SER1        0.0000 
     54 OG         37.1556    8.5506   33.8021 O.2       1 SER1        0.0000 
     55 OG         37.5639    9.0735   32.4568 O.2       1 SER1        0.0000 
     56 NZ         28.6281   12.3614   36.0401 N.2       4 LYS4        0.0000 
     57 CA         29.0364   12.8843   34.6948 C.3       6 GLY6        0.0000 
     58 CA         29.8530   13.9301   32.0042 C.3       6 GLY6        0.0000 
     59 O          29.3567   10.8607   37.3505 O.2       2 ALA2        0.0000 
     60 OG         29.7650   11.3836   36.0051 O.2       1 SER1        0.0000 
     61 CA         30.1733   11.9065   34.6598 C.3       6 GLY6        0.0000 
     62 CA         30.5817   12.4294   33.3145 C.3       6 GLY6        0.0000 
     63 CA         30.9900   12.9523   31.9692 C.3       6 GLY6        0.0000 
     64 O          31.3983   13.4752   30.6239 O.2       2 ALA2        0.0000 
     65 CA         30.4937    9.8829   37.3155 C.3       6 GLY6        0.0000 
     66 CA         30.9020   10.4058   35.9702 C.3       6 GLY6        0.0000 
     67 OD1        31.3103   10.9287   34.6249 O.3       3 ASP3        0.0000 
     68 OD1        31.7186   11.4516   33.2795 O.3       3 ASP3        0.0000 
     69 OD1        32.1269   11.9745   31.9342 O.3       3 ASP3        0.0000 
     70 O          32.5352   12.4974   30.5889 O.2       2 ALA2        0.0000 
     71 N          29.2117   10.9320   30.6442 N.2       2 ALA2        0.0000 
     72 CZ         29.6200   11.4549   29.2989 C.ar      5 PHE5        0.0000 
     73 CZ         30.0283   11.9778   27.9536 C.ar      5 PHE5        0.0000 
     74 NZ         30.7569   10.4771   29.2639 N.2       4 LYS4        0.0000 
     75 OG         31.1652   11.0000   27.9186 O.2       1 SER1        0.0000 
     76 NZ         31.8939    9.4993   29.2289 N.2       4 LYS4        0.0000 
     77 CA         32.9133   14.9015   40.0005 C.3       6 GLY6        0.0000 
     78 CA         33.3217   15.4244   38.6552 C.3       6 GLY6        0.0000 
     79 NZ         33.6420   13.4008   41.3108 N.2       4 LYS4        0.0000 
     80 N          32.0242   13.8913   39.3380 N.2       2 ALA2        0.0000 
     81 O          32.4325   14.4142   37.9927 O.2       2 ALA2        0.0000 
     82 N          33.1612   12.9135   39.3030 N.2       2 ALA2        0.0000 
     83 DU         33.5695   13.4364   37.9577 H         7 CUB7        0.0000 
     84 O          33.9778   13.9593   36.6124 O.2       2 ALA2        0.0000 
     85 CA         34.3861   14.4822   35.2671 C.3       6 GLY6        0.0000 
     86 DU         34.7944   15.0051   33.9218 H         7 CUB7        0.0000 
     87 NZ         34.2981   11.9357   39.2680 N.2       4 LYS4        0.0000 
     88 DU         34.7064   12.4586   37.9227 H         7 CUB7        0.0000 
     89 DU         36.3397   14.5502   32.5415 H         7 CUB7        0.0000 
     90 NZ         35.4351   10.9579   39.2330 N.2       4 LYS4        0.0000 
     91 O          35.8434   11.4808   37.8877 O.2       2 ALA2        0.0000 
     92 DU         36.2517   12.0037   36.5424 H         7 CUB7        0.0000 
     93 DU         36.6600   12.5266   35.1971 H         7 CUB7        0.0000 
     94 OG         37.4766   13.5724   32.5065 O.2       1 SER1        0.0000 
     95 OG         37.8849   14.0953   31.1612 O.2       1 SER1        0.0000 
     96 O          37.3887   11.0259   36.5074 O.2       2 ALA2        0.0000 
     97 OG         38.6136   12.5946   32.4715 O.2       1 SER1        0.0000 
     98 OD1        32.0390    9.4280   35.9352 O.3       3 ASP3        0.0000 
     99 OD1        33.6722   11.5196   30.5539 O.3       3 ASP3        0.0000 
    100 OD1        33.5842    8.9731   34.5549 O.3       3 ASP3        0.0000 
    101 O          34.8092   10.5418   30.5190 O.2       2 ALA2        0.0000 
    102 OD1        35.1295    8.5182   33.1746 O.3       3 ASP3        0.0000 
    103 CA         35.5378    9.0411   31.8293 C.3       6 GLY6        0.0000 
    104 NZ         27.7389   11.3513   35.3776 N.2       4 LYS4        0.0000 
    105 CA         28.1472   11.8742   34.0323 C.3       6 GLY6        0.0000 
    106 CA         28.9639   12.9199   31.3417 C.3       6 GLY6        0.0000 
    107 N          29.3722   13.4428   29.9964 N.2       2 ALA2        0.0000 
    108 OG         29.2842   10.8964   33.9973 O.2       1 SER1        0.0000 
    109 OD1        29.6925   11.4193   32.6520 O.3       3 ASP3        0.0000 
    110 OD1        30.1008   11.9421   31.3067 O.3       3 ASP3        0.0000 
    111 O          30.5091   12.4650   29.9614 O.2       2 ALA2        0.0000 
    112 O          30.9174   12.9879   28.6161 O.2       2 ALA2        0.0000 
    113 OD1        30.4212    9.9186   33.9623 O.3       3 ASP3        0.0000 
    114 OD1        31.2378   10.9643   31.2717 O.3       3 ASP3        0.0000 
    115 OD1        31.6461   11.4872   29.9264 O.3       3 ASP3        0.0000 
    116 CA         32.0544   12.0101   28.5811 C.3       6 GLY6        0.0000 
    117 CA         31.1498    8.4179   35.2727 C.3       6 GLY6        0.0000 
    118 OD1        32.7831   10.5094   29.8914 O.3       3 ASP3        0.0000 
@<TRIPOS>BOND
@<TRIPOS>SUBSTRUCTURE
     1 SER1        1 GROUP   
     2 ALA2        2 GROUP   
     3 ASP3       36 GROUP   
     4 LYS4       46 GROUP   
     5 PHE5       72 GROUP   
     6 GLY6        6 GROUP   
     7 CUB7        8 GROUP   
@<TRIPOS>SET

