#    Name: 1gll_ACP_1_INTS_M
#    Modification time : Tue Mar 25 03:20:12 2014

@<TRIPOS>MOLECULE
1gll_ACP_1_INTS_M
   44     0     6     0     0
SMALL
NO_CHARGES


@<TRIPOS>ATOM
      1 N          34.7365    9.2260   29.3425 N.am      1 SEC2        0.0000 
      2 N          33.8440   10.3540   30.1370 N.am      5 SEL2        0.0000 
      3 N          35.6290    8.0980   28.5480 N.am      3 SEP2        0.0000 
      4 N          33.8875   10.0725   28.5165 N.am      1 SEC2        0.0000 
      5 N          33.9310    9.7910   26.8960 N.am      3 SEP2        0.0000 
      6 N          37.8505   10.9995   29.7490 N.am      1 SEC2        0.0000 
      7 N          36.5160   10.6430   29.4370 N.am      5 SEL2        0.0000 
      8 N          39.1850   11.3560   30.0610 N.am      3 SEP2        0.0000 
      9 N          32.4405   14.3030   30.1620 N.am      1 SEC2        0.0000 
     10 N          32.5560   13.0070   30.6640 N.am      5 SEL2        0.0000 
     11 N          32.3250   15.5990   29.6600 N.am      3 SEP2        0.0000 
     12 CA         34.3780   13.7160   29.3460 C.3       2 GLC5        0.0000 
     13 CA         35.1740   12.7720   30.9170 C.3       6 GLL5        0.0000 
     14 CA         33.5820   14.6600   27.7750 C.3       4 GLP5        0.0000 
     15 N          32.2390   15.5090   35.7035 N.am      1 SEC2        0.0000 
     16 N          33.0310   14.3640   35.0370 N.am      5 SEL2        0.0000 
     17 N          31.4470   16.6540   36.3700 N.am      3 SEP2        0.0000 
     18 CA         33.1415   16.9470   32.1240 C.3       2 GLC5        0.0000 
     19 CA         35.1520   17.7990   32.5290 C.3       6 GLL5        0.0000 
     20 CA         31.1310   16.0950   31.7190 C.3       4 GLP5        0.0000 
     21 CA         36.7435   21.9025   31.4850 C.3       2 GLC5        0.0000 
     22 CA         36.4010   19.8500   32.0560 C.3       6 GLL5        0.0000 
     23 CA         37.0860   23.9550   30.9140 C.3       4 GLP5        0.0000 
     24 CA         37.4610   21.4990   33.0660 C.3       2 GLC5        0.0000 
     25 CA         38.5210   23.1480   34.0760 C.3       4 GLP5        0.0000 
     26 CA         37.0225   24.5165   37.2235 C.3       2 GLC5        0.0000 
     27 CA         35.1440   23.4360   36.7180 C.3       6 GLL5        0.0000 
     28 CA         38.9010   25.5970   37.7290 C.3       4 GLP5        0.0000 
     29 CA         33.3600   24.5805   37.0885 C.3       2 GLC5        0.0000 
     30 CA         31.5760   25.7250   37.4590 C.3       4 GLP5        0.0000 
     31 CA         32.5015   22.9085   34.8165 C.3       2 GLC5        0.0000 
     32 CA         34.1180   24.3070   34.8640 C.3       6 GLL5        0.0000 
     33 CA         30.8850   21.5100   34.7690 C.3       4 GLP5        0.0000 
     34 CA         32.8470   25.0160   36.1615 C.3       2 GLC5        0.0000 
     35 CA         37.4980   19.4582   30.0360 C.3       2 GLC5        0.0000 
     36 CA         36.1430   18.4130   31.5560 C.3       6 GLL5        0.0000 
     37 CA         38.7240   19.7850   28.2660 C.3       4 GLP5        0.0000 
     38 CA         33.2820   21.5960   35.6645 C.3       2 GLC5        0.0000 
     39 CA         35.3740   22.2730   35.9260 C.3       6 GLL5        0.0000 
     40 CA         31.4140   20.9120   36.0560 C.3       4 GLP5        0.0000 
     41 CA         36.8068   22.8594   34.7735 C.3       2 GLC5        0.0000 
     42 CA         34.9260   22.2870   34.6200 C.3       6 GLL5        0.0000 
     43 CA         34.6540   19.6494   30.8286 C.3       2 GLC5        0.0000 
     44 CA         33.5840   20.2580   29.3890 C.3       4 GLP5        0.0000 
@<TRIPOS>BOND
@<TRIPOS>SUBSTRUCTURE
     1 SEC2        1 GROUP        1 X    SEC  0     ROOT SEC X 2
     2 GLC5       12 GROUP        1 X    GLC  0     **** GLC X 6
     3 SEP2        3 GROUP        1 Y    SEP  0     ROOT SEP Y 9
     4 GLP5       14 GROUP        1 Y    GLP  0     **** GLP Y 13
     5 SEL2        2 GROUP        1 Z    SEL  0     ROOT SEL Z 16
     6 GLL5       13 GROUP        1 Z    GLL  0     **** GLL Z 20
@<TRIPOS>SET

