#    Name: 1gll_ACP_1_ligand
#    Modification time : Tue Mar 25 03:20:12 2014

@<TRIPOS>MOLECULE
1gll_ACP_1_ligand
   45    47     1     0     0
SMALL
NO_CHARGES


@<TRIPOS>ATOM
      1 PG         35.3120   10.8370   30.6520 P.3       1 ACP601      0.0000 
      2 O1G        33.8440   10.3540   30.1370 O.co2     1 ACP601      0.0000 
      3 O2G        35.7430   10.1160   32.2000 O.co2     1 ACP601      0.0000 
      4 O3G        36.5160   10.6430   29.4370 O.co2     1 ACP601      0.0000 
      5 PB         33.6530   13.0690   31.7830 P.3       1 ACP601      0.0000 
      6 O1B        32.5560   13.0070   30.6640 O.co2     1 ACP601      0.0000 
      7 O2B        33.5030   11.9310   32.8390 O.co2     1 ACP601      0.0000 
      8 C3B        35.1740   12.7720   30.9170 C.3       1 ACP601      0.0000 
      9 PA         34.1490   14.6420   34.0940 P.3       1 ACP601      0.0000 
     10 O1A        35.2860   13.6800   34.3470 O.co2     1 ACP601      0.0000 
     11 O2A        33.0310   14.3640   35.0370 O.co2     1 ACP601      0.0000 
     12 O3A        33.6140   14.4860   32.5740 O.3       1 ACP601      0.0000 
     13 O5'        34.6750   16.1650   34.2210 O.3       1 ACP601      0.0000 
     14 C5'        35.6390   16.5880   33.2770 C.3       1 ACP601      0.0000 
     15 C4'        35.1520   17.7990   32.5290 C.3       1 ACP601      0.0000 
     16 O4'        34.8530   18.8370   33.4680 O.3       1 ACP601      0.0000 
     17 C3'        36.1430   18.4130   31.5560 C.3       1 ACP601      0.0000 
     18 O3'        35.6130   18.3720   30.2280 O.3       1 ACP601      0.0000 
     19 C2'        36.4010   19.8500   32.0560 C.3       1 ACP601      0.0000 
     20 O2'        36.4270   20.7620   30.9840 O.3       1 ACP601      0.0000 
     21 C1'        35.2000   20.1010   32.9320 C.3       1 ACP601      0.0000 
     22 N9         35.3270   21.0900   34.0340 N.pl3     1 ACP601      0.0000 
     23 C8         35.9170   20.4080   35.0520 C.2       1 ACP601      0.0000 
     24 N7         35.9970   21.0760   36.1840 N.2       1 ACP601      0.0000 
     25 C5         35.3740   22.2730   35.9260 C.ar      1 ACP601      0.0000 
     26 C6         35.1440   23.4360   36.7180 C.ar      1 ACP601      0.0000 
     27 N6         35.5540   23.6110   37.9880 N.pl3     1 ACP601      0.0000 
     28 N1         34.4730   24.4350   36.1390 N.ar      1 ACP601      0.0000 
     29 C2         34.1180   24.3070   34.8640 C.ar      1 ACP601      0.0000 
     30 N3         34.2880   23.2850   34.0350 N.ar      1 ACP601      0.0000 
     31 C4         34.9260   22.2870   34.6200 C.ar      1 ACP601      0.0000 
     32 H          35.1024   13.1177   29.9752 H         1 ACP601      0.0000 
     33 H          35.9536   12.9665   31.5220 H         1 ACP601      0.0000 
     34 H          35.8602   15.7975   32.5390 H         1 ACP601      0.0000 
     35 H          36.5961   16.8484   33.7614 H         1 ACP601      0.0000 
     36 H          34.2503   17.5483   31.9792 H         1 ACP601      0.0000 
     37 H          37.0677   17.8666   31.6455 H         1 ACP601      0.0000 
     38 H          37.2643   19.8361   32.6545 H         1 ACP601      0.0000 
     39 H          34.3716   20.4180   32.2633 H         1 ACP601      0.0000 
     40 H          36.2589   19.4662   34.9275 H         1 ACP601      0.0000 
     41 H          36.0981   22.8696   38.3808 H         1 ACP601      0.0000 
     42 H          35.2780   24.4668   38.4255 H         1 ACP601      0.0000 
     43 H          33.5993   25.1925   34.4264 H         1 ACP601      0.0000 
     44 H          36.2455   17.7918   29.7148 H         1 ACP601      0.0000 
     45 H          36.1902   20.2202   30.1775 H         1 ACP601      0.0000 
@<TRIPOS>BOND
     1    2    1 ar   
     2    3    1 ar   
     3    4    1 ar   
     4    8    1 1    
     5    6    5 ar   
     6    7    5 ar   
     7    8    5 1    
     8   12    5 1    
     9   32    8 1    
    10   33    8 1    
    11   10    9 ar   
    12   11    9 ar   
    13   12    9 1    
    14   13    9 1    
    15   14   13 1    
    16   15   14 1    
    17   34   14 1    
    18   35   14 1    
    19   16   15 1    
    20   17   15 1    
    21   36   15 1    
    22   21   16 1    
    23   18   17 1    
    24   19   17 1    
    25   37   17 1    
    26   44   18 1    
    27   20   19 1    
    28   21   19 1    
    29   38   19 1    
    30   45   20 1    
    31   22   21 1    
    32   39   21 1    
    33   23   22 1    
    34   31   22 1    
    35   24   23 2    
    36   40   23 1    
    37   25   24 1    
    38   26   25 ar   
    39   31   25 ar   
    40   27   26 1    
    41   28   26 ar   
    42   41   27 1    
    43   42   27 1    
    44   29   28 ar   
    45   30   29 ar   
    46   43   29 1    
    47   31   30 ar   
@<TRIPOS>SUBSTRUCTURE
     1 ACP601      1 GROUP   
@<TRIPOS>SET

