#    Name: 4mk8_28Q_2_INTS_M
#    Modification time : Tue Mar 25 12:12:24 2014

@<TRIPOS>MOLECULE
4mk8_28Q_2_INTS_M
   67     0     9     0     0
SMALL
NO_CHARGES


@<TRIPOS>ATOM
      1 CA         -9.8505    6.6535   -8.5500 C.3       3 GLC5        0.0000 
      2 CA        -10.4530    7.6340   -9.9920 C.3       9 GLL5        0.0000 
      3 CA         -9.2480    5.6730   -7.1080 C.3       6 GLP5        0.0000 
      4 CA        -10.0825    7.6175   -7.6320 C.3       3 GLC5        0.0000 
      5 CA        -11.1000    8.2770   -8.9630 C.3       9 GLL5        0.0000 
      6 CA         -9.0650    6.9580   -6.3010 C.3       6 GLP5        0.0000 
      7 CA        -12.8500    7.7980   -6.2490 C.3       3 GLC5        0.0000 
      8 CA        -12.1590    7.6590   -8.2530 C.3       9 GLL5        0.0000 
      9 CA        -13.5410    7.9370   -4.2450 C.3       6 GLP5        0.0000 
     10 CA        -13.3175    5.4180   -7.1770 C.3       3 GLC5        0.0000 
     11 CA        -12.5480    6.4120   -8.6150 C.3       9 GLL5        0.0000 
     12 CA        -14.0870    4.4240   -5.7390 C.3       6 GLP5        0.0000 
     13 O         -12.5530    4.5160   -9.8280 O.2       1 ALC1        0.0000 
     14 O         -11.9440    5.7690   -9.6530 O.2       7 ALL1        0.0000 
     15 O         -13.1620    3.2630  -10.0030 O.2       4 ALP1        0.0000 
     16 N         -10.1105    4.4545  -12.0755 N.am      2 SEC2        0.0000 
     17 N         -10.4320    5.6350  -11.3590 N.am      8 SEL2        0.0000 
     18 N          -9.7890    3.2740  -12.7920 N.am      5 SEP2        0.0000 
     19 CA         -7.3270    7.2865  -15.6340 C.3       3 GLC5        0.0000 
     20 CA         -7.9850    8.6610  -14.2090 C.3       9 GLL5        0.0000 
     21 CA         -6.6690    5.9120  -17.0590 C.3       6 GLP5        0.0000 
     22 CA         -7.5170    6.8515  -13.5660 C.3       3 GLC5        0.0000 
     23 CA         -7.0490    5.0420  -12.9230 C.3       6 GLP5        0.0000 
     24 CA         -6.7210    9.8230  -17.5000 C.3       3 GLC5        0.0000 
     25 CA         -8.7880   10.4300  -17.1750 C.3       9 GLL5        0.0000 
     26 CA         -4.6540    9.2160  -17.8250 C.3       6 GLP5        0.0000 
     27 CA         -9.0330   12.5915  -17.1845 C.3       3 GLC5        0.0000 
     28 CA         -9.2780   14.7530  -17.1940 C.3       6 GLP5        0.0000 
     29 CA         -7.9455    9.0515  -20.7585 C.3       3 GLC5        0.0000 
     30 CA         -9.4910    9.2840  -19.1690 C.3       9 GLL5        0.0000 
     31 CA         -6.4000    8.8190  -22.3480 C.3       6 GLP5        0.0000 
     32 CA        -11.2035    6.5780  -19.0940 C.3       3 GLC5        0.0000 
     33 CA         -9.8550    8.1900  -18.3900 C.3       9 GLL5        0.0000 
     34 CA        -12.5520    4.9660  -19.7980 C.3       6 GLP5        0.0000 
     35 O          -9.7070   10.5895  -21.1140 O.2       1 ALC1        0.0000 
     36 O          -9.6880    9.2960  -20.5850 O.2       7 ALL1        0.0000 
     37 O          -9.7260   11.8830  -21.6430 O.2       4 ALP1        0.0000 
     38 N         -10.2295    8.6525  -24.2265 N.am      2 SEC2        0.0000 
     39 N          -9.8720    8.5040  -22.8710 N.am      8 SEL2        0.0000 
     40 N         -10.5870    8.8010  -25.5820 N.am      5 SEP2        0.0000 
     41 CA        -12.2360    6.4775  -20.5910 C.3       3 GLC5        0.0000 
     42 CA        -11.9200    7.9890  -21.3840 C.3       9 GLL5        0.0000 
     43 CA         -4.9680    8.8840   -7.0525 C.3       3 GLC5        0.0000 
     44 CA         -6.4380    9.9560   -8.0780 C.3       9 GLL5        0.0000 
     45 CA         -3.4980    7.8120   -6.0270 C.3       6 GLP5        0.0000 
     46 CA         -7.7515    8.4570   -7.1895 C.3       3 GLC5        0.0000 
     47 CA         -7.8360   11.0470   -7.6000 C.3       3 GLC5        0.0000 
     48 CA         -9.2340   12.1380   -7.1220 C.3       6 GLP5        0.0000 
     49 CA         -3.4915    8.3710   -8.2985 C.3       3 GLC5        0.0000 
     50 CA         -4.7040    9.2410   -9.6860 C.3       9 GLL5        0.0000 
     51 CA         -2.2790    7.5010   -6.9110 C.3       6 GLP5        0.0000 
     52 CA         -3.2190    9.9705  -10.4550 C.3       3 GLC5        0.0000 
     53 CA         -1.7340   10.7000  -11.2240 C.3       6 GLP5        0.0000 
     54 CA         -3.7630   11.0960  -10.5555 C.3       3 GLC5        0.0000 
     55 CA         -5.7920   11.4920   -9.8870 C.3       9 GLL5        0.0000 
     56 CA         -6.3745   13.3685  -10.0300 C.3       3 GLC5        0.0000 
     57 CA         -6.9570   15.2450  -10.1730 C.3       6 GLP5        0.0000 
     58 CA         -4.0530   11.5020   -8.8295 C.3       3 GLC5        0.0000 
     59 CA         -2.3140   11.5120   -7.7720 C.3       6 GLP5        0.0000 
     60 CA         -7.5130   11.8150   -8.5045 C.3       3 GLC5        0.0000 
     61 CA         -7.7535    7.0892   -9.5744 C.3       3 GLC5        0.0000 
     62 CA         -7.1260    9.3940  -10.4930 C.3       9 GLL5        0.0000 
     63 CA         -7.0260    5.5050   -8.7210 C.3       6 GLP5        0.0000 
     64 CA        -10.8008    6.3543   -7.7710 C.3       3 GLC5        0.0000 
     65 CA         -7.5485   11.6445  -18.1508 C.3       3 GLC5        0.0000 
     66 CA         -6.2300   12.8720  -18.4390 C.3       6 GLP5        0.0000 
     67 CA         -3.8926   10.5619   -8.5134 C.3       3 GLC5        0.0000 
@<TRIPOS>BOND
@<TRIPOS>SUBSTRUCTURE
     1 ALC1       13 GROUP        1 X    ALC  0     ROOT ALC X 1
     2 SEC2       16 GROUP        1 X    SEC  0     **** SEC X 2
     3 GLC5        1 GROUP        1 X    GLC  0     **** GLC X 6
     4 ALP1       15 GROUP        1 Y    ALP  0     ROOT ALP Y 8
     5 SEP2       18 GROUP        1 Y    SEP  0     **** SEP Y 9
     6 GLP5        3 GROUP        1 Y    GLP  0     **** GLP Y 13
     7 ALL1       14 GROUP        1 Z    ALL  0     ROOT ALL Z 15
     8 SEL2       17 GROUP        1 Z    SEL  0     **** SEL Z 16
     9 GLL5        2 GROUP        1 Z    GLL  0     **** GLL Z 20
@<TRIPOS>SET

