#    Name: 4mk8_28Q_2_ligand
#    Modification time : Tue Mar 25 12:12:24 2014

@<TRIPOS>MOLECULE
4mk8_28Q_2_ligand
   62    64     1     0     0
SMALL
NO_CHARGES


@<TRIPOS>ATOM
      1 C1         -8.2560    8.8200   -9.9020 C.ar      1 28Q604      0.0000 
      2 C2         -7.1260    9.3940  -10.4930 C.ar      1 28Q604      0.0000 
      3 C3         -7.0520    9.3420  -11.9190 C.ar      1 28Q604      0.0000 
      4 C4         -8.0560    8.7490  -12.6950 C.ar      1 28Q604      0.0000 
      5 C5         -9.1640    8.2170  -12.0450 C.ar      1 28Q604      0.0000 
      6 C6         -9.2710    8.2400  -10.6580 C.ar      1 28Q604      0.0000 
      7 C7        -10.4530    7.6340   -9.9920 C.2       1 28Q604      0.0000 
      8 C8        -11.1000    8.2770   -8.9630 C.2       1 28Q604      0.0000 
      9 C9        -12.1590    7.6590   -8.2530 C.2       1 28Q604      0.0000 
     10 C10       -12.5480    6.4120   -8.6150 C.2       1 28Q604      0.0000 
     11 N11       -11.9440    5.7690   -9.6530 N.am      1 28Q604      0.0000 
     12 C13       -10.8890    6.2910  -10.4140 C.2       1 28Q604      0.0000 
     13 O14       -10.4320    5.6350  -11.3590 O.2       1 28Q604      0.0000 
     14 C15        -7.9850    8.6610  -14.2090 C.3       1 28Q604      0.0000 
     15 C16        -9.1490    9.4500  -14.8830 C.3       1 28Q604      0.0000 
     16 C17        -9.1740    9.3500  -16.3880 C.ar      1 28Q604      0.0000 
     17 C18        -8.7880   10.4300  -17.1750 C.ar      1 28Q604      0.0000 
     18 C19        -8.9460   10.4040  -18.5500 C.ar      1 28Q604      0.0000 
     19 C20        -9.4910    9.2840  -19.1690 C.ar      1 28Q604      0.0000 
     20 C21        -9.8550    8.1900  -18.3900 C.ar      1 28Q604      0.0000 
     21 C22        -9.6900    8.2270  -17.0160 C.ar      1 28Q604      0.0000 
     22 N23        -9.6880    9.2960  -20.5850 N.pl3     1 28Q604      0.0000 
     23 S24       -10.1810    8.0770  -21.5410 S.o2      1 28Q604      0.0000 
     24 O25        -9.8720    8.5040  -22.8710 O.2       1 28Q604      0.0000 
     25 O26        -9.6180    6.8530  -21.0660 O.2       1 28Q604      0.0000 
     26 C27       -11.9200    7.9890  -21.3840 C.3       1 28Q604      0.0000 
     27 O28        -5.9200    9.8130  -12.5530 O.3       1 28Q604      0.0000 
     28 C29        -6.0140   11.0760  -13.2180 C.3       1 28Q604      0.0000 
     29 C30        -6.0390   10.0090   -9.5690 C.3       1 28Q604      0.0000 
     30 C31        -6.4380    9.9560   -8.0780 C.3       1 28Q604      0.0000 
     31 C32        -4.7040    9.2410   -9.6860 C.3       1 28Q604      0.0000 
     32 C33        -5.7920   11.4920   -9.8870 C.3       1 28Q604      0.0000 
     33 H          -8.3383    8.8280   -8.8641 H         1 28Q604      0.0000 
     34 H          -9.9278    7.7936  -12.6061 H         1 28Q604      0.0000 
     35 H         -10.8197    9.2367   -8.6866 H         1 28Q604      0.0000 
     36 H         -12.6034    8.1676   -7.4862 H         1 28Q604      0.0000 
     37 H         -13.3181    5.9369   -8.0949 H         1 28Q604      0.0000 
     38 H         -12.2879    4.7960   -9.9184 H         1 28Q604      0.0000 
     39 H          -8.0503    7.6201  -14.5239 H         1 28Q604      0.0000 
     40 H          -7.0415    9.0765  -14.5612 H         1 28Q604      0.0000 
     41 H          -9.0614   10.5061  -14.5795 H         1 28Q604      0.0000 
     42 H         -10.0978    9.0732  -14.4671 H         1 28Q604      0.0000 
     43 H          -8.3758   11.2663  -16.7219 H         1 28Q604      0.0000 
     44 H          -8.6603   11.2142  -19.1185 H         1 28Q604      0.0000 
     45 H         -10.2486    7.3506  -18.8405 H         1 28Q604      0.0000 
     46 H          -9.9564    7.4018  -16.4467 H         1 28Q604      0.0000 
     47 H          -9.5106   10.1688  -21.1408 H         1 28Q604      0.0000 
     48 H         -12.1993    7.8140  -20.4399 H         1 28Q604      0.0000 
     49 H         -12.3620    8.8400  -21.6674 H         1 28Q604      0.0000 
     50 H         -12.3069    7.2569  -21.9446 H         1 28Q604      0.0000 
     51 H          -5.1478   11.3366  -13.6444 H         1 28Q604      0.0000 
     52 H          -6.7048   11.0646  -13.9409 H         1 28Q604      0.0000 
     53 H          -6.2626   11.8106  -12.5866 H         1 28Q604      0.0000 
     54 H          -5.7339   10.3552   -7.4907 H         1 28Q604      0.0000 
     55 H          -7.2852   10.4573   -7.9022 H         1 28Q604      0.0000 
     56 H          -6.5827    9.0172   -7.7654 H         1 28Q604      0.0000 
     57 H          -4.3457    9.2591  -10.6194 H         1 28Q604      0.0000 
     58 H          -3.9985    9.6301   -9.0936 H         1 28Q604      0.0000 
     59 H          -4.8048    8.2798   -9.4293 H         1 28Q604      0.0000 
     60 H          -5.0944   11.8886   -9.2903 H         1 28Q604      0.0000 
     61 H          -5.4815   11.6232  -10.8285 H         1 28Q604      0.0000 
     62 H          -6.6210   12.0394   -9.7728 H         1 28Q604      0.0000 
@<TRIPOS>BOND
     1    2    1 ar   
     2    6    1 ar   
     3   33    1 1    
     4    3    2 ar   
     5   29    2 1    
     6    4    3 ar   
     7   27    3 1    
     8    5    4 ar   
     9   14    4 1    
    10    6    5 ar   
    11   34    5 1    
    12    7    6 1    
    13    8    7 2    
    14   12    7 1    
    15    9    8 1    
    16   35    8 1    
    17   10    9 2    
    18   36    9 1    
    19   11   10 1    
    20   37   10 1    
    21   12   11 am   
    22   38   11 1    
    23   13   12 2    
    24   15   14 1    
    25   39   14 1    
    26   40   14 1    
    27   16   15 1    
    28   41   15 1    
    29   42   15 1    
    30   17   16 ar   
    31   21   16 ar   
    32   18   17 ar   
    33   43   17 1    
    34   19   18 ar   
    35   44   18 1    
    36   20   19 ar   
    37   22   19 1    
    38   21   20 ar   
    39   45   20 1    
    40   46   21 1    
    41   23   22 1    
    42   47   22 1    
    43   24   23 2    
    44   25   23 2    
    45   26   23 1    
    46   48   26 1    
    47   49   26 1    
    48   50   26 1    
    49   28   27 1    
    50   51   28 1    
    51   52   28 1    
    52   53   28 1    
    53   30   29 1    
    54   31   29 1    
    55   32   29 1    
    56   54   30 1    
    57   55   30 1    
    58   56   30 1    
    59   57   31 1    
    60   58   31 1    
    61   59   31 1    
    62   60   32 1    
    63   61   32 1    
    64   62   32 1    
@<TRIPOS>SUBSTRUCTURE
     1 28Q604      1 GROUP   
@<TRIPOS>SET

