#    Name: 2rif_AMP_8_INTS_M
#    Modification time : Mon Mar 24 23:59:43 2014

@<TRIPOS>MOLECULE
2rif_AMP_8_INTS_M
   65     0    12     0     0
SMALL
NO_CHARGES


@<TRIPOS>ATOM
      1 N          -2.5350   -6.5340   24.9565 N.am      2 SEC2        0.0000 
      2 N          -3.6110   -7.0290   24.5240 N.am     10 SEL2        0.0000 
      3 N          -1.4590   -6.0390   25.3890 N.am      6 SEP2        0.0000 
      4 N          -3.3360   -7.5965   21.4295 N.am      2 SEC2        0.0000 
      5 N          -3.4240   -8.4090   22.4260 N.am     10 SEL2        0.0000 
      6 N          -3.2480   -6.7840   20.4330 N.am      6 SEP2        0.0000 
      7 N          -2.7810   -9.9130   22.3405 N.am      2 SEC2        0.0000 
      8 N          -2.1380  -11.4170   22.2550 N.am      6 SEP2        0.0000 
      9 NZ         -3.1380  -10.4600   24.5690 N.4       3 LYC4        0.0000 
     10 NZ         -4.1310   -9.5180   24.5950 N.4      11 LYL4        0.0000 
     11 NZ         -1.7170  -11.9280   23.4020 N.4       7 LYP4        0.0000 
     12 N          -4.1870   -9.1540   26.0940 N.am      2 SEC2        0.0000 
     13 N          -4.1310   -9.5180   24.5950 N.am     10 SEL2        0.0000 
     14 N          -4.2430   -8.7900   27.5930 N.am      6 SEP2        0.0000 
     15 N          -3.1380  -10.4600   24.5690 N.am      2 SEC2        0.0000 
     16 N          -2.1450  -11.4020   24.5430 N.am      6 SEP2        0.0000 
     17 CA         -5.7475   -8.8010   20.6430 C.3       4 GLC5        0.0000 
     18 CA         -6.2170   -8.1100   22.2190 C.3      12 GLL5        0.0000 
     19 CA         -5.2780   -9.4920   19.0670 C.3       8 GLP5        0.0000 
     20 CA         -7.1320   -8.9565   20.6535 C.3       4 GLC5        0.0000 
     21 CA         -7.6640   -7.6180   22.2050 C.3      12 GLL5        0.0000 
     22 CA         -6.6000  -10.2950   19.1020 C.3       8 GLP5        0.0000 
     23 CA         -6.5555   -8.0175   20.1090 C.3       4 GLC5        0.0000 
     24 CA         -7.8330   -6.5430   21.1510 C.3      12 GLL5        0.0000 
     25 O          -8.9295   -6.1820   19.4695 O.2       1 ALC1        0.0000 
     26 O          -9.1720   -6.5710   20.6580 O.2       9 ALL1        0.0000 
     27 O          -8.6870   -5.7930   18.2810 O.2       5 ALP1        0.0000 
     28 N          -9.3140   -4.0640   21.0940 N.am      2 SEC2        0.0000 
     29 N          -8.0780   -4.1040   21.3100 N.am     10 SEL2        0.0000 
     30 N         -10.5500   -4.0240   20.8780 N.am      6 SEP2        0.0000 
     31 O          -7.5710   -4.2480   20.0365 O.2       1 ALC1        0.0000 
     32 O          -8.0780   -4.1040   21.3100 O.2       9 ALL1        0.0000 
     33 O          -7.0640   -4.3920   18.7630 O.2       5 ALP1        0.0000 
     34 CA         -8.3210   -6.5645   25.1580 C.3       4 GLC5        0.0000 
     35 CA         -8.1580   -5.5860   23.2810 C.3      12 GLL5        0.0000 
     36 CA         -8.4840   -7.5430   27.0350 C.3       8 GLP5        0.0000 
     37 CA         -5.3335   -3.2895   24.5190 C.3       4 GLC5        0.0000 
     38 CA         -6.9700   -3.4630   26.0460 C.3      12 GLL5        0.0000 
     39 CA         -3.6970   -3.1160   22.9920 C.3       8 GLP5        0.0000 
     40 CA         -8.4750   -2.0450   28.4060 C.3       4 GLC5        0.0000 
     41 CA         -7.2860   -2.3210   26.9260 C.3      12 GLL5        0.0000 
     42 CA         -9.6640   -1.7690   29.8860 C.3       8 GLP5        0.0000 
     43 O          -6.8065   -1.0475   29.1085 O.2       1 ALC1        0.0000 
     44 O          -6.4090   -1.9150   27.8680 O.2       9 ALL1        0.0000 
     45 O          -7.2040   -0.1800   30.3490 O.2       5 ALP1        0.0000 
     46 N          -8.9120   -0.7335   27.6055 N.am      2 SEC2        0.0000 
     47 N          -8.4780   -1.7050   26.7510 N.am     10 SEL2        0.0000 
     48 N          -9.3460    0.2380   28.4600 N.am      6 SEP2        0.0000 
     49 CA         -8.3480   -1.3550   24.5575 C.3       4 GLC5        0.0000 
     50 CA         -9.3640   -2.1030   25.8140 C.3      12 GLL5        0.0000 
     51 CA         -7.3320   -0.6070   23.3010 C.3       8 GLP5        0.0000 
     52 CA        -10.2030   -2.0160   23.9020 C.3       4 GLC5        0.0000 
     53 CA        -11.0420   -1.9290   21.9900 C.3       8 GLP5        0.0000 
     54 CA         -9.3780   -0.1470   26.2135 C.3       4 GLC5        0.0000 
     55 CA         -9.3920    1.8090   26.6130 C.3       8 GLP5        0.0000 
     56 CA        -10.1650   -2.1605   27.5130 C.3       4 GLC5        0.0000 
     57 CA        -10.9660   -2.2180   29.2120 C.3       8 GLP5        0.0000 
     58 CA         -8.2335   -5.6910   26.0420 C.3       4 GLC5        0.0000 
     59 CA         -7.9830   -3.8390   25.0490 C.3      12 GLL5        0.0000 
     60 CA         -5.5232   -6.7615   21.2605 C.3       4 GLC5        0.0000 
     61 CA         -4.1060   -5.6590   20.3090 C.3       8 GLP5        0.0000 
     62 CA         -5.8950   -5.7845   20.9237 C.3       4 GLC5        0.0000 
     63 CA         -7.4625   -4.2510   27.8140 C.3       4 GLC5        0.0000 
     64 CA         -7.7970   -5.6100   29.1420 C.3       8 GLP5        0.0000 
     65 CA         -7.4437   -1.9863   24.5342 C.3       4 GLC5        0.0000 
@<TRIPOS>BOND
@<TRIPOS>SUBSTRUCTURE
     1 ALC1       25 GROUP        1 X    ALC  0     ROOT ALC X 1
     2 SEC2        1 GROUP        1 X    SEC  0     **** SEC X 2
     3 LYC4        9 GROUP        1 X    LYC  0     **** LYC X 4
     4 GLC5       17 GROUP        1 X    GLC  0     **** GLC X 6
     5 ALP1       27 GROUP        1 Y    ALP  0     ROOT ALP Y 8
     6 SEP2        3 GROUP        1 Y    SEP  0     **** SEP Y 9
     7 LYP4       11 GROUP        1 Y    LYP  0     **** LYP Y 11
     8 GLP5       19 GROUP        1 Y    GLP  0     **** GLP Y 13
     9 ALL1       26 GROUP        1 Z    ALL  0     ROOT ALL Z 15
    10 SEL2        2 GROUP        1 Z    SEL  0     **** SEL Z 16
    11 LYL4       10 GROUP        1 Z    LYL  0     **** LYL Z 18
    12 GLL5       18 GROUP        1 Z    GLL  0     **** GLL Z 20
@<TRIPOS>SET

