#    Name: 2rif_AMP_8_ligand
#    Modification time : Mon Mar 24 23:59:43 2014

@<TRIPOS>MOLECULE
2rif_AMP_8_ligand
   35    37     1     0     0
SMALL
NO_CHARGES


@<TRIPOS>ATOM
      1 P          -4.0710   -8.2550   23.7760 P.3       1 AMP301      0.0000 
      2 O1P        -3.6110   -7.0290   24.5240 O.co2     1 AMP301      0.0000 
      3 O2P        -3.4240   -8.4090   22.4260 O.co2     1 AMP301      0.0000 
      4 O3P        -4.1310   -9.5180   24.5950 O.co2     1 AMP301      0.0000 
      5 O5'        -5.6380   -7.9820   23.5140 O.3       1 AMP301      0.0000 
      6 C5'        -6.2170   -8.1100   22.2190 C.3       1 AMP301      0.0000 
      7 C4'        -7.6640   -7.6180   22.2050 C.3       1 AMP301      0.0000 
      8 O4'        -8.0550   -7.0070   23.4470 O.3       1 AMP301      0.0000 
      9 C3'        -7.8330   -6.5430   21.1510 C.3       1 AMP301      0.0000 
     10 O3'        -9.1720   -6.5710   20.6580 O.3       1 AMP301      0.0000 
     11 C2'        -7.5350   -5.2770   21.9260 C.3       1 AMP301      0.0000 
     12 O2'        -8.0780   -4.1040   21.3100 O.3       1 AMP301      0.0000 
     13 C1'        -8.1580   -5.5860   23.2810 C.3       1 AMP301      0.0000 
     14 N9         -7.4790   -4.8740   24.3860 N.pl3     1 AMP301      0.0000 
     15 C8         -6.2680   -5.1570   24.8920 C.2       1 AMP301      0.0000 
     16 N7         -5.9430   -4.3110   25.8980 N.2       1 AMP301      0.0000 
     17 C5         -6.9700   -3.4630   26.0460 C.ar      1 AMP301      0.0000 
     18 C6         -7.2860   -2.3210   26.9260 C.ar      1 AMP301      0.0000 
     19 N6         -6.4090   -1.9150   27.8680 N.pl3     1 AMP301      0.0000 
     20 N1         -8.4780   -1.7050   26.7510 N.ar      1 AMP301      0.0000 
     21 C2         -9.3640   -2.1030   25.8140 C.ar      1 AMP301      0.0000 
     22 N3         -9.1370   -3.1340   24.9830 N.ar      1 AMP301      0.0000 
     23 C4         -7.9830   -3.8390   25.0490 C.ar      1 AMP301      0.0000 
     24 H          -6.2195   -9.1584   21.8754 H         1 AMP301      0.0000 
     25 H          -5.6611   -7.5277   21.4646 H         1 AMP301      0.0000 
     26 H          -8.3146   -8.4328   21.9528 H         1 AMP301      0.0000 
     27 H          -7.0955   -6.6801   20.4138 H         1 AMP301      0.0000 
     28 H          -6.4701   -5.2308   22.0691 H         1 AMP301      0.0000 
     29 H          -9.1992   -5.2956   23.2337 H         1 AMP301      0.0000 
     30 H          -5.6853   -5.8859   24.5760 H         1 AMP301      0.0000 
     31 H          -5.4413   -2.0522   27.6566 H         1 AMP301      0.0000 
     32 H          -6.8049   -1.5130   28.6936 H         1 AMP301      0.0000 
     33 H         -10.2833   -1.5746   25.7316 H         1 AMP301      0.0000 
     34 H          -9.0844   -6.7737   19.6826 H         1 AMP301      0.0000 
     35 H          -7.7153   -4.1097   20.3781 H         1 AMP301      0.0000 
@<TRIPOS>BOND
     1    2    1 ar   
     2    3    1 ar   
     3    4    1 ar   
     4    5    1 1    
     5    6    5 1    
     6    7    6 1    
     7   24    6 1    
     8   25    6 1    
     9    8    7 1    
    10    9    7 1    
    11   26    7 1    
    12   13    8 1    
    13   10    9 1    
    14   11    9 1    
    15   27    9 1    
    16   34   10 1    
    17   12   11 1    
    18   13   11 1    
    19   28   11 1    
    20   35   12 1    
    21   14   13 1    
    22   29   13 1    
    23   15   14 1    
    24   23   14 1    
    25   16   15 2    
    26   30   15 1    
    27   17   16 1    
    28   18   17 ar   
    29   23   17 ar   
    30   19   18 1    
    31   20   18 ar   
    32   31   19 1    
    33   32   19 1    
    34   21   20 ar   
    35   22   21 ar   
    36   33   21 1    
    37   23   22 ar   
@<TRIPOS>SUBSTRUCTURE
     1 AMP301      1 GROUP   
@<TRIPOS>SET

