#    Name: 3tc5_3T5_1_INTS_M
#    Modification time : Mon Mar 24 19:30:01 2014

@<TRIPOS>MOLECULE
3tc5_3T5_1_INTS_M
   70     0     9     0     0
SMALL
NO_CHARGES


@<TRIPOS>ATOM
      1 CA         36.9500  -10.7890   14.5895 C.3       3 GLC5        0.0000 
      2 CA         37.9660  -11.4600   16.0100 C.3       9 GLL5        0.0000 
      3 CA         35.9340  -10.1180   13.1690 C.3       6 GLP5        0.0000 
      4 CA         38.4885  -17.9090   17.3020 C.3       3 GLC5        0.0000 
      5 CA         37.9350  -16.0040   16.3660 C.3       9 GLL5        0.0000 
      6 CA         39.0420  -19.8140   18.2380 C.3       6 GLP5        0.0000 
      7 CA         36.8050  -16.2805   17.9055 C.3       3 GLC5        0.0000 
      8 CA         35.6750  -16.5570   19.4450 C.3       6 GLP5        0.0000 
      9 N          39.3960  -14.6025   11.5745 N.am      1 SEC2        0.0000 
     10 N          39.0860  -14.3910   13.1320 N.am      7 SEL2        0.0000 
     11 N          39.7060  -14.8140   10.0170 N.am      4 SEP2        0.0000 
     12 N          41.1190  -17.5010   12.2400 N.am      1 SEC2        0.0000 
     13 N          41.6540  -17.6710   13.8230 N.am      7 SEL2        0.0000 
     14 N          40.5840  -17.3310   10.6570 N.am      4 SEP2        0.0000 
     15 NZ         43.3795  -16.6765   10.8590 N.4       2 LYC4        0.0000 
     16 NZ         43.0790  -17.7940   11.6270 N.4       8 LYL4        0.0000 
     17 NZ         43.1530  -14.3940   10.4610 N.4       5 LYP4        0.0000 
     18 N          43.3795  -16.6765   10.8590 N.am      1 SEC2        0.0000 
     19 N          43.0790  -17.7940   11.6270 N.am      7 SEL2        0.0000 
     20 N          43.6800  -15.5590   10.0910 N.am      4 SEP2        0.0000 
     21 N          41.8315  -17.5625   11.1420 N.am      1 SEC2        0.0000 
     22 N          43.4125  -18.9740   11.0430 N.am      1 SEC2        0.0000 
     23 N          43.7460  -20.1540   10.4590 N.am      4 SEP2        0.0000 
     24 NZ         43.2920  -15.2745   12.6610 N.4       2 LYC4        0.0000 
     25 NZ         43.8360  -16.3180   13.6070 N.4       8 LYL4        0.0000 
     26 N          43.2920  -15.2745   12.6610 N.am      1 SEC2        0.0000 
     27 N          43.8360  -16.3180   13.6070 N.am      7 SEL2        0.0000 
     28 N          42.7480  -14.2310   11.7150 N.am      4 SEP2        0.0000 
     29 CA         35.3010  -13.8290   19.7375 C.3       3 GLC5        0.0000 
     30 CA         36.8800  -12.5070   19.3790 C.3       9 GLL5        0.0000 
     31 CA         33.7220  -15.1510   20.0960 C.3       6 GLP5        0.0000 
     32 NZ         44.0950  -20.2430   13.6060 N.4       2 LYC4        0.0000 
     33 NZ         43.9510  -18.8980   13.7550 N.4       8 LYL4        0.0000 
     34 NZ         44.2390  -21.5880   13.4570 N.4       5 LYP4        0.0000 
     35 NZ         45.4320  -19.1865   14.4865 N.4       2 LYC4        0.0000 
     36 NZ         46.9130  -19.4750   15.2180 N.4       5 LYP4        0.0000 
     37 N          44.0950  -20.2430   13.6060 N.am      1 SEC2        0.0000 
     38 N          43.9510  -18.8980   13.7550 N.am      7 SEL2        0.0000 
     39 N          44.2390  -21.5880   13.4570 N.am      4 SEP2        0.0000 
     40 CA         34.1165   -8.8150   18.3865 C.3       3 GLC5        0.0000 
     41 CA         36.0020   -9.3870   17.9690 C.3       9 GLL5        0.0000 
     42 CA         32.2310   -8.2430   18.8040 C.3       6 GLP5        0.0000 
     43 CA         35.8970   -7.8770   16.9250 C.3       3 GLC5        0.0000 
     44 CA         35.7920   -6.3670   15.8810 C.3       6 GLP5        0.0000 
     45 CA         33.3010  -11.1355   17.9935 C.3       3 GLC5        0.0000 
     46 CA         34.8630  -11.5550   17.2820 C.3       9 GLL5        0.0000 
     47 CA         31.7390  -10.7160   18.7050 C.3       6 GLP5        0.0000 
     48 CA         34.0445  -10.8395   15.5580 C.3       3 GLC5        0.0000 
     49 CA         33.2260  -10.1240   13.8340 C.3       6 GLP5        0.0000 
     50 CA         35.6290  -11.2675   14.6305 C.3       3 GLC5        0.0000 
     51 CA         35.3240  -12.4170   16.0920 C.3       9 GLL5        0.0000 
     52 CA         33.7940  -13.5675   15.2690 C.3       3 GLC5        0.0000 
     53 CA         32.2640  -14.7180   14.4460 C.3       6 GLP5        0.0000 
     54 CA         36.5160  -12.0350   14.1540 C.3       3 GLC5        0.0000 
     55 CA         37.0980  -13.9520   15.1390 C.3       9 GLL5        0.0000 
     56 CA         34.9900  -15.4770   16.0855 C.3       3 GLC5        0.0000 
     57 CA         36.1200  -14.8650   14.4000 C.3       9 GLL5        0.0000 
     58 CA         33.8600  -16.0890   17.7710 C.3       6 GLP5        0.0000 
     59 CA         37.0935  -13.9770   10.5005 C.3       3 GLC5        0.0000 
     60 CA         36.8390  -15.4120   12.0210 C.3       9 GLL5        0.0000 
     61 CA         37.3480  -12.5420    8.9800 C.3       6 GLP5        0.0000 
     62 CA         36.1645  -15.9785   10.0345 C.3       3 GLC5        0.0000 
     63 CA         35.4900  -16.5450    8.0480 C.3       6 GLP5        0.0000 
     64 CA         40.5705  -17.5520   12.0925 C.3       3 GLC5        0.0000 
     65 CA         40.9170  -16.4350   13.7880 C.3       9 GLL5        0.0000 
     66 CA         40.2240  -18.6690   10.3970 C.3       6 GLP5        0.0000 
     67 CA         34.9082  -14.4600   17.0085 C.3       3 GLC5        0.0000 
     68 CA         36.5890  -13.2450   16.4000 C.3       9 GLL5        0.0000 
     69 CA         34.9686  -15.8320   12.6947 C.3       3 GLC5        0.0000 
     70 CA         33.2250  -16.3120   12.4010 C.3       6 GLP5        0.0000 
@<TRIPOS>BOND
@<TRIPOS>SUBSTRUCTURE
     1 SEC2        9 GROUP        1 X    SEC  0     ROOT SEC X 2
     2 LYC4       15 GROUP        1 X    LYC  0     **** LYC X 4
     3 GLC5        1 GROUP        1 X    GLC  0     **** GLC X 6
     4 SEP2       11 GROUP        1 Y    SEP  0     ROOT SEP Y 9
     5 LYP4       17 GROUP        1 Y    LYP  0     **** LYP Y 11
     6 GLP5        3 GROUP        1 Y    GLP  0     **** GLP Y 13
     7 SEL2       10 GROUP        1 Z    SEL  0     ROOT SEL Z 16
     8 LYL4       16 GROUP        1 Z    LYL  0     **** LYL Z 18
     9 GLL5        2 GROUP        1 Z    GLL  0     **** GLL Z 20
@<TRIPOS>SET

