#    Name: 3tc5_3T5_1_ligand
#    Modification time : Mon Mar 24 19:30:01 2014

@<TRIPOS>MOLECULE
3tc5_3T5_1_ligand
   60    63     1     0     0
SMALL
NO_CHARGES


@<TRIPOS>ATOM
      1 F          37.9660  -11.4600   16.0100 F         1 3T5164      0.0000 
      2 P          43.1900  -17.7430   13.2270 P.3       1 3T5164      0.0000 
      3 C1         37.9350  -16.0040   16.3660 C.3       1 3T5164      0.0000 
      4 O1         38.9410  -14.0300   18.3400 O.3       1 3T5164      0.0000 
      5 C2         38.2880  -14.8620   15.4010 C.3       1 3T5164      0.0000 
      6 O2         37.0880   -7.4820   18.6000 O.2       1 3T5164      0.0000 
      7 C3         39.4660  -14.0280   15.9440 C.3       1 3T5164      0.0000 
      8 O3         39.0860  -14.3910   13.1320 O.3       1 3T5164      0.0000 
      9 C4         39.0350  -13.1850   17.1780 C.3       1 3T5164      0.0000 
     10 O4         38.9320  -17.7810   13.9730 O.2       1 3T5164      0.0000 
     11 C5         37.7300  -12.3650   16.9590 C.3       1 3T5164      0.0000 
     12 O5         41.6540  -17.6710   13.8230 O.3       1 3T5164      0.0000 
     13 O6         43.0790  -17.7940   11.6270 O.co2     1 3T5164      0.0000 
     14 C7         37.2920  -11.5890   18.2210 C.3       1 3T5164      0.0000 
     15 O7         43.8360  -16.3180   13.6070 O.co2     1 3T5164      0.0000 
     16 C8         36.8800  -12.5070   19.3790 C.3       1 3T5164      0.0000 
     17 O8         43.9510  -18.8980   13.7550 O.co2     1 3T5164      0.0000 
     18 C9         38.3410  -10.7900   18.6800 C.2       1 3T5164      0.0000 
     19 C10        38.2580   -9.4060   18.8110 C.2       1 3T5164      0.0000 
     20 C11        37.1110   -8.7050   18.4600 C.2       1 3T5164      0.0000 
     21 C12        36.0020   -9.3870   17.9690 C.2       1 3T5164      0.0000 
     22 C13        36.0500  -10.7750   17.8400 C.2       1 3T5164      0.0000 
     23 C14        34.8630  -11.5550   17.2820 C.3       1 3T5164      0.0000 
     24 C15        35.3240  -12.4170   16.0920 C.3       1 3T5164      0.0000 
     25 C16        36.5890  -13.2450   16.4000 C.3       1 3T5164      0.0000 
     26 C17        37.0980  -13.9520   15.1390 C.3       1 3T5164      0.0000 
     27 C18        36.1200  -14.8650   14.4000 C.3       1 3T5164      0.0000 
     28 C19        37.0510  -15.7190   13.5120 C.3       1 3T5164      0.0000 
     29 C20        36.8390  -15.4120   12.0210 C.3       1 3T5164      0.0000 
     30 C21        38.4960  -15.3980   13.9720 C.3       1 3T5164      0.0000 
     31 C22        39.4020  -16.6430   13.9270 C.2       1 3T5164      0.0000 
     32 C23        40.9170  -16.4350   13.7880 C.3       1 3T5164      0.0000 
     33 H          39.8189  -13.3564   15.1675 H         1 3T5164      0.0000 
     34 H          40.2715  -14.6933   16.2389 H         1 3T5164      0.0000 
     35 H          39.8489  -12.4422   17.3415 H         1 3T5164      0.0000 
     36 H          39.2455  -11.2620   18.9416 H         1 3T5164      0.0000 
     37 H          39.0783   -8.8839   19.1821 H         1 3T5164      0.0000 
     38 H          35.1557   -8.8748   17.7038 H         1 3T5164      0.0000 
     39 H          34.1009  -10.8645   16.9439 H         1 3T5164      0.0000 
     40 H          34.4589  -12.2011   18.0508 H         1 3T5164      0.0000 
     41 H          35.5278  -11.7638   15.2366 H         1 3T5164      0.0000 
     42 H          34.5141  -13.0989   15.8110 H         1 3T5164      0.0000 
     43 H          36.3483  -13.9948   17.1367 H         1 3T5164      0.0000 
     44 H          37.4455  -13.2013   14.4109 H         1 3T5164      0.0000 
     45 H          35.4802  -14.2913   13.7883 H         1 3T5164      0.0000 
     46 H          35.6186  -15.4899   15.0860 H         1 3T5164      0.0000 
     47 H          36.8547  -16.7496   13.7111 H         1 3T5164      0.0000 
     48 H          41.0914  -15.8906   12.8405 H         1 3T5164      0.0000 
     49 H          41.2344  -15.7554   14.6016 H         1 3T5164      0.0000 
     50 H          38.7072  -16.6237   16.5063 H         1 3T5164      0.0000 
     51 H          37.6677  -15.6603   17.2662 H         1 3T5164      0.0000 
     52 H          37.1741  -16.5563   16.0253 H         1 3T5164      0.0000 
     53 H          37.6290  -13.1057   19.6629 H         1 3T5164      0.0000 
     54 H          36.6001  -11.9854   20.1850 H         1 3T5164      0.0000 
     55 H          36.1117  -13.0967   19.1302 H         1 3T5164      0.0000 
     56 H          37.0242  -14.4523   11.8094 H         1 3T5164      0.0000 
     57 H          37.4392  -15.9614   11.4397 H         1 3T5164      0.0000 
     58 H          35.8999  -15.5997   11.7330 H         1 3T5164      0.0000 
     59 H          39.5184  -13.4526   18.9174 H         1 3T5164      0.0000 
     60 H          38.3127  -13.8699   12.7708 H         1 3T5164      0.0000 
@<TRIPOS>BOND
     1   11    1 1    
     2   12    2 1    
     3   13    2 ar   
     4   15    2 ar   
     5   17    2 ar   
     6    5    3 1    
     7   50    3 1    
     8   51    3 1    
     9   52    3 1    
    10    9    4 1    
    11   59    4 1    
    12    7    5 1    
    13   26    5 1    
    14   30    5 1    
    15   20    6 2    
    16    9    7 1    
    17   33    7 1    
    18   34    7 1    
    19   30    8 1    
    20   60    8 1    
    21   11    9 1    
    22   35    9 1    
    23   31   10 2    
    24   14   11 1    
    25   25   11 1    
    26   32   12 1    
    27   16   14 1    
    28   18   14 1    
    29   22   14 1    
    30   53   16 1    
    31   54   16 1    
    32   55   16 1    
    33   19   18 2    
    34   36   18 1    
    35   20   19 1    
    36   37   19 1    
    37   21   20 1    
    38   22   21 2    
    39   38   21 1    
    40   23   22 1    
    41   24   23 1    
    42   39   23 1    
    43   40   23 1    
    44   25   24 1    
    45   41   24 1    
    46   42   24 1    
    47   26   25 1    
    48   43   25 1    
    49   27   26 1    
    50   44   26 1    
    51   28   27 1    
    52   45   27 1    
    53   46   27 1    
    54   29   28 1    
    55   30   28 1    
    56   47   28 1    
    57   56   29 1    
    58   57   29 1    
    59   58   29 1    
    60   31   30 1    
    61   32   31 1    
    62   48   32 1    
    63   49   32 1    
@<TRIPOS>SUBSTRUCTURE
     1 3T5164      1 GROUP   
@<TRIPOS>SET

