#    Name: 4DZ9_1_CAVITY_N1_ALL.mol2
#    Modification time : Mon Mar 10 15:37:00 2014

@<TRIPOS>MOLECULE
4DZ9_1_CAVITY_N1_ALL.mol2
   93     0     6     0     0
SMALL
NO_CHARGES


@<TRIPOS>ATOM
      1 CA         -1.3613    7.7387   14.4776 C.3       5 GLY6        0.0000 
      2 CA         -0.0134    6.4041   13.5278 C.3       5 GLY6        0.0000 
      3 N           1.3345    5.0695   12.5780 N.2       2 ALA2        0.0000 
      4 N           1.5722    4.6302   11.1636 N.2       2 ALA2        0.0000 
      5 CA         -1.2314    5.7229   15.1255 C.3       5 GLY6        0.0000 
      6 CA         -2.3416    6.6182   14.6609 C.3       5 GLY6        0.0000 
      7 CZ         -3.4518    7.5135   14.1962 C.ar      4 PHE5        0.0000 
      8 N          -0.9937    5.2836   13.7111 N.2       2 ALA2        0.0000 
      9 DU         -2.1039    6.1789   13.2465 H         6 CUB7        0.0000 
     10 CZ         -3.2141    7.0741   12.7818 C.ar      4 PHE5        0.0000 
     11 N          -0.7560    4.8443   12.2967 N.2       2 ALA2        0.0000 
     12 DU         -1.8662    5.7396   11.8321 H         6 CUB7        0.0000 
     13 DU         -2.9765    6.6348   11.3674 H         6 CUB7        0.0000 
     14 CZ          0.5919    3.5097   11.3469 C.ar      4 PHE5        0.0000 
     15 DU         -0.5183    4.4050   10.8823 H         6 CUB7        0.0000 
     16 DU         -1.6286    5.3002   10.4177 H         6 CUB7        0.0000 
     17 CA          0.8296    3.0704    9.9326 C.3       5 GLY6        0.0000 
     18 DU         -0.2806    3.9657    9.4679 H         6 CUB7        0.0000 
     19 CZ         -4.6698    6.8323   15.7939 C.ar      4 PHE5        0.0000 
     20 CA         -2.2116    4.6024   15.3088 C.3       5 GLY6        0.0000 
     21 CA         -3.3218    5.4977   14.8442 C.3       5 GLY6        0.0000 
     22 CZ         -4.4321    6.3930   14.3795 C.ar      4 PHE5        0.0000 
     23 OG         -1.9739    4.1631   13.8944 O.2       1 SER1        0.0000 
     24 DU         -3.0842    5.0584   13.4298 H         6 CUB7        0.0000 
     25 CZ         -4.1944    5.9536   12.9651 C.ar      4 PHE5        0.0000 
     26 CZ         -5.3046    6.8489   12.5005 C.ar      4 PHE5        0.0000 
     27 CZ         -6.4149    7.7442   12.0358 C.ar      4 PHE5        0.0000 
     28 CA         -7.5251    8.6394   11.5712 C.3       5 GLY6        0.0000 
     29 OG         -1.7363    3.7238   12.4800 O.2       1 SER1        0.0000 
     30 DU         -2.8465    4.6191   12.0154 H         6 CUB7        0.0000 
     31 DU         -3.9567    5.5143   11.5507 H         6 CUB7        0.0000 
     32 O          -5.0669    6.4096   11.0861 O.2       2 ALA2        0.0000 
     33 O          -6.1772    7.3049   10.6214 O.2       2 ALA2        0.0000 
     34 OG         -0.3883    2.3892   11.5302 O.2       1 SER1        0.0000 
     35 OG         -1.4986    3.2845   11.0656 O.2       1 SER1        0.0000 
     36 O          -2.6088    4.1798   10.6010 O.2       2 ALA2        0.0000 
     37 O          -3.7190    5.0750   10.1363 O.2       2 ALA2        0.0000 
     38 CA         -0.1507    1.9499   10.1159 C.3       5 GLY6        0.0000 
     39 O          -1.2609    2.8452    9.6512 O.2       2 ALA2        0.0000 
     40 O          -2.3711    3.7404    9.1866 O.2       2 ALA2        0.0000 
     41 O          -3.4814    4.6357    8.7219 O.2       2 ALA2        0.0000 
     42 O          -1.0232    2.4059    8.2368 O.2       2 ALA2        0.0000 
     43 CA         -5.6500    5.7118   15.9772 C.3       5 GLY6        0.0000 
     44 OG         -3.1919    3.4819   15.4921 O.2       1 SER1        0.0000 
     45 CA         -4.3021    4.3772   15.0275 C.3       5 GLY6        0.0000 
     46 CZ         -5.4123    5.2725   14.5628 C.ar      4 PHE5        0.0000 
     47 CZ         -6.5226    6.1677   14.0982 C.ar      4 PHE5        0.0000 
     48 OG         -2.9542    3.0426   14.0777 O.2       1 SER1        0.0000 
     49 DU         -4.0644    3.9379   13.6131 H         6 CUB7        0.0000 
     50 O          -5.1746    4.8332   13.1484 O.2       2 ALA2        0.0000 
     51 O          -7.3951    6.6237   12.2191 O.2       2 ALA2        0.0000 
     52 OG         -2.7165    2.6033   12.6633 O.2       1 SER1        0.0000 
     53 DU         -3.8267    3.4986   12.1987 H         6 CUB7        0.0000 
     54 O          -4.9370    4.3938   11.7340 O.2       2 ALA2        0.0000 
     55 OG         -1.3686    1.2687   11.7135 O.2       1 SER1        0.0000 
     56 OG         -2.4788    2.1640   11.2489 O.2       1 SER1        0.0000 
     57 O          -3.5891    3.0593   10.7843 O.2       2 ALA2        0.0000 
     58 O          -4.6993    3.9545   10.3196 O.2       2 ALA2        0.0000 
     59 CA         -1.1309    0.8294   10.2992 C.3       5 GLY6        0.0000 
     60 O          -2.2412    1.7247    9.8345 O.2       2 ALA2        0.0000 
     61 CA         -4.4098    2.8008   17.0898 C.3       5 GLY6        0.0000 
     62 CA         -5.5200    3.6960   16.6252 C.3       5 GLY6        0.0000 
     63 CA         -6.6303    4.5913   16.1605 C.3       5 GLY6        0.0000 
     64 OG         -3.0619    1.4662   16.1400 O.2       1 SER1        0.0000 
     65 OG         -4.1721    2.3614   15.6754 O.2       1 SER1        0.0000 
     66 CA         -5.2824    3.2567   15.2108 C.3       5 GLY6        0.0000 
     67 O          -6.3926    4.1520   14.7461 O.2       2 ALA2        0.0000 
     68 CA         -7.5028    5.0472   14.2815 C.3       5 GLY6        0.0000 
     69 OG         -3.9344    1.9221   14.2610 O.2       1 SER1        0.0000 
     70 O          -5.0447    2.8174   13.7964 O.2       2 ALA2        0.0000 
     71 OG         -3.6968    1.4828   12.8466 O.2       1 SER1        0.0000 
     72 O          -4.8070    2.3781   12.3820 O.2       2 ALA2        0.0000 
     73 CA         -2.3489    0.1482   11.8969 C.3       5 GLY6        0.0000 
     74 O          -3.4591    1.0435   11.4322 O.2       2 ALA2        0.0000 
     75 O          -4.5693    1.9388   10.9676 O.2       2 ALA2        0.0000 
     76 CA         -2.1112   -0.2911   10.4825 C.3       5 GLY6        0.0000 
     77 O          -3.2214    0.6042   10.0178 O.2       2 ALA2        0.0000 
     78 OD1        -5.3901    1.6803   17.2731 O.3       3 ASP3        0.0000 
     79 CA         -6.5003    2.5755   16.8085 C.3       5 GLY6        0.0000 
     80 CA         -7.6105    3.4708   16.3438 C.3       5 GLY6        0.0000 
     81 OG         -4.0421    0.3457   16.3233 O.2       1 SER1        0.0000 
     82 OD1        -5.1524    1.2410   15.8587 O.3       3 ASP3        0.0000 
     83 N          -6.2626    2.1362   15.3941 N.2       2 ALA2        0.0000 
     84 CA         -7.3728    3.0315   14.9294 C.3       5 GLY6        0.0000 
     85 CA         -3.8045   -0.0936   14.9089 C.3       5 GLY6        0.0000 
     86 N          -4.9147    0.8016   14.4443 N.2       2 ALA2        0.0000 
     87 CA         -3.5668   -0.5329   13.4945 C.3       5 GLY6        0.0000 
     88 N          -4.6770    0.3623   13.0299 N.2       2 ALA2        0.0000 
     89 CA         -3.3291   -0.9723   12.0802 C.3       5 GLY6        0.0000 
     90 CA         -4.4393   -0.0770   11.6155 C.3       5 GLY6        0.0000 
     91 N          -5.5496    0.8183   11.1509 N.2       2 ALA2        0.0000 
     92 CA         -3.0914   -1.4116   10.6658 C.3       5 GLY6        0.0000 
     93 CA         -4.2017   -0.5163   10.2011 C.3       5 GLY6        0.0000 
@<TRIPOS>BOND
@<TRIPOS>SUBSTRUCTURE
     1 SER1       23 GROUP   
     2 ALA2        3 GROUP   
     3 ASP3       78 GROUP   
     4 PHE5        7 GROUP   
     5 GLY6        1 GROUP   
     6 CUB7        9 GROUP   
@<TRIPOS>SET

