#    Name: 4dz9_ID4_1_INTS_M
#    Modification time : Tue Mar 25 10:25:57 2014

@<TRIPOS>MOLECULE
4dz9_ID4_1_INTS_M
   49     0    12     0     0
SMALL
NO_CHARGES


@<TRIPOS>ATOM
      1 CA          0.3170   10.0040   17.1480 C.3       4 GLC5        0.0000 
      2 CA          0.2300   10.4800   15.0710 C.3      12 GLL5        0.0000 
      3 CA          0.4040    9.5280   19.2250 C.3       8 GLP5        0.0000 
      4 CA         -2.7545   13.1755   14.5490 C.3       4 GLC5        0.0000 
      5 CA         -1.6020   11.6710   13.9040 C.3      12 GLL5        0.0000 
      6 CA         -3.9070   14.6800   15.1940 C.3       8 GLP5        0.0000 
      7 CA         -7.7740    5.6075   14.9470 C.3       4 GLC5        0.0000 
      8 CA         -5.8540    5.4750   14.1290 C.3      12 GLL5        0.0000 
      9 CA         -9.6940    5.7400   15.7650 C.3       8 GLP5        0.0000 
     10 CA         -5.9865    7.1685   14.4735 C.3       4 GLC5        0.0000 
     11 CA         -6.1190    8.8620   14.8180 C.3       8 GLP5        0.0000 
     12 N          -4.0405    0.7855   18.6335 N.am      2 SEC2        0.0000 
     13 N          -5.4270    1.2080   18.1350 N.am     10 SEL2        0.0000 
     14 N          -2.6540    0.3630   19.1320 N.am      6 SEP2        0.0000 
     15 O          -4.5535   -1.1485   16.8565 O.2       1 ALC1        0.0000 
     16 O          -5.4700   -0.3440   16.0840 O.2       9 ALL1        0.0000 
     17 O          -3.6370   -1.9530   17.6290 O.2       5 ALP1        0.0000 
     18 Zn         -6.0895   -0.9320   15.7025 Zn        3 ZIC7        0.0000 
     19 Zn         -5.4700   -0.3440   16.0840 Zn       11 ZIL7        0.0000 
     20 Zn         -6.7090   -1.5200   15.3210 Zn        7 ZIP7        0.0000 
     21 CA         -2.4790    0.3155   17.7445 C.3       4 GLC5        0.0000 
     22 CA         -2.9620    1.5630   16.4070 C.3      12 GLL5        0.0000 
     23 CA         -1.9960   -0.9320   19.0820 C.3       8 GLP5        0.0000 
     24 CA         -0.9390    1.8850   15.0000 C.3       4 GLC5        0.0000 
     25 CA         -1.7200    3.6420   15.2220 C.3      12 GLL5        0.0000 
     26 CA         -0.1580    0.1280   14.7780 C.3       8 GLP5        0.0000 
     27 CA         -0.1005    4.8345   15.4810 C.3       4 GLC5        0.0000 
     28 CA          1.5190    6.0270   15.7400 C.3       8 GLP5        0.0000 
     29 CA          0.9863    8.4990   15.6730 C.3       4 GLC5        0.0000 
     30 CA          0.0670    9.2560   14.2270 C.3      12 GLL5        0.0000 
     31 CA          1.8240    7.1300   16.6970 C.3       8 GLP5        0.0000 
     32 CA         -3.5717   10.4067   13.8718 C.3       4 GLC5        0.0000 
     33 CA         -5.3740    9.8020   14.1470 C.3       8 GLP5        0.0000 
     34 CA         -1.5675   11.5209   16.0045 C.3       4 GLC5        0.0000 
     35 CA         -2.3460   11.6510   17.6950 C.3       8 GLP5        0.0000 
     36 CA         -4.8098    4.0360   17.0785 C.3       4 GLC5        0.0000 
     37 CA         -5.8090    3.4520   15.3250 C.3      12 GLL5        0.0000 
     38 CA         -4.1630    5.1400   18.5330 C.3       8 GLP5        0.0000 
     39 CA         -8.1992    3.4090   15.1460 C.3       4 GLC5        0.0000 
     40 CA         -9.9330    3.3690   14.9660 C.3       8 GLP5        0.0000 
     41 CA         -2.7500    2.8262   17.5628 C.3       4 GLC5        0.0000 
     42 CA         -3.7080    2.5160   15.8780 C.3      12 GLL5        0.0000 
     43 CA         -2.1650    3.6130   18.9830 C.3       8 GLP5        0.0000 
     44 CA         -1.7465    1.0837   15.4603 C.3       4 GLC5        0.0000 
     45 CA         -4.3128    4.8365   16.5992 C.3       4 GLC5        0.0000 
     46 CA         -3.7740    4.5580   14.6260 C.3      12 GLL5        0.0000 
     47 CA         -2.1180    4.7445   16.6208 C.3       4 GLC5        0.0000 
     48 CA         -3.0520    3.5720   15.2510 C.3      12 GLL5        0.0000 
     49 CA         -1.8500    5.8820   18.0050 C.3       8 GLP5        0.0000 
@<TRIPOS>BOND
@<TRIPOS>SUBSTRUCTURE
     1 ALC1       15 GROUP        1 X    ALC  0     ROOT ALC X 1
     2 SEC2       12 GROUP        1 X    SEC  0     **** SEC X 2
     3 ZIC7       18 GROUP        1 X    ZIC  0     **** ZIC X 5
     4 GLC5        1 GROUP        1 X    GLC  0     **** GLC X 6
     5 ALP1       17 GROUP        1 Y    ALP  0     ROOT ALP Y 8
     6 SEP2       14 GROUP        1 Y    SEP  0     **** SEP Y 9
     7 ZIP7       20 GROUP        1 Y    ZIP  0     **** ZIP Y 12
     8 GLP5        3 GROUP        1 Y    GLP  0     **** GLP Y 13
     9 ALL1       16 GROUP        1 Z    ALL  0     ROOT ALL Z 15
    10 SEL2       13 GROUP        1 Z    SEL  0     **** SEL Z 16
    11 ZIL7       19 GROUP        1 Z    ZIL  0     **** ZIL Z 19
    12 GLL5        2 GROUP        1 Z    GLL  0     **** GLL Z 20
@<TRIPOS>SET

