#    Name: 4dz9_ID4_1_ligand
#    Modification time : Tue Mar 25 10:25:57 2014

@<TRIPOS>MOLECULE
4dz9_ID4_1_ligand
   41    43     1     0     0
SMALL
NO_CHARGES


@<TRIPOS>ATOM
      1 CAL         0.0670    9.2560   14.2270 C.3       1 ID4303      0.0000 
      2 CAJ         0.2300   10.4800   15.0710 C.3       1 ID4303      0.0000 
      3 CAI        -0.1820   11.7410   14.3770 C.3       1 ID4303      0.0000 
      4 CAK        -1.6020   11.6710   13.9040 C.3       1 ID4303      0.0000 
      5 CAM        -1.9370   10.3520   13.2890 C.3       1 ID4303      0.0000 
      6 CAW        -5.1040    2.4120   15.9230 C.ar      1 ID4303      0.0000 
      7 CAT        -5.8090    3.4520   15.3250 C.ar      1 ID4303      0.0000 
      8 CAH        -2.3720    5.9590   12.9390 C.2       1 ID4303      0.0000 
      9 NAO        -2.3600    7.7190   14.3380 N.2       1 ID4303      0.0000 
     10 CAU        -3.7080    2.5160   15.8780 C.ar      1 ID4303      0.0000 
     11 FAD        -5.8540    5.4750   14.1290 F         1 ID4303      0.0000 
     12 CAR        -5.1510    4.5080   14.7050 C.ar      1 ID4303      0.0000 
     13 FAF        -7.1220    3.4460   15.3270 F         1 ID4303      0.0000 
     14 CAV        -3.7740    4.5580   14.6260 C.ar      1 ID4303      0.0000 
     15 OAB        -5.4270    1.2080   18.1350 O.2       1 ID4303      0.0000 
     16 OAC        -7.3310    1.2040   16.7250 O.2       1 ID4303      0.0000 
     17 NAA        -5.4700   -0.3440   16.0840 N.pl3     1 ID4303      0.0000 
     18 CAS        -3.0520    3.5720   15.2510 C.ar      1 ID4303      0.0000 
     19 FAG        -2.9620    1.5630   16.4070 F         1 ID4303      0.0000 
     20 CAQ        -1.9010    7.3410   13.1270 C.2       1 ID4303      0.0000 
     21 FAE        -1.7200    3.6420   15.2220 F         1 ID4303      0.0000 
     22 SAZ        -5.9080    1.0490   16.7840 S.o2      1 ID4303      0.0000 
     23 NAY        -3.0720    5.6860   14.0800 N.pl3     1 ID4303      0.0000 
     24 NAP        -3.0210    6.7360   14.8610 N.2       1 ID4303      0.0000 
     25 CAN        -1.0950    8.2230   12.2350 C.3       1 ID4303      0.0000 
     26 CAX        -0.7310    9.5150   12.9790 C.3       1 ID4303      0.0000 
     27 H          -0.4300    8.4674   14.8163 H         1 ID4303      0.0000 
     28 H           1.0607    8.8688   13.9464 H         1 ID4303      0.0000 
     29 H           1.2874   10.5674   15.3863 H         1 ID4303      0.0000 
     30 H          -0.3631   10.3650   15.9985 H         1 ID4303      0.0000 
     31 H           0.4800   11.9190   13.5186 H         1 ID4303      0.0000 
     32 H          -0.0679   12.5905   15.0641 H         1 ID4303      0.0000 
     33 H          -1.7798   12.4741   13.1688 H         1 ID4303      0.0000 
     34 H          -2.2780   11.8611   14.7550 H         1 ID4303      0.0000 
     35 H          -2.5115   10.5172   12.3576 H         1 ID4303      0.0000 
     36 H          -2.6027    9.7884   13.9702 H         1 ID4303      0.0000 
     37 H          -2.1998    5.4523   12.2006 H         1 ID4303      0.0000 
     38 H          -4.6416   -0.7749   16.4419 H         1 ID4303      0.0000 
     39 H          -1.6636    8.4830   11.3455 H         1 ID4303      0.0000 
     40 H          -0.1765    7.7230   11.9378 H         1 ID4303      0.0000 
     41 H          -0.0851   10.1090   12.2929 H         1 ID4303      0.0000 
@<TRIPOS>BOND
     1    2    1 1    
     2   26    1 1    
     3   27    1 1    
     4   28    1 1    
     5    3    2 1    
     6   29    2 1    
     7   30    2 1    
     8    4    3 1    
     9   31    3 1    
    10   32    3 1    
    11    5    4 1    
    12   33    4 1    
    13   34    4 1    
    14   26    5 1    
    15   35    5 1    
    16   36    5 1    
    17    7    6 ar   
    18   10    6 ar   
    19   22    6 1    
    20   12    7 ar   
    21   13    7 1    
    22   20    8 2    
    23   23    8 1    
    24   37    8 1    
    25   20    9 1    
    26   24    9 2    
    27   18   10 ar   
    28   19   10 1    
    29   12   11 1    
    30   14   12 ar   
    31   18   14 ar   
    32   23   14 1    
    33   22   15 2    
    34   22   16 2    
    35   22   17 1    
    36   38   17 1    
    37   21   18 1    
    38   25   20 1    
    39   24   23 1    
    40   26   25 1    
    41   39   25 1    
    42   40   25 1    
    43   41   26 1    
@<TRIPOS>SUBSTRUCTURE
     1 ID4303      1 GROUP   
@<TRIPOS>SET

