#    Name: 4ce2_BO5_1_INTS_M
#    Modification time : Tue Mar 25 09:14:45 2014

@<TRIPOS>MOLECULE
4ce2_BO5_1_INTS_M
   48     0     6     0     0
SMALL
NO_CHARGES


@<TRIPOS>ATOM
      1 N          21.4480   -1.9505   -5.7540 N.am      1 SEC2        0.0000 
      2 N          19.9770   -2.0660   -6.4070 N.am      5 SEL2        0.0000 
      3 N          22.9190   -1.8350   -5.1010 N.am      3 SEP2        0.0000 
      4 CA         18.1570   -4.4725   -7.7040 C.3       2 GLC5        0.0000 
      5 CA         16.8340   -3.7860   -6.6380 C.3       6 GLL5        0.0000 
      6 CA         19.4800   -5.1590   -8.7700 C.3       4 GLP5        0.0000 
      7 CA         21.6170   -4.0820   -3.3455 C.3       2 GLC5        0.0000 
      8 CA         20.2250   -5.5520   -3.8470 C.3       6 GLL5        0.0000 
      9 CA         23.0090   -2.6120   -2.8440 C.3       4 GLP5        0.0000 
     10 CA         17.1805   -4.0925    0.2140 C.3       2 GLC5        0.0000 
     11 CA         17.4910   -4.3360   -1.3010 C.3       6 GLL5        0.0000 
     12 CA         16.8700   -3.8490    1.7290 C.3       4 GLP5        0.0000 
     13 CA         18.3580   -1.1045   -3.4975 C.3       2 GLC5        0.0000 
     14 CA         17.2850   -2.4070   -3.5170 C.3       6 GLL5        0.0000 
     15 CA         19.4310    0.1980   -3.4780 C.3       4 GLP5        0.0000 
     16 CA         15.4825   -0.9450   -1.2240 C.3       2 GLC5        0.0000 
     17 CA         14.9070   -2.1090   -2.5410 C.3       6 GLL5        0.0000 
     18 CA         16.0580    0.2190    0.0930 C.3       4 GLP5        0.0000 
     19 CA         13.8745    0.9925   -3.8950 C.3       2 GLC5        0.0000 
     20 CA         13.7250   -0.8540   -4.3710 C.3       6 GLL5        0.0000 
     21 CA         14.0240    2.8390   -3.4190 C.3       4 GLP5        0.0000 
     22 CA         15.3840   -1.9775   -9.6935 C.3       2 GLC5        0.0000 
     23 CA         15.5120   -0.9380   -7.7080 C.3       6 GLL5        0.0000 
     24 CA         15.2560   -3.0170  -11.6790 C.3       4 GLP5        0.0000 
     25 CA         18.0530    0.4570   -6.7535 C.3       2 GLC5        0.0000 
     26 CA         16.9750   -0.7610   -7.8150 C.3       6 GLL5        0.0000 
     27 CA         19.1310    1.6750   -5.6920 C.3       4 GLP5        0.0000 
     28 CA         18.6380   -3.5875   -8.4380 C.3       2 GLC5        0.0000 
     29 CA         17.7960   -2.0160   -8.1060 C.3       6 GLL5        0.0000 
     30 CA         16.5260   -2.5165   -9.8925 C.3       2 GLC5        0.0000 
     31 CA         19.5510   -4.6522   -6.8332 C.3       2 GLC5        0.0000 
     32 CA         19.1380   -3.6220   -4.8830 C.3       6 GLL5        0.0000 
     33 CA         19.0808   -1.6787   -3.8928 C.3       2 GLC5        0.0000 
     34 CA         21.5550   -3.5008   -4.5877 C.3       2 GLC5        0.0000 
     35 CA         23.4880   -2.8560   -4.2790 C.3       4 GLP5        0.0000 
     36 CA         19.9958   -7.0473   -5.2423 C.3       2 GLC5        0.0000 
     37 CA         20.1060   -4.6690   -4.9100 C.3       6 GLL5        0.0000 
     38 CA         19.8260   -8.9840   -6.1060 C.3       4 GLP5        0.0000 
     39 CA         18.1703   -6.5623   -3.4022 C.3       2 GLC5        0.0000 
     40 CA         16.5270   -7.6340   -3.5090 C.3       4 GLP5        0.0000 
     41 CA         20.7313   -5.0637   -1.6763 C.3       2 GLC5        0.0000 
     42 CA         19.4020   -5.4290   -2.7440 C.3       6 GLL5        0.0000 
     43 CA         21.6490   -4.6370   -0.0570 C.3       4 GLP5        0.0000 
     44 CA         17.2585   -6.0038   -2.7547 C.3       2 GLC5        0.0000 
     45 CA         18.4890   -4.4110   -2.7000 C.3       6 GLL5        0.0000 
     46 CA         19.8195   -4.5052   -1.0288 C.3       2 GLC5        0.0000 
     47 CA         18.3417   -1.4312   -9.5048 C.3       2 GLC5        0.0000 
     48 CA         19.2980   -1.4740  -11.0490 C.3       4 GLP5        0.0000 
@<TRIPOS>BOND
@<TRIPOS>SUBSTRUCTURE
     1 SEC2        1 GROUP        1 X    SEC  0     ROOT SEC X 2
     2 GLC5        4 GROUP        1 X    GLC  0     **** GLC X 6
     3 SEP2        3 GROUP        1 Y    SEP  0     ROOT SEP Y 9
     4 GLP5        6 GROUP        1 Y    GLP  0     **** GLP Y 13
     5 SEL2        2 GROUP        1 Z    SEL  0     ROOT SEL Z 16
     6 GLL5        5 GROUP        1 Z    GLL  0     **** GLL Z 20
@<TRIPOS>SET

