#    Name: 4ce2_BO5_1_ligand
#    Modification time : Tue Mar 25 09:14:45 2014

@<TRIPOS>MOLECULE
4ce2_BO5_1_ligand
   48    49     1     0     0
SMALL
NO_CHARGES


@<TRIPOS>ATOM
      1 O3         19.9770   -2.0660   -6.4070 O.2       1 BO51215     0.0000 
      2 C18        19.0240   -2.7650   -6.1270 C.2       1 BO51215     0.0000 
      3 N          17.9210   -2.8350   -6.8980 N.am      1 BO51215     0.0000 
      4 C          16.8340   -3.7860   -6.6380 C.3       1 BO51215     0.0000 
      5 C17        19.1380   -3.6220   -4.8830 C.ar      1 BO51215     0.0000 
      6 C16        20.1060   -4.6690   -4.9100 C.ar      1 BO51215     0.0000 
      7 O2         20.9270   -4.8390   -5.9880 O.co2     1 BO51215     0.0000 
      8 C15        20.2250   -5.5520   -3.8470 C.ar      1 BO51215     0.0000 
      9 C14        19.4020   -5.4290   -2.7440 C.ar      1 BO51215     0.0000 
     10 O1         19.4430   -6.3140   -1.7030 O.3       1 BO51215     0.0000 
     11 C13        18.4890   -4.4110   -2.7000 C.ar      1 BO51215     0.0000 
     12 CL         17.4910   -4.3360   -1.3010 Cl        1 BO51215     0.0000 
     13 C12        18.3230   -3.4890   -3.7320 C.ar      1 BO51215     0.0000 
     14 C11        17.2850   -2.4070   -3.5170 C.3       1 BO51215     0.0000 
     15 C10        15.8830   -2.9460   -3.3270 C.2       1 BO51215     0.0000 
     16 O          15.5750   -4.0310   -3.7700 O.2       1 BO51215     0.0000 
     17 C9         14.9070   -2.1090   -2.5410 C.3       1 BO51215     0.0000 
     18 C8         13.5870   -1.8270   -3.2270 C.3       1 BO51215     0.0000 
     19 C7         13.7250   -0.8540   -4.3710 C.3       1 BO51215     0.0000 
     20 C6         13.0070   -1.2800   -5.6550 C.3       1 BO51215     0.0000 
     21 C5         13.2570   -0.3480   -6.8420 C.3       1 BO51215     0.0000 
     22 C4         14.7280   -0.1810   -7.0150 C.2       1 BO51215     0.0000 
     23 C3         15.5120   -0.9380   -7.7080 C.2       1 BO51215     0.0000 
     24 C2         16.9750   -0.7610   -7.8150 C.3       1 BO51215     0.0000 
     25 C1         17.7960   -2.0160   -8.1060 C.3       1 BO51215     0.0000 
     26 H          20.9320   -6.3033   -3.8823 H         1 BO51215     0.0000 
     27 H          17.2941   -1.7222   -4.3817 H         1 BO51215     0.0000 
     28 H          17.5648   -1.8100   -2.6327 H         1 BO51215     0.0000 
     29 H          15.3886   -1.1393   -2.2817 H         1 BO51215     0.0000 
     30 H          14.7034   -2.6091   -1.5674 H         1 BO51215     0.0000 
     31 H          12.8775   -1.4234   -2.4896 H         1 BO51215     0.0000 
     32 H          13.1674   -2.7722   -3.6018 H         1 BO51215     0.0000 
     33 H          14.7971   -0.7079   -4.6013 H         1 BO51215     0.0000 
     34 H          13.3337    0.1335   -4.0622 H         1 BO51215     0.0000 
     35 H          11.9243   -1.3268   -5.4590 H         1 BO51215     0.0000 
     36 H          13.3321   -2.2971   -5.9243 H         1 BO51215     0.0000 
     37 H          12.7893    0.6084   -6.6402 H         1 BO51215     0.0000 
     38 H          12.8196   -0.7882   -7.7304 H         1 BO51215     0.0000 
     39 H          15.1021    0.6771   -6.4798 H         1 BO51215     0.0000 
     40 H          15.1496   -1.7696   -8.2693 H         1 BO51215     0.0000 
     41 H          17.3704   -0.3052   -6.8717 H         1 BO51215     0.0000 
     42 H          17.2073   -0.0086   -8.6111 H         1 BO51215     0.0000 
     43 H          17.2985   -2.5744   -8.9047 H         1 BO51215     0.0000 
     44 H          18.7804   -1.7059   -8.4692 H         1 BO51215     0.0000 
     45 H          17.1528   -4.7332   -6.6734 H         1 BO51215     0.0000 
     46 H          16.4272   -3.6472   -5.7351 H         1 BO51215     0.0000 
     47 H          16.0968   -3.6996   -7.3081 H         1 BO51215     0.0000 
     48 H          20.0728   -7.0323   -1.9988 H         1 BO51215     0.0000 
@<TRIPOS>BOND
     1    2    1 2    
     2    3    2 am   
     3    5    2 1    
     4    4    3 1    
     5   25    3 1    
     6   45    4 1    
     7   46    4 1    
     8   47    4 1    
     9    6    5 ar   
    10   13    5 ar   
    11    7    6 1    
    12    8    6 ar   
    13    9    8 ar   
    14   26    8 1    
    15   10    9 1    
    16   11    9 ar   
    17   48   10 1    
    18   12   11 1    
    19   13   11 ar   
    20   14   13 1    
    21   15   14 1    
    22   27   14 1    
    23   28   14 1    
    24   16   15 2    
    25   17   15 1    
    26   18   17 1    
    27   29   17 1    
    28   30   17 1    
    29   19   18 1    
    30   31   18 1    
    31   32   18 1    
    32   20   19 1    
    33   33   19 1    
    34   34   19 1    
    35   21   20 1    
    36   35   20 1    
    37   36   20 1    
    38   22   21 1    
    39   37   21 1    
    40   38   21 1    
    41   23   22 2    
    42   39   22 1    
    43   24   23 1    
    44   40   23 1    
    45   25   24 1    
    46   41   24 1    
    47   42   24 1    
    48   43   25 1    
    49   44   25 1    
@<TRIPOS>SUBSTRUCTURE
     1 BO51215     1 GROUP   
@<TRIPOS>SET

