#    Name: 3d1z_017_1_INTS_M
#    Modification time : Mon Mar 24 22:34:00 2014

@<TRIPOS>MOLECULE
3d1z_017_1_INTS_M
   86     0     9     0     0
SMALL
NO_CHARGES


@<TRIPOS>ATOM
      1 O          19.7525   29.7230   13.6120 O.2       1 ALC1        0.0000 
      2 O          21.0700   28.9230   14.0670 O.2       7 ALL1        0.0000 
      3 O          18.4350   30.5230   13.1570 O.2       4 ALP1        0.0000 
      4 CA         16.7350   25.8220   13.4015 C.3       3 GLC5        0.0000 
      5 CA         18.5120   26.3270   14.4150 C.3       9 GLL5        0.0000 
      6 CA         14.9580   25.3170   12.3880 C.3       6 GLP5        0.0000 
      7 CA         22.4980   26.1630   13.9505 C.3       3 GLC5        0.0000 
      8 CA         21.1700   26.8230   15.2410 C.3       9 GLL5        0.0000 
      9 CA         23.8260   25.5030   12.6600 C.3       6 GLP5        0.0000 
     10 CA         19.7985   21.7415   18.6505 C.3       3 GLC5        0.0000 
     11 CA         18.1120   22.5400   19.7320 C.3       9 GLL5        0.0000 
     12 CA         21.4850   20.9430   17.5690 C.3       6 GLP5        0.0000 
     13 CA         17.8125   20.3830   19.7695 C.3       3 GLC5        0.0000 
     14 CA         17.5130   18.2260   19.8070 C.3       6 GLP5        0.0000 
     15 CA         16.8035   21.7740   21.2095 C.3       3 GLC5        0.0000 
     16 CA         15.4950   21.0080   22.6870 C.3       6 GLP5        0.0000 
     17 CA         18.7715   25.7095   22.1410 C.3       3 GLC5        0.0000 
     18 CA         19.3780   24.3890   20.8290 C.3       9 GLL5        0.0000 
     19 CA         18.1650   27.0300   23.4530 C.3       6 GLP5        0.0000 
     20 CA         19.9395   23.9545   22.4545 C.3       3 GLC5        0.0000 
     21 CA         20.5010   23.5200   24.0800 C.3       6 GLP5        0.0000 
     22 CA         18.1485   23.7730   22.4435 C.3       3 GLC5        0.0000 
     23 CA         16.9190   23.1570   24.0580 C.3       6 GLP5        0.0000 
     24 CA         16.5435   27.0445   16.7750 C.3       3 GLC5        0.0000 
     25 CA         16.3850   25.0950   17.4320 C.3       9 GLL5        0.0000 
     26 CA         16.7020   28.9940   16.1180 C.3       6 GLP5        0.0000 
     27 O          13.7085   25.5775   19.3650 O.2       1 ALC1        0.0000 
     28 O          14.0920   24.9990   18.2010 O.2       7 ALL1        0.0000 
     29 O          13.3250   26.1560   20.5290 O.2       4 ALP1        0.0000 
     30 O          14.3520   24.7705   19.7460 O.2       1 ALC1        0.0000 
     31 O          14.6120   24.5420   21.2910 O.2       4 ALP1        0.0000 
     32 O          12.5160   22.7075   17.7180 O.2       1 ALC1        0.0000 
     33 O          13.9850   22.1660   17.7370 O.2       7 ALL1        0.0000 
     34 O          11.0470   23.2490   17.6990 O.2       4 ALP1        0.0000 
     35 CA         15.4135   18.5425   19.3950 C.3       3 GLC5        0.0000 
     36 CA         13.3140   18.8590   18.9830 C.3       9 GLL5        0.0000 
     37 CA         11.1690   17.7720   21.7795 C.3       3 GLC5        0.0000 
     38 CA         12.6640   18.5850   20.3540 C.3       9 GLL5        0.0000 
     39 CA          9.6740   16.9590   23.2050 C.3       6 GLP5        0.0000 
     40 CA         13.5275   17.9070   22.0845 C.3       3 GLC5        0.0000 
     41 CA         14.3910   17.2290   23.8150 C.3       6 GLP5        0.0000 
     42 CA         13.7580   16.7405   20.6095 C.3       3 GLC5        0.0000 
     43 CA         14.8520   14.8960   20.8650 C.3       6 GLP5        0.0000 
     44 CA         14.0795   19.7965   21.5205 C.3       3 GLC5        0.0000 
     45 N          10.1325   18.9545   21.2505 N.am      2 SEC2        0.0000 
     46 N          11.2440   18.7390   20.1230 N.am      8 SEL2        0.0000 
     47 N           9.0210   19.1700   22.3780 N.am      5 SEP2        0.0000 
     48 CA         10.9515   20.3050   19.5600 C.3       3 GLC5        0.0000 
     49 CA         11.0500   18.2250   18.7830 C.3       9 GLL5        0.0000 
     50 CA         10.8530   22.3850   20.3370 C.3       6 GLP5        0.0000 
     51 CA          9.1895   18.6595   19.2545 C.3       3 GLC5        0.0000 
     52 CA          7.3290   19.0940   19.7260 C.3       6 GLP5        0.0000 
     53 N           9.5805   19.9855   19.1500 N.am      2 SEC2        0.0000 
     54 N          10.1480   19.1240   18.1140 N.am      8 SEL2        0.0000 
     55 N           9.0130   20.8470   20.1860 N.am      5 SEP2        0.0000 
     56 CA         10.8815   21.0245   18.6690 C.3       3 GLC5        0.0000 
     57 CA         10.9100   19.6640   17.0010 C.3       9 GLL5        0.0000 
     58 CA         11.1680   23.5675   14.6365 C.3       3 GLC5        0.0000 
     59 CA         12.4140   21.9390   14.6750 C.3       9 GLL5        0.0000 
     60 CA          9.9220   25.1960   14.5980 C.3       6 GLP5        0.0000 
     61 CA         16.5635   20.2465   13.0365 C.3       3 GLC5        0.0000 
     62 CA         14.4250   20.5780   13.2280 C.3       9 GLL5        0.0000 
     63 CA         18.7020   19.9150   12.8450 C.3       6 GLP5        0.0000 
     64 CA         16.4680   22.1785   12.7940 C.3       3 GLC5        0.0000 
     65 CA         14.7790   21.6750   14.0430 C.3       9 GLL5        0.0000 
     66 CA         18.1570   22.6820   11.5450 C.3       6 GLP5        0.0000 
     67 CA         18.2610   28.3085   15.1820 C.3       3 GLC5        0.0000 
     68 CA         19.1680   27.4880   14.0360 C.3       9 GLL5        0.0000 
     69 CA         20.7110   26.5480   12.8290 C.3       3 GLC5        0.0000 
     70 CA         21.6020   25.4730   11.4120 C.3       6 GLP5        0.0000 
     71 CA         17.7877   27.4300   15.4537 C.3       3 GLC5        0.0000 
     72 CA         19.0705   27.3715   12.5442 C.3       3 GLC5        0.0000 
     73 CA         18.9750   27.7680   10.7580 C.3       6 GLP5        0.0000 
     74 CA         20.6494   25.6140   13.3221 C.3       3 GLC5        0.0000 
     75 CA         12.4105   20.4890   20.5912 C.3       3 GLC5        0.0000 
     76 CA         11.8320   22.2560   21.5140 C.3       6 GLP5        0.0000 
     77 CA         12.1542   22.1190   12.7195 C.3       3 GLC5        0.0000 
     78 CA         12.0620   22.8360   11.1880 C.3       6 GLP5        0.0000 
     79 CA         13.9050   19.7080   11.3675 C.3       3 GLC5        0.0000 
     80 CA         13.0950   20.1860   13.1440 C.3       9 GLL5        0.0000 
     81 CA         14.0500   19.0340    9.5490 C.3       6 GLP5        0.0000 
     82 CA         12.9110   21.6090   12.1870 C.3       3 GLC5        0.0000 
     83 CA         13.1640   22.4220   12.7938 C.3       3 GLC5        0.0000 
     84 CA         14.6569   23.8055   13.5120 C.3       3 GLC5        0.0000 
     85 CA         15.3262   19.4903   14.2993 C.3       3 GLC5        0.0000 
     86 CA         16.3830   17.9520   14.9840 C.3       6 GLP5        0.0000 
@<TRIPOS>BOND
@<TRIPOS>SUBSTRUCTURE
     1 ALC1        1 GROUP        1 X    ALC  0     ROOT ALC X 1
     2 SEC2       45 GROUP        1 X    SEC  0     **** SEC X 2
     3 GLC5        4 GROUP        1 X    GLC  0     **** GLC X 6
     4 ALP1        3 GROUP        1 Y    ALP  0     ROOT ALP Y 8
     5 SEP2       47 GROUP        1 Y    SEP  0     **** SEP Y 9
     6 GLP5        6 GROUP        1 Y    GLP  0     **** GLP Y 13
     7 ALL1        2 GROUP        1 Z    ALL  0     ROOT ALL Z 15
     8 SEL2       46 GROUP        1 Z    SEL  0     **** SEL Z 16
     9 GLL5        5 GROUP        1 Z    GLL  0     **** GLL Z 20
@<TRIPOS>SET

