#    Name: 3d1z_017_1_ligand
#    Modification time : Mon Mar 24 22:34:00 2014

@<TRIPOS>MOLECULE
3d1z_017_1_ligand
   75    78     1     0     0
SMALL
NO_CHARGES


@<TRIPOS>ATOM
      1 N1         21.0700   28.9230   14.0670 N.pl3     1 017201      0.0000 
      2 C2         20.4720   27.7580   14.4560 C.ar      1 017201      0.0000 
      3 C3         19.1680   27.4880   14.0360 C.ar      1 017201      0.0000 
      4 C4         18.5120   26.3270   14.4150 C.ar      1 017201      0.0000 
      5 C5         19.2350   25.4050   15.1640 C.ar      1 017201      0.0000 
      6 C6         20.5200   25.6440   15.6750 C.ar      1 017201      0.0000 
      7 C7         21.1700   26.8230   15.2410 C.ar      1 017201      0.0000 
      8 S8         18.3040   23.9630   15.8030 S.o2      1 017201      0.0000 
      9 O9         17.0730   23.7540   14.8900 O.2       1 017201      0.0000 
     10 O10        19.3240   22.7760   16.0170 O.2       1 017201      0.0000 
     11 N11        17.6830   24.3310   17.4470 N.pl3     1 017201      0.0000 
     12 C12        18.6770   24.6800   18.4900 C.3       1 017201      0.0000 
     13 C13        18.2560   24.0530   19.8520 C.3       1 017201      0.0000 
     14 C14        18.1120   22.5400   19.7320 C.3       1 017201      0.0000 
     15 C15        19.3780   24.3890   20.8290 C.3       1 017201      0.0000 
     16 C16        16.3850   25.0950   17.4320 C.3       1 017201      0.0000 
     17 C17        15.2450   24.1850   17.9850 C.3       1 017201      0.0000 
     18 O18        14.0920   24.9990   18.2010 O.3       1 017201      0.0000 
     19 C19        14.8600   23.0250   16.9990 C.3       1 017201      0.0000 
     20 N20        13.9850   22.1660   17.7370 N.am      1 017201      0.0000 
     21 C21        14.2760   20.8850   18.0330 C.2       1 017201      0.0000 
     22 O22        15.3380   20.2430   17.7540 O.2       1 017201      0.0000 
     23 O23        13.2080   20.3040   18.7250 O.3       1 017201      0.0000 
     24 C24        13.3140   18.8590   18.9830 C.3       1 017201      0.0000 
     25 C25        12.6640   18.5850   20.3540 C.3       1 017201      0.0000 
     26 O26        11.2440   18.7390   20.1230 O.3       1 017201      0.0000 
     27 C27        11.0500   18.2250   18.7830 C.3       1 017201      0.0000 
     28 O28        10.1480   19.1240   18.1140 O.3       1 017201      0.0000 
     29 C29        10.9100   19.6640   17.0010 C.3       1 017201      0.0000 
     30 C30        11.9870   18.6030   16.6670 C.3       1 017201      0.0000 
     31 C31        12.3210   18.1650   18.0720 C.3       1 017201      0.0000 
     32 C32        14.1120   23.4850   15.7020 C.3       1 017201      0.0000 
     33 C33        12.4140   21.9390   14.6750 C.ar      1 017201      0.0000 
     34 C34        12.0790   20.8650   13.8270 C.ar      1 017201      0.0000 
     35 C35        13.0950   20.1860   13.1440 C.ar      1 017201      0.0000 
     36 C36        14.4250   20.5780   13.2280 C.ar      1 017201      0.0000 
     37 C37        14.7790   21.6750   14.0430 C.ar      1 017201      0.0000 
     38 C38        13.7530   22.3410   14.7560 C.ar      1 017201      0.0000 
     39 H          20.4567   29.6878   13.8695 H         1 017201      0.0000 
     40 H          22.0685   28.9087   14.0139 H         1 017201      0.0000 
     41 H          18.6828   28.1744   13.4267 H         1 017201      0.0000 
     42 H          17.5507   26.1563   14.1593 H         1 017201      0.0000 
     43 H          20.9595   25.0145   16.3153 H         1 017201      0.0000 
     44 H          22.1429   26.9912   15.4988 H         1 017201      0.0000 
     45 H          18.7387   25.7569   18.6225 H         1 017201      0.0000 
     46 H          19.6601   24.2940   18.2339 H         1 017201      0.0000 
     47 H          17.3596   24.4983   20.1725 H         1 017201      0.0000 
     48 H          16.1285   25.3841   16.4221 H         1 017201      0.0000 
     49 H          16.4552   25.9712   18.0617 H         1 017201      0.0000 
     50 H          15.5848   23.7416   18.9022 H         1 017201      0.0000 
     51 H          15.7536   22.5094   16.7229 H         1 017201      0.0000 
     52 H          13.0724   22.5912   18.0501 H         1 017201      0.0000 
     53 H          14.2236   18.4624   18.9246 H         1 017201      0.0000 
     54 H          13.0386   19.3078   21.0514 H         1 017201      0.0000 
     55 H          12.9172   17.5862   20.6497 H         1 017201      0.0000 
     56 H          10.6098   17.2402   18.8360 H         1 017201      0.0000 
     57 H          11.4140   20.5767   17.2659 H         1 017201      0.0000 
     58 H          10.2986   19.8031   16.1269 H         1 017201      0.0000 
     59 H          12.8034   19.0720   16.2215 H         1 017201      0.0000 
     60 H          11.5473   17.8254   16.1315 H         1 017201      0.0000 
     61 H          12.5775   17.0782   18.0447 H         1 017201      0.0000 
     62 H          14.7523   24.2076   15.1787 H         1 017201      0.0000 
     63 H          13.1975   24.0115   16.0059 H         1 017201      0.0000 
     64 H          11.6957   22.4100   15.2154 H         1 017201      0.0000 
     65 H          11.1044   20.5879   13.7145 H         1 017201      0.0000 
     66 H          12.8419   19.3646   12.5577 H         1 017201      0.0000 
     67 H          15.1509   20.0815   12.7066 H         1 017201      0.0000 
     68 H          15.7382   21.9782   14.1168 H         1 017201      0.0000 
     69 H          18.9676   22.1068   19.4485 H         1 017201      0.0000 
     70 H          17.8457   22.1222   20.6007 H         1 017201      0.0000 
     71 H          17.4175   22.2852   19.0592 H         1 017201      0.0000 
     72 H          20.2555   24.0141   20.5300 H         1 017201      0.0000 
     73 H          19.5000   25.3765   20.9291 H         1 017201      0.0000 
     74 H          19.1981   24.0219   21.7416 H         1 017201      0.0000 
     75 H          14.2074   25.3720   19.1216 H         1 017201      0.0000 
@<TRIPOS>BOND
     1    2    1 1    
     2   39    1 1    
     3   40    1 1    
     4    3    2 ar   
     5    7    2 ar   
     6    4    3 ar   
     7   41    3 1    
     8    5    4 ar   
     9   42    4 1    
    10    6    5 ar   
    11    8    5 1    
    12    7    6 ar   
    13   43    6 1    
    14   44    7 1    
    15    9    8 2    
    16   10    8 2    
    17   11    8 1    
    18   12   11 1    
    19   16   11 1    
    20   13   12 1    
    21   45   12 1    
    22   46   12 1    
    23   14   13 1    
    24   15   13 1    
    25   47   13 1    
    26   69   14 1    
    27   70   14 1    
    28   71   14 1    
    29   72   15 1    
    30   73   15 1    
    31   74   15 1    
    32   17   16 1    
    33   48   16 1    
    34   49   16 1    
    35   18   17 1    
    36   19   17 1    
    37   50   17 1    
    38   75   18 1    
    39   20   19 1    
    40   32   19 1    
    41   51   19 1    
    42   21   20 am   
    43   52   20 1    
    44   22   21 2    
    45   23   21 1    
    46   24   23 1    
    47   25   24 1    
    48   31   24 1    
    49   53   24 1    
    50   26   25 1    
    51   54   25 1    
    52   55   25 1    
    53   27   26 1    
    54   28   27 1    
    55   31   27 1    
    56   56   27 1    
    57   29   28 1    
    58   30   29 1    
    59   57   29 1    
    60   58   29 1    
    61   31   30 1    
    62   59   30 1    
    63   60   30 1    
    64   61   31 1    
    65   38   32 1    
    66   62   32 1    
    67   63   32 1    
    68   34   33 ar   
    69   38   33 ar   
    70   64   33 1    
    71   35   34 ar   
    72   65   34 1    
    73   36   35 ar   
    74   66   35 1    
    75   37   36 ar   
    76   67   36 1    
    77   38   37 ar   
    78   68   37 1    
@<TRIPOS>SUBSTRUCTURE
     1 017201      1 GROUP   
@<TRIPOS>SET

