#    Name: 3ezt_B3N_1_INTS_M
#    Modification time : Tue Mar 25 02:59:14 2014

@<TRIPOS>MOLECULE
3ezt_B3N_1_INTS_M
   64     0     9     0     0
SMALL
NO_CHARGES


@<TRIPOS>ATOM
      1 CA          3.8080   18.4535   24.4445 C.3       3 GLC5        0.0000 
      2 CA          1.8700   18.2850   24.9410 C.3       9 GLL5        0.0000 
      3 CA          5.7460   18.6220   23.9480 C.3       6 GLP5        0.0000 
      4 CA         -0.3745   19.5780   20.5370 C.3       3 GLC5        0.0000 
      5 CA         -0.3840   20.1300   22.3190 C.3       9 GLL5        0.0000 
      6 CA         -0.3650   19.0260   18.7550 C.3       6 GLP5        0.0000 
      7 CA          0.1350   21.5920   22.5195 C.3       3 GLC5        0.0000 
      8 CA          0.6540   23.0540   22.7200 C.3       6 GLP5        0.0000 
      9 CA          0.7090   19.0010   20.3525 C.3       3 GLC5        0.0000 
     10 CA          1.7830   18.9760   21.9500 C.3       9 GLL5        0.0000 
     11 CA          3.7645   18.7990   22.9490 C.3       3 GLC5        0.0000 
     12 CA          1.8385   21.0655   22.0380 C.3       3 GLC5        0.0000 
     13 CA          1.8940   23.1550   22.1260 C.3       6 GLP5        0.0000 
     14 CA          3.2290   16.0340   31.9580 C.3       3 GLC5        0.0000 
     15 CA          2.0840   16.9460   30.6400 C.3       9 GLL5        0.0000 
     16 CA          4.3740   15.1220   33.2760 C.3       6 GLP5        0.0000 
     17 CA          3.0680   18.3310   29.9905 C.3       3 GLC5        0.0000 
     18 CA          4.0520   19.7160   29.3410 C.3       6 GLP5        0.0000 
     19 CA         -0.5820   13.2890   31.9200 C.3       3 GLC5        0.0000 
     20 CA          0.9740   13.2510   30.4520 C.3       9 GLL5        0.0000 
     21 CA         -2.1380   13.3270   33.3880 C.3       6 GLP5        0.0000 
     22 CA          1.8540   13.3020   32.2080 C.3       3 GLC5        0.0000 
     23 CA          2.7340   13.3530   33.9640 C.3       6 GLP5        0.0000 
     24 CA          3.2905   11.6725   30.4065 C.3       3 GLC5        0.0000 
     25 CA          1.2800   12.0760   29.5710 C.3       9 GLL5        0.0000 
     26 CA          5.3010   11.2690   31.2420 C.3       6 GLP5        0.0000 
     27 CA          3.0630    9.8255   30.7830 C.3       3 GLC5        0.0000 
     28 CA          1.2670    9.6400   30.0710 C.3       9 GLL5        0.0000 
     29 CA          4.8590   10.0110   31.4950 C.3       6 GLP5        0.0000 
     30 Zn          2.6310    8.5260   29.3240 Zn        2 ZIC7        0.0000 
     31 Zn          1.7580    9.1750   29.0490 Zn        8 ZIL7        0.0000 
     32 Zn          3.5040    7.8770   29.5990 Zn        5 ZIP7        0.0000 
     33 N           0.9630    9.6160   28.1120 N.am      1 SEC2        0.0000 
     34 N           1.7580    9.1750   29.0490 N.am      7 SEL2        0.0000 
     35 N           0.1680   10.0570   27.1750 N.am      4 SEP2        0.0000 
     36 N           1.4080    7.7665   32.3615 N.am      1 SEC2        0.0000 
     37 N           1.4270    9.0650   31.2630 N.am      7 SEL2        0.0000 
     38 N           1.3890    6.4680   33.4600 N.am      4 SEP2        0.0000 
     39 N           1.3925    9.4485   32.5600 N.am      1 SEC2        0.0000 
     40 N           1.3580    9.8320   33.8570 N.am      4 SEP2        0.0000 
     41 Zn          2.7925    7.9500   30.5065 Zn        2 ZIC7        0.0000 
     42 Zn          2.0810    8.0230   31.4140 Zn        8 ZIL7        0.0000 
     43 N           1.7350    7.2455   32.4370 N.am      1 SEC2        0.0000 
     44 N           2.0810    8.0230   31.4140 N.am      7 SEL2        0.0000 
     45 N           1.7195    8.9275   32.6355 N.am      1 SEC2        0.0000 
     46 CA          2.4532   19.5170   27.6762 C.3       3 GLC5        0.0000 
     47 CA          0.8060   18.4070   27.2420 C.3       9 GLL5        0.0000 
     48 CA          3.5610   20.8440   28.5500 C.3       6 GLP5        0.0000 
     49 CA          0.6267   21.1485   26.1960 C.3       3 GLC5        0.0000 
     50 CA         -0.3050   19.1640   26.6870 C.3       9 GLL5        0.0000 
     51 CA          1.5850   22.9690   26.4050 C.3       6 GLP5        0.0000 
     52 CA          2.3250   14.8880   32.2522 C.3       3 GLC5        0.0000 
     53 CA          1.7240   14.5120   30.0790 C.3       9 GLL5        0.0000 
     54 CA          3.1150   14.6910   33.9550 C.3       6 GLP5        0.0000 
     55 CA         -0.3823   14.3610   29.5499 C.3       3 GLC5        0.0000 
     56 CA          1.3460   15.6580   31.0200 C.3       9 GLL5        0.0000 
     57 CA         -2.0190   14.5540   28.5990 C.3       6 GLP5        0.0000 
     58 CA         -0.9095   12.4692   29.4610 C.3       3 GLC5        0.0000 
     59 CA         -2.6840   13.4500   29.1110 C.3       6 GLP5        0.0000 
     60 CA          0.4427   10.1618   32.0850 C.3       3 GLC5        0.0000 
     61 CA          0.4500   10.9010   30.0510 C.3       9 GLL5        0.0000 
     62 CA          0.0270   10.0530   34.1090 C.3       6 GLP5        0.0000 
     63 CA          0.7385   10.3291   27.8810 C.3       3 GLC5        0.0000 
     64 CA          0.4110   10.0940   25.8210 C.3       6 GLP5        0.0000 
@<TRIPOS>BOND
@<TRIPOS>SUBSTRUCTURE
     1 SEC2       33 GROUP        1 X    SEC  0     ROOT SEC X 2
     2 ZIC7       30 GROUP        1 X    ZIC  0     **** ZIC X 5
     3 GLC5        1 GROUP        1 X    GLC  0     **** GLC X 6
     4 SEP2       35 GROUP        1 Y    SEP  0     ROOT SEP Y 9
     5 ZIP7       32 GROUP        1 Y    ZIP  0     **** ZIP Y 12
     6 GLP5        3 GROUP        1 Y    GLP  0     **** GLP Y 13
     7 SEL2       34 GROUP        1 Z    SEL  0     ROOT SEL Z 16
     8 ZIL7       31 GROUP        1 Z    ZIL  0     **** ZIL Z 19
     9 GLL5        2 GROUP        1 Z    GLL  0     **** GLL Z 20
@<TRIPOS>SET

