#    Name: 3ezt_B3N_1_ligand
#    Modification time : Tue Mar 25 02:59:15 2014

@<TRIPOS>MOLECULE
3ezt_B3N_1_ligand
   46    46     1     0     0
SMALL
NO_CHARGES


@<TRIPOS>ATOM
      1 O23        -0.1150   18.4710   29.4390 O.2       1 B3N500      0.0000 
      2 C13         0.8260   18.0800   28.7330 C.2       1 B3N500      0.0000 
      3 C14         0.8060   18.4070   27.2420 C.ar      1 B3N500      0.0000 
      4 C15         1.8850   17.9730   26.3630 C.ar      1 B3N500      0.0000 
      5 C16         1.8700   18.2850   24.9410 C.ar      1 B3N500      0.0000 
      6 C17         0.7770   19.0430   24.3370 C.ar      1 B3N500      0.0000 
      7 N20         0.7380   19.3690   22.9040 N.pl3     1 B3N500      0.0000 
      8 C22        -0.3840   20.1300   22.3190 C.3       1 B3N500      0.0000 
      9 C21         1.7830   18.9760   21.9500 C.3       1 B3N500      0.0000 
     10 C18        -0.3580   19.4920   25.2870 C.ar      1 B3N500      0.0000 
     11 C19        -0.3050   19.1640   26.6870 C.ar      1 B3N500      0.0000 
     12 N12         1.8730   17.3690   29.2380 N.am      1 B3N500      0.0000 
     13 C10         2.0840   16.9460   30.6400 C.3       1 B3N500      0.0000 
     14 C9          1.3460   15.6580   31.0200 C.3       1 B3N500      0.0000 
     15 C8          1.7240   14.5120   30.0790 C.3       1 B3N500      0.0000 
     16 C7          0.9740   13.2510   30.4520 C.3       1 B3N500      0.0000 
     17 C6          1.2800   12.0760   29.5710 C.3       1 B3N500      0.0000 
     18 C5          0.4500   10.9010   30.0510 C.3       1 B3N500      0.0000 
     19 C1          1.2670    9.6400   30.0710 C.3       1 B3N500      0.0000 
     20 O2          1.7580    9.1750   29.0490 O.3       1 B3N500      0.0000 
     21 N3          1.4270    9.0650   31.2630 N.2       1 B3N500      0.0000 
     22 O4          2.0810    8.0230   31.4140 O.2       1 B3N500      0.0000 
     23 H           2.6598   17.4442   26.7499 H         1 B3N500      0.0000 
     24 H           2.6370   17.9690   24.3529 H         1 B3N500      0.0000 
     25 H          -1.1092   20.0088   24.8825 H         1 B3N500      0.0000 
     26 H          -1.0558   19.4643   27.3060 H         1 B3N500      0.0000 
     27 H           2.6597   17.0590   28.5749 H         1 B3N500      0.0000 
     28 H           1.7562   17.7457   31.3324 H         1 B3N500      0.0000 
     29 H           3.1636   16.7919   30.8329 H         1 B3N500      0.0000 
     30 H           0.2727   15.8306   30.9626 H         1 B3N500      0.0000 
     31 H           1.6061   15.3848   32.0412 H         1 B3N500      0.0000 
     32 H           2.7958   14.3349   30.1484 H         1 B3N500      0.0000 
     33 H           1.4779   14.7961   29.0574 H         1 B3N500      0.0000 
     34 H          -0.1127   13.4598   30.4200 H         1 B3N500      0.0000 
     35 H           1.2105   12.9929   31.5022 H         1 B3N500      0.0000 
     36 H           2.3297   11.8252   29.6397 H         1 B3N500      0.0000 
     37 H           1.0199   12.3038   28.5464 H         1 B3N500      0.0000 
     38 H          -0.4079   10.7732   29.3858 H         1 B3N500      0.0000 
     39 H           0.0763   11.1134   31.0561 H         1 B3N500      0.0000 
     40 H           0.0372    8.9024   29.8817 H         1 B3N500      0.0000 
     41 H          -0.4763   21.0345   22.7353 H         1 B3N500      0.0000 
     42 H          -0.2650   20.2705   21.3361 H         1 B3N500      0.0000 
     43 H          -1.2573   19.6592   22.4441 H         1 B3N500      0.0000 
     44 H           2.6741   19.3563   22.1977 H         1 B3N500      0.0000 
     45 H           1.8904   17.9828   21.9051 H         1 B3N500      0.0000 
     46 H           1.5773   19.2907   21.0234 H         1 B3N500      0.0000 
@<TRIPOS>BOND
     1    2    1 2    
     2    3    2 1    
     3   12    2 am   
     4    4    3 ar   
     5   11    3 ar   
     6    5    4 ar   
     7   23    4 1    
     8    6    5 ar   
     9   24    5 1    
    10    7    6 1    
    11   10    6 ar   
    12    8    7 1    
    13    9    7 1    
    14   41    8 1    
    15   42    8 1    
    16   43    8 1    
    17   44    9 1    
    18   45    9 1    
    19   46    9 1    
    20   11   10 ar   
    21   25   10 1    
    22   26   11 1    
    23   13   12 1    
    24   27   12 1    
    25   14   13 1    
    26   28   13 1    
    27   29   13 1    
    28   15   14 1    
    29   30   14 1    
    30   31   14 1    
    31   16   15 1    
    32   32   15 1    
    33   33   15 1    
    34   17   16 1    
    35   34   16 1    
    36   35   16 1    
    37   18   17 1    
    38   36   17 1    
    39   37   17 1    
    40   19   18 1    
    41   38   18 1    
    42   39   18 1    
    43   20   19 1    
    44   21   19 1    
    45   40   19 1    
    46   22   21 2    
@<TRIPOS>SUBSTRUCTURE
     1 B3N500      1 GROUP   
@<TRIPOS>SET

