#    Name: 2prh_238_2_INTS_M
#    Modification time : Mon Mar 24 19:19:24 2014

@<TRIPOS>MOLECULE
2prh_238_2_INTS_M
   98     0     9     0     0
SMALL
NO_CHARGES


@<TRIPOS>ATOM
      1 CA         54.1855   49.8335   -3.3155 C.3       3 GLC5        0.0000 
      2 CA         54.4340   48.0210   -3.2080 C.3       9 GLL5        0.0000 
      3 CA         53.9370   51.6460   -3.4230 C.3       6 GLP5        0.0000 
      4 CA         54.4390   48.4885   -5.0095 C.3       3 GLC5        0.0000 
      5 CA         54.4440   48.9560   -6.8110 C.3       6 GLP5        0.0000 
      6 CA         52.8410   48.0100   -4.0990 C.3       3 GLC5        0.0000 
      7 CA         51.2480   47.9990   -4.9900 C.3       6 GLP5        0.0000 
      8 CA         54.4195   46.5310   -4.7840 C.3       3 GLC5        0.0000 
      9 CA         54.4050   45.0410   -6.3600 C.3       6 GLP5        0.0000 
     10 CA         56.3540   50.7020    0.1680 C.3       3 GLC5        0.0000 
     11 CA         56.3970   48.5680   -0.1080 C.3       9 GLL5        0.0000 
     12 CA         56.3110   52.8360    0.4440 C.3       6 GLP5        0.0000 
     13 CA         55.0670   44.5385    0.1490 C.3       3 GLC5        0.0000 
     14 CA         54.8460   46.6430    0.2590 C.3       9 GLL5        0.0000 
     15 CA         55.2880   42.4340    0.0390 C.3       6 GLP5        0.0000 
     16 CA         49.0045   44.6225   -1.8080 C.3       3 GLC5        0.0000 
     17 CA         51.1290   44.6550   -1.1350 C.3       9 GLL5        0.0000 
     18 CA         46.8800   44.5900   -2.4810 C.3       6 GLP5        0.0000 
     19 CA         47.1235   36.9460   -3.7780 C.3       3 GLC5        0.0000 
     20 CA         46.5990   37.3740   -1.8630 C.3       9 GLL5        0.0000 
     21 CA         47.6480   36.5180   -5.6930 C.3       6 GLP5        0.0000 
     22 CA         46.1615   35.4460   -1.7315 C.3       3 GLC5        0.0000 
     23 CA         45.7240   33.5180   -1.6000 C.3       6 GLP5        0.0000 
     24 CA         44.5840   37.3050   -2.2415 C.3       3 GLC5        0.0000 
     25 CA         42.5690   37.2360   -2.6200 C.3       6 GLP5        0.0000 
     26 CA         45.8625   36.8675   -0.1605 C.3       3 GLC5        0.0000 
     27 CA         45.1260   36.3610    1.5420 C.3       6 GLP5        0.0000 
     28 CA         47.7950   37.9705   -4.3155 C.3       3 GLC5        0.0000 
     29 CA         47.9420   39.4230   -2.9380 C.3       9 GLL5        0.0000 
     30 CA         47.7150   42.2630   -3.3225 C.3       3 GLC5        0.0000 
     31 CA         49.1660   41.3560   -4.0990 C.3       9 GLL5        0.0000 
     32 CA         46.2640   43.1700   -2.5460 C.3       6 GLP5        0.0000 
     33 NZ         49.0785   39.7940   -7.3650 N.4       2 LYC4        0.0000 
     34 NZ         49.3590   40.3300   -6.1810 N.4       8 LYL4        0.0000 
     35 NZ         47.5900   39.4510   -9.0550 N.4       5 LYP4        0.0000 
     36 N          48.0200   40.2335   -7.2770 N.am      1 SEC2        0.0000 
     37 N          49.3590   40.3300   -6.1810 N.am      7 SEL2        0.0000 
     38 N          46.6810   40.1370   -8.3730 N.am      4 SEP2        0.0000 
     39 N          49.0785   39.7940   -7.3650 N.am      1 SEC2        0.0000 
     40 N          48.7980   39.2580   -8.5490 N.am      4 SEP2        0.0000 
     41 NZ         48.0200   40.2335   -7.2770 N.4       2 LYC4        0.0000 
     42 NZ         47.3990   41.2040   -5.7900 N.4       8 LYL4        0.0000 
     43 N          46.8845   42.3460   -6.5620 N.am      1 SEC2        0.0000 
     44 N          47.3990   41.2040   -5.7900 N.am      7 SEL2        0.0000 
     45 N          46.3700   43.4880   -7.3340 N.am      4 SEP2        0.0000 
     46 N          47.0400   40.6705   -7.0815 N.am      1 SEC2        0.0000 
     47 CA         49.3745   43.2370   -6.9330 C.3       3 GLC5        0.0000 
     48 CA         50.3890   43.2750   -5.2070 C.3       9 GLL5        0.0000 
     49 CA         48.3600   43.1990   -8.6590 C.3       6 GLP5        0.0000 
     50 CA         53.4105   48.8965   -1.5910 C.3       3 GLC5        0.0000 
     51 CA         52.1460   49.8480   -0.6050 C.3       6 GLP5        0.0000 
     52 CA         54.6788   49.3680   -0.1395 C.3       3 GLC5        0.0000 
     53 CA         55.9660   48.6640   -1.4480 C.3       9 GLL5        0.0000 
     54 CA         53.1760   50.1200    0.4990 C.3       6 GLP5        0.0000 
     55 CA         57.7040   46.5667    0.2933 C.3       3 GLC5        0.0000 
     56 CA         59.2220   45.1310    0.3020 C.3       6 GLP5        0.0000 
     57 CA         54.4548   47.5430    2.3095 C.3       3 GLC5        0.0000 
     58 CA         55.9750   47.4370    0.6770 C.3       9 GLL5        0.0000 
     59 CA         53.4990   48.0460    4.1510 C.3       6 GLP5        0.0000 
     60 CA         54.2933   48.5800    0.4835 C.3       3 GLC5        0.0000 
     61 CA         56.1880   48.3154    1.7699 C.3       3 GLC5        0.0000 
     62 CA         56.8600   49.3080    3.2680 C.3       6 GLP5        0.0000 
     63 CA         51.8150   46.1167   -3.1028 C.3       3 GLC5        0.0000 
     64 CA         53.2620   45.8530   -1.4710 C.3       9 GLL5        0.0000 
     65 CA         50.2180   46.7820   -4.1660 C.3       6 GLP5        0.0000 
     66 CA         53.5855   43.9537   -1.0278 C.3       3 GLC5        0.0000 
     67 CA         53.5620   45.0500   -2.6080 C.3       9 GLL5        0.0000 
     68 CA         53.7590   42.4560   -0.0160 C.3       6 GLP5        0.0000 
     69 CA         53.7698   44.7990   -4.5972 C.3       3 GLC5        0.0000 
     70 CA         50.8970   45.9695   -2.5388 C.3       3 GLC5        0.0000 
     71 CA         52.6675   43.8065   -0.4637 C.3       3 GLC5        0.0000 
     72 CA         50.1250   45.8520    0.4123 C.3       3 GLC5        0.0000 
     73 CA         48.6740   46.5470    1.7360 C.3       6 GLP5        0.0000 
     74 CA         52.5293   47.9249   -0.7926 C.3       3 GLC5        0.0000 
     75 CA         52.0230   45.6590   -0.6880 C.3       9 GLL5        0.0000 
     76 CA         51.1520   45.3795   -3.4210 C.3       3 GLC5        0.0000 
     77 CA         51.4650   43.8900   -2.2910 C.3       9 GLL5        0.0000 
     78 CA         52.5367   42.9290   -1.3658 C.3       3 GLC5        0.0000 
     79 CA         50.5430   42.8270   -2.7550 C.3       9 GLL5        0.0000 
     80 CA         48.5872   43.6298   -2.9410 C.3       3 GLC5        0.0000 
     81 CA         50.6940   39.6543   -1.6787 C.3       3 GLC5        0.0000 
     82 CA         49.3740   40.9660   -1.6760 C.3       9 GLL5        0.0000 
     83 CA         52.2930   38.5370   -1.0660 C.3       6 GLP5        0.0000 
     84 CA         47.7940   41.5390   -1.1218 C.3       3 GLC5        0.0000 
     85 CA         46.3550   42.4670   -1.1810 C.3       6 GLP5        0.0000 
     86 CA         49.9750   38.5590   -0.5822 C.3       3 GLC5        0.0000 
     87 CA         49.0920   40.2560   -0.4490 C.3       9 GLL5        0.0000 
     88 CA         51.2920   37.4300   -0.6990 C.3       6 GLP5        0.0000 
     89 CA         47.1472   40.6935   -1.1500 C.3       3 GLC5        0.0000 
     90 CA         48.2240   39.1200   -0.4820 C.3       9 GLL5        0.0000 
     91 CA         49.5453   38.2508   -1.5230 C.3       3 GLC5        0.0000 
     92 CA         47.6550   38.7200   -1.7560 C.3       9 GLL5        0.0000 
     93 CA         47.3670   41.2335   -2.0518 C.3       3 GLC5        0.0000 
     94 CA         50.6995   40.4467   -4.4860 C.3       3 GLC5        0.0000 
     95 CA         48.8160   40.5770   -2.9070 C.3       9 GLL5        0.0000 
     96 CA         52.4080   39.9270   -5.4690 C.3       6 GLP5        0.0000 
     97 CA         50.2799   44.8771   -4.2350 C.3       3 GLC5        0.0000 
     98 CA         51.3749   41.4496   -4.8865 C.3       3 GLC5        0.0000 
@<TRIPOS>BOND
@<TRIPOS>SUBSTRUCTURE
     1 SEC2       36 GROUP        1 X    SEC  0     ROOT SEC X 2
     2 LYC4       33 GROUP        1 X    LYC  0     **** LYC X 4
     3 GLC5        1 GROUP        1 X    GLC  0     **** GLC X 6
     4 SEP2       38 GROUP        1 Y    SEP  0     ROOT SEP Y 9
     5 LYP4       35 GROUP        1 Y    LYP  0     **** LYP Y 11
     6 GLP5        3 GROUP        1 Y    GLP  0     **** GLP Y 13
     7 SEL2       37 GROUP        1 Z    SEL  0     ROOT SEL Z 16
     8 LYL4       34 GROUP        1 Z    LYL  0     **** LYL Z 18
     9 GLL5        2 GROUP        1 Z    GLL  0     **** GLL Z 20
@<TRIPOS>SET

