#    Name: 2prh_238_2_ligand
#    Modification time : Mon Mar 24 19:19:24 2014

@<TRIPOS>MOLECULE
2prh_238_2_ligand
   42    45     1     0     0
SMALL
NO_CHARGES


@<TRIPOS>ATOM
      1 F1         54.4340   48.0210   -3.2080 F         1 238400      0.0000 
      2 C19        54.9160   47.8690   -1.9460 C.ar      1 238400      0.0000 
      3 C22        55.9660   48.6640   -1.4480 C.ar      1 238400      0.0000 
      4 C21        56.3970   48.5680   -0.1080 C.ar      1 238400      0.0000 
      5 C20        55.9750   47.4370    0.6770 C.ar      1 238400      0.0000 
      6 C18        54.8460   46.6430    0.2590 C.ar      1 238400      0.0000 
      7 C17        54.3420   46.8360   -1.0740 C.ar      1 238400      0.0000 
      8 C16        53.2620   45.8530   -1.4710 C.ar      1 238400      0.0000 
      9 C12        53.5620   45.0500   -2.6080 C.ar      1 238400      0.0000 
     10 C13        52.0230   45.6590   -0.6880 C.ar      1 238400      0.0000 
     11 C9         51.1290   44.6550   -1.1350 C.ar      1 238400      0.0000 
     12 C23        51.4650   43.8900   -2.2910 C.ar      1 238400      0.0000 
     13 C8         52.7070   44.0640   -3.0610 C.ar      1 238400      0.0000 
     14 C3         50.5430   42.8270   -2.7550 C.ar      1 238400      0.0000 
     15 N1         50.2120   42.0480   -1.6180 N.ar      1 238400      0.0000 
     16 C7         49.3740   40.9660   -1.6760 C.ar      1 238400      0.0000 
     17 C11        49.0920   40.2560   -0.4490 C.ar      1 238400      0.0000 
     18 C15        48.2240   39.1200   -0.4820 C.ar      1 238400      0.0000 
     19 C14        47.6550   38.7200   -1.7560 C.ar      1 238400      0.0000 
     20 CL1        46.5990   37.3740   -1.8630 Cl        1 238400      0.0000 
     21 C10        47.9420   39.4230   -2.9380 C.ar      1 238400      0.0000 
     22 C6         48.8160   40.5770   -2.9070 C.ar      1 238400      0.0000 
     23 C4         49.1660   41.3560   -4.0990 C.ar      1 238400      0.0000 
     24 C5         48.6220   40.9270   -5.4340 C.2       1 238400      0.0000 
     25 O2         49.3590   40.3300   -6.1810 O.co2     1 238400      0.0000 
     26 O1         47.3990   41.2040   -5.7900 O.co2     1 238400      0.0000 
     27 C2         50.0460   42.5120   -4.0470 C.ar      1 238400      0.0000 
     28 C1         50.3890   43.2750   -5.2070 C.3       1 238400      0.0000 
     29 H          56.4340   49.3358   -2.0796 H         1 238400      0.0000 
     30 H          56.9897   49.2714    0.3046 H         1 238400      0.0000 
     31 H          56.4726   47.1973    1.5265 H         1 238400      0.0000 
     32 H          54.4288   45.9808    0.8769 H         1 238400      0.0000 
     33 H          54.4606   45.2258   -3.1024 H         1 238400      0.0000 
     34 H          51.8526   46.2198    0.1077 H         1 238400      0.0000 
     35 H          50.2621   44.4795   -0.6435 H         1 238400      0.0000 
     36 H          52.8780   43.4899   -3.8457 H         1 238400      0.0000 
     37 H          49.5058   40.5635    0.4165 H         1 238400      0.0000 
     38 H          48.0077   38.6060    0.3489 H         1 238400      0.0000 
     39 H          47.5431   39.1349   -3.8297 H         1 238400      0.0000 
     40 H          51.3750   43.2745   -5.3736 H         1 238400      0.0000 
     41 H          49.9523   42.9144   -6.0312 H         1 238400      0.0000 
     42 H          50.1069   44.2304   -5.1199 H         1 238400      0.0000 
@<TRIPOS>BOND
     1    2    1 1    
     2    3    2 ar   
     3    7    2 ar   
     4    4    3 ar   
     5   29    3 1    
     6    5    4 ar   
     7   30    4 1    
     8    6    5 ar   
     9   31    5 1    
    10    7    6 ar   
    11   32    6 1    
    12    8    7 1    
    13    9    8 ar   
    14   10    8 ar   
    15   13    9 ar   
    16   33    9 1    
    17   11   10 ar   
    18   34   10 1    
    19   12   11 ar   
    20   35   11 1    
    21   13   12 ar   
    22   14   12 1    
    23   36   13 1    
    24   15   14 ar   
    25   27   14 ar   
    26   16   15 ar   
    27   17   16 ar   
    28   22   16 ar   
    29   18   17 ar   
    30   37   17 1    
    31   19   18 ar   
    32   38   18 1    
    33   20   19 1    
    34   21   19 ar   
    35   22   21 ar   
    36   39   21 1    
    37   23   22 ar   
    38   24   23 1    
    39   27   23 ar   
    40   25   24 ar   
    41   26   24 ar   
    42   28   27 1    
    43   40   28 1    
    44   41   28 1    
    45   42   28 1    
@<TRIPOS>SUBSTRUCTURE
     1 238400      1 GROUP   
@<TRIPOS>SET

