#    Name: 2oax_SNL_2_INTS_M
#    Modification time : Tue Mar 25 22:11:40 2014

@<TRIPOS>MOLECULE
2oax_SNL_2_INTS_M
   85     0     6     0     0
SMALL
NO_CHARGES


@<TRIPOS>ATOM
      1 CA         37.4995   20.0675   80.1445 C.3       2 GLC5        0.0000 
      2 CA         37.9780   21.9170   79.0070 C.3       6 GLL5        0.0000 
      3 CA         37.0210   18.2180   81.2820 C.3       4 GLP5        0.0000 
      4 CA         41.4420   27.1325   82.1690 C.3       2 GLC5        0.0000 
      5 CA         43.3230   26.9400   80.9910 C.3       6 GLL5        0.0000 
      6 CA         39.5610   27.3250   83.3470 C.3       4 GLP5        0.0000 
      7 CA         42.9425   27.9050   79.0855 C.3       2 GLC5        0.0000 
      8 CA         42.5620   28.8700   77.1800 C.3       4 GLP5        0.0000 
      9 CA         41.6255   27.4845   78.3280 C.3       2 GLC5        0.0000 
     10 CA         40.6890   26.0990   79.4760 C.3       6 GLL5        0.0000 
     11 CA         40.3030   21.5755   77.4105 C.3       2 GLC5        0.0000 
     12 CA         39.3720   21.6900   79.2590 C.3       6 GLL5        0.0000 
     13 CA         41.2340   21.4610   75.5620 C.3       4 GLP5        0.0000 
     14 CA         40.0930   19.9570   79.9265 C.3       2 GLC5        0.0000 
     15 CA         40.8140   18.2240   80.5940 C.3       4 GLP5        0.0000 
     16 CA         40.6910   24.4315   75.3000 C.3       2 GLC5        0.0000 
     17 CA         39.5100   24.1910   76.9710 C.3       6 GLL5        0.0000 
     18 CA         41.8720   24.6720   73.6290 C.3       4 GLP5        0.0000 
     19 CA         40.3720   22.8260   76.2665 C.3       2 GLC5        0.0000 
     20 CA         38.6670   23.7505   75.3900 C.3       2 GLC5        0.0000 
     21 CA         37.8240   23.3100   73.8090 C.3       4 GLP5        0.0000 
     22 CA         43.1470   27.2490   77.8885 C.3       2 GLC5        0.0000 
     23 CA         43.7320   25.6280   78.5970 C.3       6 GLL5        0.0000 
     24 CA         45.1765   26.1950   77.6595 C.3       2 GLC5        0.0000 
     25 CA         46.6210   26.7620   76.7220 C.3       4 GLP5        0.0000 
     26 CA         37.0220   22.8460   81.6660 C.3       2 GLC5        0.0000 
     27 CA         36.6320   23.8350   80.0260 C.3       6 GLL5        0.0000 
     28 CA         37.4120   21.8570   83.3060 C.3       4 GLP5        0.0000 
     29 CA         35.5095   22.4020   79.7100 C.3       2 GLC5        0.0000 
     30 CA         34.3870   20.9690   79.3940 C.3       4 GLP5        0.0000 
     31 CA         34.6515   23.2445   79.8575 C.3       2 GLC5        0.0000 
     32 CA         35.6780   24.8330   79.3630 C.3       6 GLL5        0.0000 
     33 CA         33.6250   21.6560   80.3520 C.3       4 GLP5        0.0000 
     34 CA         43.4790   21.2330   84.5855 C.3       2 GLC5        0.0000 
     35 CA         41.8000   20.2840   84.2660 C.3       6 GLL5        0.0000 
     36 CA         45.1580   22.1820   84.9050 C.3       4 GLP5        0.0000 
     37 CA         41.8730   22.2150   85.0280 C.3       2 GLC5        0.0000 
     38 CA         41.9460   24.1460   85.7900 C.3       4 GLP5        0.0000 
     39 CA         40.9875   19.2085   85.6110 C.3       2 GLC5        0.0000 
     40 CA         40.1750   18.1330   86.9560 C.3       4 GLP5        0.0000 
     41 CA         43.4560   19.0020   83.8440 C.3       2 GLC5        0.0000 
     42 CA         45.1120   17.7200   83.4220 C.3       4 GLP5        0.0000 
     43 CA         41.3070   19.2540   82.4300 C.3       2 GLC5        0.0000 
     44 CA         46.1940   22.7175   81.1365 C.3       2 GLC5        0.0000 
     45 CA         45.0300   24.5410   81.7170 C.3       6 GLL5        0.0000 
     46 CA         47.3580   20.8940   80.5560 C.3       4 GLP5        0.0000 
     47 CA         46.2245   23.7695   82.9815 C.3       2 GLC5        0.0000 
     48 CA         47.4190   22.9980   84.2460 C.3       4 GLP5        0.0000 
     49 CA         45.5450   21.8035   80.4925 C.3       2 GLC5        0.0000 
     50 CA         43.7320   22.7130   80.4290 C.3       6 GLL5        0.0000 
     51 CA         42.6735   20.3350   79.9140 C.3       2 GLC5        0.0000 
     52 CA         42.3170   22.4010   80.3510 C.3       6 GLL5        0.0000 
     53 CA         43.0300   18.2690   79.4770 C.3       4 GLP5        0.0000 
     54 CA         40.5970   26.1725   81.7425 C.3       2 GLC5        0.0000 
     55 CA         41.6330   25.0200   80.1380 C.3       6 GLL5        0.0000 
     56 N          47.4230   26.5255   83.6125 N.am      1 SEC2        0.0000 
     57 N          46.3410   26.1190   82.8720 N.am      5 SEL2        0.0000 
     58 N          48.5050   26.9320   84.3530 N.am      3 SEP2        0.0000 
     59 CA         42.1550   23.4985   83.4615 C.3       2 GLC5        0.0000 
     60 CA         41.5810   22.2780   82.1380 C.3       6 GLL5        0.0000 
     61 CA         42.7290   24.7190   84.7850 C.3       4 GLP5        0.0000 
     62 CA         39.4965   22.0675   82.7220 C.3       2 GLC5        0.0000 
     63 CA         41.1975   20.2510   81.3660 C.3       2 GLC5        0.0000 
     64 CA         38.0435   21.8302   81.2195 C.3       2 GLC5        0.0000 
     65 CA         36.1045   21.8062   79.1523 C.3       2 GLC5        0.0000 
     66 CA         37.5970   22.2188   76.8127 C.3       2 GLC5        0.0000 
     67 CA         37.3720   21.7940   74.7150 C.3       4 GLP5        0.0000 
     68 CA         39.3685   26.9507   80.8375 C.3       2 GLC5        0.0000 
     69 CA         39.2230   25.6120   79.4000 C.3       6 GLL5        0.0000 
     70 CA         38.7810   28.0460   82.2370 C.3       4 GLP5        0.0000 
     71 CA         41.7297   22.4080   77.9825 C.3       2 GLC5        0.0000 
     72 CA         39.9400   23.0930   79.4260 C.3       6 GLL5        0.0000 
     73 CA         42.7650   21.5540   76.4980 C.3       4 GLP5        0.0000 
     74 CA         44.2437   28.6665   82.2818 C.3       2 GLC5        0.0000 
     75 CA         44.4000   30.2790   83.4120 C.3       4 GLP5        0.0000 
     76 CA         43.7377   26.4905   83.0867 C.3       2 GLC5        0.0000 
     77 CA         44.8520   27.1680   81.3120 C.3       6 GLL5        0.0000 
     78 CA         43.3880   25.9270   85.0220 C.3       4 GLP5        0.0000 
     79 CA         35.2520   24.7720   81.1167 C.3       2 GLC5        0.0000 
     80 CA         34.3490   25.2100   82.5390 C.3       4 GLP5        0.0000 
     81 CA         45.9518   24.5602   79.6565 C.3       2 GLC5        0.0000 
     82 CA         44.0470   24.2600   80.8050 C.3       6 GLL5        0.0000 
     83 CA         47.3650   24.7200   78.0520 C.3       4 GLP5        0.0000 
     84 CA         43.6337   24.5598   83.0230 C.3       2 GLC5        0.0000 
     85 CA         42.8948   22.0555   78.4440 C.3       2 GLC5        0.0000 
@<TRIPOS>BOND
@<TRIPOS>SUBSTRUCTURE
     1 SEC2       56 GROUP        1 X    SEC  0     ROOT SEC X 2
     2 GLC5        1 GROUP        1 X    GLC  0     **** GLC X 6
     3 SEP2       58 GROUP        1 Y    SEP  0     ROOT SEP Y 9
     4 GLP5        3 GROUP        1 Y    GLP  0     **** GLP Y 13
     5 SEL2       57 GROUP        1 Z    SEL  0     ROOT SEL Z 16
     6 GLL5        2 GROUP        1 Z    GLL  0     **** GLL Z 20
@<TRIPOS>SET

