#    Name: 2oax_SNL_2_ligand
#    Modification time : Tue Mar 25 22:11:40 2014

@<TRIPOS>MOLECULE
2oax_SNL_2_ligand
   61    65     1     0     0
SMALL
NO_CHARGES


@<TRIPOS>ATOM
      1 C8         37.9780   21.9170   79.0070 C.3       1 SNL2001     0.0000 
      2 C4         39.2230   25.6120   79.4000 C.3       1 SNL2001     0.0000 
      3 C5         39.0540   24.1180   78.5960 C.3       1 SNL2001     0.0000 
      4 C2         43.0910   25.4750   80.1470 C.3       1 SNL2001     0.0000 
      5 C6         39.9400   23.0930   79.4260 C.3       1 SNL2001     0.0000 
      6 C1         43.3230   26.9400   80.9910 C.3       1 SNL2001     0.0000 
      7 C3         40.6890   26.0990   79.4760 C.3       1 SNL2001     0.0000 
      8 C7         39.3720   21.6900   79.2590 C.3       1 SNL2001     0.0000 
      9 C9         37.6660   23.3700   78.8140 C.3       1 SNL2001     0.0000 
     10 C10        39.5100   24.1910   76.9710 C.3       1 SNL2001     0.0000 
     11 C11        43.7320   25.6280   78.5970 C.3       1 SNL2001     0.0000 
     12 C12        44.8520   27.1680   81.3120 C.3       1 SNL2001     0.0000 
     13 C13        36.6320   23.8350   80.0260 C.3       1 SNL2001     0.0000 
     14 C14        35.6780   24.8330   79.3630 C.3       1 SNL2001     0.0000 
     15 C15        35.8430   24.4960   77.8680 C.2       1 SNL2001     0.0000 
     16 C16        42.2210   20.8360   82.8850 C.2       1 SNL2001     0.0000 
     17 C17        41.8000   20.2840   84.2660 C.3       1 SNL2001     0.0000 
     18 C18        45.4660   25.9510   82.0290 C.2       1 SNL2001     0.0000 
     19 C19        45.0300   24.5410   81.7170 C.2       1 SNL2001     0.0000 
     20 C20        44.0470   24.2600   80.8050 C.2       1 SNL2001     0.0000 
     21 C21        43.7320   22.7130   80.4290 C.3       1 SNL2001     0.0000 
     22 C22        42.3170   22.4010   80.3510 C.3       1 SNL2001     0.0000 
     23 C23        41.4490   23.4310   79.5080 C.3       1 SNL2001     0.0000 
     24 C24        41.6330   25.0200   80.1380 C.3       1 SNL2001     0.0000 
     25 O57        35.1860   24.9900   77.0020 O.2       1 SNL2001     0.0000 
     26 O58        36.8870   23.5000   77.6780 O.3       1 SNL2001     0.0000 
     27 O59        43.1170   20.2330   82.3070 O.2       1 SNL2001     0.0000 
     28 O60        46.3410   26.1190   82.8720 O.2       1 SNL2001     0.0000 
     29 S61        41.5810   22.2780   82.1380 S.3       1 SNL2001     0.0000 
     30 H          37.3587   21.5364   79.8441 H         1 SNL2001     0.0000 
     31 H          37.6457   21.3669   78.1037 H         1 SNL2001     0.0000 
     32 H          38.8101   25.4511   80.3847 H         1 SNL2001     0.0000 
     33 H          38.6070   26.3031   78.8443 H         1 SNL2001     0.0000 
     34 H          39.5401   23.3877   80.5493 H         1 SNL2001     0.0000 
     35 H          42.7565   26.8500   81.8890 H         1 SNL2001     0.0000 
     36 H          42.9521   27.7058   80.3497 H         1 SNL2001     0.0000 
     37 H          40.7399   27.0057   80.0708 H         1 SNL2001     0.0000 
     38 H          41.0560   26.3032   78.4750 H         1 SNL2001     0.0000 
     39 H          39.8613   21.2218   78.4284 H         1 SNL2001     0.0000 
     40 H          39.5345   21.1470   80.1685 H         1 SNL2001     0.0000 
     41 H          44.9380   28.0463   81.9430 H         1 SNL2001     0.0000 
     42 H          45.3720   27.3420   80.3759 H         1 SNL2001     0.0000 
     43 H          37.2236   24.2948   80.7621 H         1 SNL2001     0.0000 
     44 H          36.1294   22.9671   80.3380 H         1 SNL2001     0.0000 
     45 H          36.0055   25.8169   79.5413 H         1 SNL2001     0.0000 
     46 H          34.6882   24.6377   79.6617 H         1 SNL2001     0.0000 
     47 H          45.5249   23.8017   82.2396 H         1 SNL2001     0.0000 
     48 H          44.2496   22.1129   81.1959 H         1 SNL2001     0.0000 
     49 H          44.2524   22.5309   79.4739 H         1 SNL2001     0.0000 
     50 H          42.1025   21.3943   80.0198 H         1 SNL2001     0.0000 
     51 H          41.8628   23.5041   78.5093 H         1 SNL2001     0.0000 
     52 H          41.3053   24.9120   81.2010 H         1 SNL2001     0.0000 
     53 H          40.4667   24.4622   76.8656 H         1 SNL2001     0.0000 
     54 H          39.4040   23.3071   76.5155 H         1 SNL2001     0.0000 
     55 H          38.9600   24.8518   76.4603 H         1 SNL2001     0.0000 
     56 H          44.7111   25.8302   78.6183 H         1 SNL2001     0.0000 
     57 H          43.6173   24.7901   78.0633 H         1 SNL2001     0.0000 
     58 H          43.2916   26.3648   78.0840 H         1 SNL2001     0.0000 
     59 H          42.5624   20.2816   84.9131 H         1 SNL2001     0.0000 
     60 H          41.0688   20.8288   84.6765 H         1 SNL2001     0.0000 
     61 H          41.4654   19.3437   84.2038 H         1 SNL2001     0.0000 
@<TRIPOS>BOND
     1    8    1 1    
     2    9    1 1    
     3   30    1 1    
     4   31    1 1    
     5    3    2 1    
     6    7    2 1    
     7   32    2 1    
     8   33    2 1    
     9    5    3 1    
    10    9    3 1    
    11   10    3 1    
    12    6    4 1    
    13   11    4 1    
    14   20    4 1    
    15   24    4 1    
    16    8    5 1    
    17   23    5 1    
    18   34    5 1    
    19   12    6 1    
    20   35    6 1    
    21   36    6 1    
    22   24    7 1    
    23   37    7 1    
    24   38    7 1    
    25   39    8 1    
    26   40    8 1    
    27   13    9 1    
    28   26    9 1    
    29   53   10 1    
    30   54   10 1    
    31   55   10 1    
    32   56   11 1    
    33   57   11 1    
    34   58   11 1    
    35   18   12 1    
    36   41   12 1    
    37   42   12 1    
    38   14   13 1    
    39   43   13 1    
    40   44   13 1    
    41   15   14 1    
    42   45   14 1    
    43   46   14 1    
    44   25   15 2    
    45   26   15 1    
    46   17   16 1    
    47   27   16 2    
    48   29   16 1    
    49   59   17 1    
    50   60   17 1    
    51   61   17 1    
    52   19   18 1    
    53   28   18 2    
    54   20   19 2    
    55   47   19 1    
    56   21   20 1    
    57   22   21 1    
    58   48   21 1    
    59   49   21 1    
    60   23   22 1    
    61   29   22 1    
    62   50   22 1    
    63   24   23 1    
    64   51   23 1    
    65   52   24 1    
@<TRIPOS>SUBSTRUCTURE
     1 SNL2001     1 GROUP   
@<TRIPOS>SET

