#    Name: 3kf4_B90_2_INTS_M
#    Modification time : Mon Mar 24 19:24:49 2014

@<TRIPOS>MOLECULE
3kf4_B90_2_INTS_M
   79     0     9     0     0
SMALL
NO_CHARGES


@<TRIPOS>ATOM
      1 N          67.5510   -4.6430  -16.0825 N.am      2 SEC2        0.0000 
      2 N          67.8720   -5.8880  -16.6410 N.am      8 SEL2        0.0000 
      3 N          67.2300   -3.3980  -15.5240 N.am      5 SEP2        0.0000 
      4 O          68.7500   -6.5785  -14.5780 O.2       1 ALC1        0.0000 
      5 O          68.2060   -6.8440  -15.7670 O.2       7 ALL1        0.0000 
      6 O          69.2940   -6.3130  -13.3890 O.2       4 ALP1        0.0000 
      7 CA         70.6565  -10.4155  -20.7495 C.3       3 GLC5        0.0000 
      8 CA         69.3810  -11.1700  -19.3300 C.3       9 GLL5        0.0000 
      9 CA         71.9320   -9.6610  -22.1690 C.3       6 GLP5        0.0000 
     10 CA         68.7380  -11.3065  -21.0995 C.3       3 GLC5        0.0000 
     11 CA         68.0950  -11.4430  -22.8690 C.3       6 GLP5        0.0000 
     12 CA         70.2025  -12.6820  -20.0410 C.3       3 GLC5        0.0000 
     13 CA         71.0240  -14.1940  -20.7520 C.3       6 GLP5        0.0000 
     14 CA         67.6810  -11.2910  -18.4165 C.3       3 GLC5        0.0000 
     15 CA         65.9810  -11.4120  -17.5030 C.3       6 GLP5        0.0000 
     16 CA         70.2205   -9.0440  -21.1870 C.3       3 GLC5        0.0000 
     17 CA         68.5090   -8.4270  -20.2050 C.3       9 GLL5        0.0000 
     18 CA         66.2410   -9.9920  -19.8150 C.3       3 GLC5        0.0000 
     19 CA         67.3160   -8.3760  -20.8400 C.3       9 GLL5        0.0000 
     20 CA         65.1660  -11.6080  -18.7900 C.3       6 GLP5        0.0000 
     21 CA         66.5245   -6.7000  -21.1635 C.3       3 GLC5        0.0000 
     22 CA         65.7330   -5.0240  -21.4870 C.3       6 GLP5        0.0000 
     23 N          65.1920   -8.5110  -24.9485 N.am      2 SEC2        0.0000 
     24 N          66.4390   -8.2790  -24.4010 N.am      8 SEL2        0.0000 
     25 N          63.9450   -8.7430  -25.4960 N.am      5 SEP2        0.0000 
     26 CA         65.5290   -6.9320  -24.7025 C.3       3 GLC5        0.0000 
     27 CA         67.5760   -7.4750  -24.4050 C.3       9 GLL5        0.0000 
     28 CA         63.4820   -6.3890  -25.0000 C.3       6 GLP5        0.0000 
     29 CA         67.7675   -4.9675  -26.3865 C.3       3 GLC5        0.0000 
     30 CA         68.2820   -6.7730  -25.3650 C.3       9 GLL5        0.0000 
     31 CA         67.2530   -3.1620  -27.4080 C.3       6 GLP5        0.0000 
     32 CA         67.5965   -5.1315  -24.2250 C.3       3 GLC5        0.0000 
     33 CA         66.9110   -3.4900  -23.0850 C.3       6 GLP5        0.0000 
     34 CA         70.2295   -7.8595  -24.8845 C.3       3 GLC5        0.0000 
     35 CA         69.8060   -6.0180  -23.7410 C.3       9 GLL5        0.0000 
     36 CA         70.6530   -9.7010  -26.0280 C.3       6 GLP5        0.0000 
     37 CA         71.8965   -5.5670  -23.3735 C.3       3 GLC5        0.0000 
     38 CA         73.9870   -5.1160  -23.0060 C.3       6 GLP5        0.0000 
     39 CA         68.3585   -4.7540  -23.4130 C.3       3 GLC5        0.0000 
     40 O          66.4620   -6.8700  -27.0550 O.2       1 ALC1        0.0000 
     41 O          67.8260   -6.8410  -26.6630 O.2       7 ALL1        0.0000 
     42 O          65.0980   -6.8990  -27.4470 O.2       4 ALP1        0.0000 
     43 CA         69.5355   -8.0505  -26.9265 C.3       3 GLC5        0.0000 
     44 CA         68.4180   -6.4000  -27.8250 C.3       9 GLL5        0.0000 
     45 CA         65.5885   -6.9065  -29.4100 C.3       3 GLC5        0.0000 
     46 CA         67.6870   -6.5940  -29.0310 C.3       9 GLL5        0.0000 
     47 CA         63.4900   -7.2190  -29.7890 C.3       6 GLP5        0.0000 
     48 CA         72.4165   -5.1925  -28.9970 C.3       3 GLC5        0.0000 
     49 CA         70.2270   -5.3240  -29.1310 C.3       9 GLL5        0.0000 
     50 CA         74.6060   -5.0610  -28.8630 C.3       6 GLP5        0.0000 
     51 CA         71.2365   -7.1260  -27.2685 C.3       3 GLC5        0.0000 
     52 CA         69.6980   -5.7610  -27.8850 C.3       9 GLL5        0.0000 
     53 CA         72.7750   -8.4910  -26.6520 C.3       6 GLP5        0.0000 
     54 CA         67.2237   -9.6463  -17.3008 C.3       3 GLC5        0.0000 
     55 CA         68.5440   -8.0320  -16.3940 C.3       9 GLL5        0.0000 
     56 CA         67.6123   -8.9865  -14.7000 C.3       3 GLC5        0.0000 
     57 CA         68.9550   -9.2820  -15.9700 C.3       9 GLL5        0.0000 
     58 CA         66.4750   -9.3160  -13.2180 C.3       6 GLP5        0.0000 
     59 CA         67.4237  -10.4010  -18.0257 C.3       3 GLC5        0.0000 
     60 CA         69.0800  -10.0500  -18.3330 C.3       9 GLL5        0.0000 
     61 CA         68.8657  -11.3183  -15.4240 C.3       3 GLC5        0.0000 
     62 CA         69.2240  -10.3070  -16.9280 C.3       9 GLL5        0.0000 
     63 CA         68.6420  -12.8420  -14.3990 C.3       6 GLP5        0.0000 
     64 CA         67.5352  -10.6033  -16.9760 C.3       3 GLC5        0.0000 
     65 CA         70.6209   -8.3471  -16.5466 C.3       3 GLC5        0.0000 
     66 CA         72.5310   -8.1130  -16.5590 C.3       6 GLP5        0.0000 
     67 CA         71.0228  -10.9021  -17.9941 C.3       3 GLC5        0.0000 
     68 CA         72.7790  -11.1300  -17.5080 C.3       6 GLP5        0.0000 
     69 CA         68.0037   -9.9222  -21.6958 C.3       3 GLC5        0.0000 
     70 CA         69.2910   -8.4125  -25.4565 C.3       3 GLC5        0.0000 
     71 CA         67.9585   -9.4367  -23.3070 C.3       3 GLC5        0.0000 
     72 CA         66.7775   -6.2272  -22.6160 C.3       3 GLC5        0.0000 
     73 CA         68.0680   -7.3860  -23.0850 C.3       9 GLL5        0.0000 
     74 CA         67.6527   -4.8295  -27.9180 C.3       3 GLC5        0.0000 
     75 CA         66.3560   -5.0245  -29.9333 C.3       3 GLC5        0.0000 
     76 CA         64.7610   -3.6720  -30.2190 C.3       6 GLP5        0.0000 
     77 CA         68.0485   -4.5032  -28.8480 C.3       3 GLC5        0.0000 
     78 CA         68.2150   -6.1600  -30.2640 C.3       9 GLL5        0.0000 
     79 CA         68.6078   -4.3522  -27.9580 C.3       3 GLC5        0.0000 
@<TRIPOS>BOND
@<TRIPOS>SUBSTRUCTURE
     1 ALC1        4 GROUP        1 X    ALC  0     ROOT ALC X 1
     2 SEC2        1 GROUP        1 X    SEC  0     **** SEC X 2
     3 GLC5        7 GROUP        1 X    GLC  0     **** GLC X 6
     4 ALP1        6 GROUP        1 Y    ALP  0     ROOT ALP Y 8
     5 SEP2        3 GROUP        1 Y    SEP  0     **** SEP Y 9
     6 GLP5        9 GROUP        1 Y    GLP  0     **** GLP Y 13
     7 ALL1        5 GROUP        1 Z    ALL  0     ROOT ALL Z 15
     8 SEL2        2 GROUP        1 Z    SEL  0     **** SEL Z 16
     9 GLL5        8 GROUP        1 Z    GLL  0     **** GLL Z 20
@<TRIPOS>SET

