#    Name: 3kf4_B90_2_ligand
#    Modification time : Mon Mar 24 19:24:49 2014

@<TRIPOS>MOLECULE
3kf4_B90_2_ligand
   54    58     1     0     0
SMALL
NO_CHARGES


@<TRIPOS>ATOM
      1 N1         67.8720   -5.8880  -16.6410 N.2       1 B901        0.0000 
      2 C2         67.9510   -6.3310  -17.8990 C.2       1 B901        0.0000 
      3 C3         68.3890   -7.7290  -17.8030 C.ar      1 B901        0.0000 
      4 C4         68.5440   -8.0320  -16.3940 C.ar      1 B901        0.0000 
      5 N5         68.2060   -6.8440  -15.7670 N.pl3     1 B901        0.0000 
      6 C6         68.6530   -8.7300  -18.7640 C.ar      1 B901        0.0000 
      7 C7         69.0800  -10.0500  -18.3330 C.ar      1 B901        0.0000 
      8 C8         69.2240  -10.3070  -16.9280 C.ar      1 B901        0.0000 
      9 C9         68.9550   -9.2820  -15.9700 C.ar      1 B901        0.0000 
     10 C10        69.3810  -11.1700  -19.3300 C.3       1 B901        0.0000 
     11 C14        68.5090   -8.4270  -20.2050 C.2       1 B901        0.0000 
     12 C15        67.3160   -8.3760  -20.8400 C.2       1 B901        0.0000 
     13 N16        67.2100   -8.1600  -22.3070 N.pl3     1 B901        0.0000 
     14 C17        66.2590   -8.6670  -23.1230 C.2       1 B901        0.0000 
     15 N18        66.4390   -8.2790  -24.4010 N.2       1 B901        0.0000 
     16 C19        67.5760   -7.4750  -24.4050 C.ar      1 B901        0.0000 
     17 C20        68.0680   -7.3860  -23.0850 C.ar      1 B901        0.0000 
     18 C21        68.2820   -6.7730  -25.3650 C.ar      1 B901        0.0000 
     19 N22        69.4060   -6.0430  -25.0350 N.ar      1 B901        0.0000 
     20 C23        69.8060   -6.0180  -23.7410 C.ar      1 B901        0.0000 
     21 N24        69.1740   -6.6710  -22.7530 N.ar      1 B901        0.0000 
     22 N25        67.8260   -6.8410  -26.6630 N.pl3     1 B901        0.0000 
     23 C26        68.4180   -6.4000  -27.8250 C.ar      1 B901        0.0000 
     24 C27        67.6870   -6.5940  -29.0310 C.ar      1 B901        0.0000 
     25 C28        68.2150   -6.1600  -30.2640 C.ar      1 B901        0.0000 
     26 C29        69.4730   -5.5290  -30.3120 C.ar      1 B901        0.0000 
     27 C30        70.2270   -5.3240  -29.1310 C.ar      1 B901        0.0000 
     28 C31        69.6980   -5.7610  -27.8850 C.ar      1 B901        0.0000 
     29 P36        70.0710   -4.9860  -31.9290 P.3       1 B901        0.0000 
     30 C37        69.2360   -3.4150  -32.4120 C.3       1 B901        0.0000 
     31 C41        69.5690   -6.1810  -33.2580 C.3       1 B901        0.0000 
     32 O45        71.5320   -4.8050  -31.8800 O.2       1 B901        0.0000 
     33 H          67.7828   -5.9102  -18.7111 H         1 B901        0.0000 
     34 H          68.2182   -6.7406  -14.7866 H         1 B901        0.0000 
     35 H          69.5209  -11.2297  -16.6143 H         1 B901        0.0000 
     36 H          69.0725   -9.4932  -14.9759 H         1 B901        0.0000 
     37 H          69.4061   -8.2509  -20.7131 H         1 B901        0.0000 
     38 H          66.4161   -8.4844  -20.3392 H         1 B901        0.0000 
     39 H          65.5234   -9.2500  -22.8179 H         1 B901        0.0000 
     40 H          70.6737   -5.4450  -23.4983 H         1 B901        0.0000 
     41 H          66.8424   -7.3188  -26.7897 H         1 B901        0.0000 
     42 H          66.7731   -7.0519  -28.9964 H         1 B901        0.0000 
     43 H          67.6824   -6.3041  -31.1257 H         1 B901        0.0000 
     44 H          71.1327   -4.8718  -29.1700 H         1 B901        0.0000 
     45 H          70.2301   -5.6203  -27.0273 H         1 B901        0.0000 
     46 H          70.1197  -10.9210  -19.9564 H         1 B901        0.0000 
     47 H          69.6591  -12.0127  -18.8691 H         1 B901        0.0000 
     48 H          68.5835  -11.3922  -19.8909 H         1 B901        0.0000 
     49 H          69.4129   -2.6829  -31.7541 H         1 B901        0.0000 
     50 H          69.5469   -3.0884  -33.3046 H         1 B901        0.0000 
     51 H          68.2436   -3.5242  -32.4692 H         1 B901        0.0000 
     52 H          69.8971   -5.8947  -34.1582 H         1 B901        0.0000 
     53 H          69.9337   -7.0970  -33.0909 H         1 B901        0.0000 
     54 H          68.5749   -6.2685  -33.3226 H         1 B901        0.0000 
@<TRIPOS>BOND
     1    2    1 2    
     2    5    1 1    
     3    3    2 1    
     4   33    2 1    
     5    4    3 ar   
     6    6    3 ar   
     7    5    4 1    
     8    9    4 ar   
     9   34    5 1    
    10    7    6 ar   
    11   11    6 1    
    12    8    7 ar   
    13   10    7 1    
    14    9    8 ar   
    15   35    8 1    
    16   36    9 1    
    17   46   10 1    
    18   47   10 1    
    19   48   10 1    
    20   12   11 2    
    21   37   11 1    
    22   13   12 1    
    23   38   12 1    
    24   14   13 1    
    25   17   13 1    
    26   15   14 2    
    27   39   14 1    
    28   16   15 1    
    29   17   16 ar   
    30   18   16 ar   
    31   21   17 ar   
    32   19   18 ar   
    33   22   18 1    
    34   20   19 ar   
    35   21   20 ar   
    36   40   20 1    
    37   23   22 1    
    38   41   22 1    
    39   24   23 ar   
    40   28   23 ar   
    41   25   24 ar   
    42   42   24 1    
    43   26   25 ar   
    44   43   25 1    
    45   27   26 ar   
    46   29   26 1    
    47   28   27 ar   
    48   44   27 1    
    49   45   28 1    
    50   30   29 1    
    51   31   29 1    
    52   32   29 2    
    53   49   30 1    
    54   50   30 1    
    55   51   30 1    
    56   52   31 1    
    57   53   31 1    
    58   54   31 1    
@<TRIPOS>SUBSTRUCTURE
     1 B901        1 GROUP   
@<TRIPOS>SET

