#    Name: 3hl0_NAD_1_INTS_M
#    Modification time : Tue Mar 25 14:29:46 2014

@<TRIPOS>MOLECULE
3hl0_NAD_1_INTS_M
   82     0     9     0     0
SMALL
NO_CHARGES


@<TRIPOS>ATOM
      1 N          23.5550  118.5790   22.7100 N.am      2 SEC2        0.0000 
      2 N          22.4690  118.7960   23.5700 N.am      8 SEL2        0.0000 
      3 N          24.6410  118.3620   21.8500 N.am      5 SEP2        0.0000 
      4 N          22.8535  119.7065   22.1500 N.am      2 SEC2        0.0000 
      5 N          23.2380  120.6170   20.7300 N.am      5 SEP2        0.0000 
      6 N          22.0905  120.4105   21.4125 N.am      2 SEC2        0.0000 
      7 N          20.9430  120.2040   22.0950 N.am      8 SEL2        0.0000 
      8 N          20.7745  124.9010   26.3245 N.am      2 SEC2        0.0000 
      9 N          20.2100  123.6340   26.2780 N.am      8 SEL2        0.0000 
     10 N          21.3390  126.1680   26.3710 N.am      5 SEP2        0.0000 
     11 CA         20.9570  123.4805   28.1300 C.3       3 GLC5        0.0000 
     12 CA         21.1080  121.5110   27.0680 C.3       9 GLL5        0.0000 
     13 CA         20.8060  125.4500   29.1920 C.3       6 GLP5        0.0000 
     14 N          22.9895  123.1560   27.7840 N.am      2 SEC2        0.0000 
     15 N          21.9640  122.3160   27.8530 N.am      8 SEL2        0.0000 
     16 N          24.0150  123.9960   27.7150 N.am      5 SEP2        0.0000 
     17 O          22.7325  121.3460   28.5525 O.2       1 ALC1        0.0000 
     18 O          21.9640  122.3160   27.8530 O.2       7 ALL1        0.0000 
     19 O          23.5010  120.3760   29.2520 O.2       4 ALP1        0.0000 
     20 N          22.0990  117.2250   29.6795 N.am      2 SEC2        0.0000 
     21 N          20.8790  117.8080   29.3520 N.am      8 SEL2        0.0000 
     22 N          23.3190  116.6420   30.0070 N.am      5 SEP2        0.0000 
     23 CA         20.3500  117.1025   28.6790 C.3       3 GLC5        0.0000 
     24 CA         20.3610  118.4280   30.4580 C.3       9 GLL5        0.0000 
     25 CA         20.3390  115.7770   26.9000 C.3       6 GLP5        0.0000 
     26 O          20.5385  115.6600   31.1855 O.2       1 ALC1        0.0000 
     27 O          20.3280  116.7400   32.2060 O.2       7 ALL1        0.0000 
     28 O          20.7490  114.5800   30.1650 O.2       4 ALP1        0.0000 
     29 O          20.9475  116.1130   33.5155 O.2       1 ALC1        0.0000 
     30 O          21.5670  115.4860   34.8250 O.2       4 ALP1        0.0000 
     31 CA         21.2235  120.9450   31.7275 C.3       3 GLC5        0.0000 
     32 CA         19.2210  120.1900   32.2100 C.3       9 GLL5        0.0000 
     33 CA         23.2260  121.7000   31.2450 C.3       6 GLP5        0.0000 
     34 CA         17.8490  118.4685   32.3730 C.3       3 GLC5        0.0000 
     35 CA         16.4770  116.7470   32.5360 C.3       6 GLP5        0.0000 
     36 CA         17.2220  119.6650   31.7250 C.3       3 GLC5        0.0000 
     37 CA         15.2230  119.1400   31.2400 C.3       6 GLP5        0.0000 
     38 N          22.5090  115.9580   23.4020 N.am      2 SEC2        0.0000 
     39 N          21.0750  115.8550   23.4690 N.am      8 SEL2        0.0000 
     40 N          23.9430  116.0610   23.3350 N.am      5 SEP2        0.0000 
     41 N          21.1200  114.9455   24.4315 N.am      2 SEC2        0.0000 
     42 N          21.1650  114.0360   25.3940 N.am      5 SEP2        0.0000 
     43 CA         19.7810  116.2310   18.9285 C.3       3 GLC5        0.0000 
     44 CA         21.1090  117.1260   19.8370 C.3       9 GLL5        0.0000 
     45 CA         18.4530  115.3360   18.0200 C.3       6 GLP5        0.0000 
     46 CA         23.8565  118.4870   20.2155 C.3       3 GLC5        0.0000 
     47 CA         22.3900  117.3850   19.0430 C.3       9 GLL5        0.0000 
     48 CA         25.3230  119.5890   21.3880 C.3       6 GLP5        0.0000 
     49 CA         23.9820  115.8115   19.9115 C.3       3 GLC5        0.0000 
     50 CA         23.4140  115.7100   17.7960 C.3       9 GLL5        0.0000 
     51 CA         24.5500  115.9130   22.0270 C.3       6 GLP5        0.0000 
     52 N          27.4120  109.9160   17.0755 N.am      2 SEC2        0.0000 
     53 N          26.2450  110.5230   16.9200 N.am      8 SEL2        0.0000 
     54 N          28.5790  109.3090   17.2310 N.am      5 SEP2        0.0000 
     55 O          28.3995  112.6175   15.9900 O.2       1 ALC1        0.0000 
     56 O          26.9850  112.6940   16.2770 O.2       7 ALL1        0.0000 
     57 O          29.8140  112.5410   15.7030 O.2       4 ALP1        0.0000 
     58 CA         23.7805  109.6745   17.3625 C.3       3 GLC5        0.0000 
     59 CA         23.7970  111.4600   17.9260 C.3       9 GLL5        0.0000 
     60 CA         23.7640  107.8890   16.7990 C.3       6 GLP5        0.0000 
     61 CA         20.4775  114.3920   18.1965 C.3       3 GLC5        0.0000 
     62 CA         22.5020  113.4480   18.3730 C.3       9 GLL5        0.0000 
     63 CA         22.7385  122.6813   25.9683 C.3       3 GLC5        0.0000 
     64 CA         20.4640  122.2620   25.9250 C.3       9 GLL5        0.0000 
     65 CA         24.6910  123.4760   25.4400 C.3       6 GLP5        0.0000 
     66 CA         21.6848  120.3810   30.7470 C.3       3 GLC5        0.0000 
     67 CA         19.9260  119.6960   30.0400 C.3       9 GLL5        0.0000 
     68 CA         21.7825  116.9285   31.0823 C.3       3 GLC5        0.0000 
     69 CA         23.2770  115.6300   31.0430 C.3       6 GLP5        0.0000 
     70 CA         18.8310  117.7873   30.0519 C.3       3 GLC5        0.0000 
     71 CA         20.2150  118.0260   31.7850 C.3       9 GLL5        0.0000 
     72 CA         17.5550  116.6130   29.5230 C.3       6 GLP5        0.0000 
     73 CA         23.1498  116.5842   20.7335 C.3       3 GLC5        0.0000 
     74 CA         20.2300  116.6082   17.1797 C.3       3 GLC5        0.0000 
     75 CA         22.0570  117.6000   17.5720 C.3       9 GLL5        0.0000 
     76 CA         18.3120  116.3060   17.0820 C.3       6 GLP5        0.0000 
     77 CA         25.4708  112.2922   19.0821 C.3       3 GLC5        0.0000 
     78 CA         24.6480  113.7050   17.3380 C.3       9 GLL5        0.0000 
     79 CA         26.6840  112.3450   20.5280 C.3       6 GLP5        0.0000 
     80 CA         22.2197  112.7237   20.2350 C.3       3 GLC5        0.0000 
     81 CA         22.6350  112.0490   18.4290 C.3       9 GLL5        0.0000 
     82 CA         21.8710  112.6990   22.0690 C.3       6 GLP5        0.0000 
@<TRIPOS>BOND
@<TRIPOS>SUBSTRUCTURE
     1 ALC1       17 GROUP        1 X    ALC  0     ROOT ALC X 1
     2 SEC2        1 GROUP        1 X    SEC  0     **** SEC X 2
     3 GLC5       11 GROUP        1 X    GLC  0     **** GLC X 6
     4 ALP1       19 GROUP        1 Y    ALP  0     ROOT ALP Y 8
     5 SEP2        3 GROUP        1 Y    SEP  0     **** SEP Y 9
     6 GLP5       13 GROUP        1 Y    GLP  0     **** GLP Y 13
     7 ALL1       18 GROUP        1 Z    ALL  0     ROOT ALL Z 15
     8 SEL2        2 GROUP        1 Z    SEL  0     **** SEL Z 16
     9 GLL5       12 GROUP        1 Z    GLL  0     **** GLL Z 20
@<TRIPOS>SET

