#    Name: 3hl0_NAD_1_ligand
#    Modification time : Tue Mar 25 14:29:46 2014

@<TRIPOS>MOLECULE
3hl0_NAD_1_ligand
   70    74     1     0     0
SMALL
NO_CHARGES


@<TRIPOS>ATOM
      1 PA         21.1000  119.2830   23.2440 P.3       1 NAD402      0.0000 
      2 O1A        22.4690  118.7960   23.5700 O.co2     1 NAD402      0.0000 
      3 O2A        20.9430  120.2040   22.0950 O.co2     1 NAD402      0.0000 
      4 O5B        20.4180  119.7990   24.5900 O.3       1 NAD402      0.0000 
      5 C5B        19.2170  120.5730   24.4970 C.3       1 NAD402      0.0000 
      6 C4B        19.1580  121.4710   25.7240 C.3       1 NAD402      0.0000 
      7 O4B        18.9530  120.6600   26.8800 O.3       1 NAD402      0.0000 
      8 C3B        20.4640  122.2620   25.9250 C.3       1 NAD402      0.0000 
      9 O3B        20.2100  123.6340   26.2780 O.3       1 NAD402      0.0000 
     10 C2B        21.1080  121.5110   27.0680 C.3       1 NAD402      0.0000 
     11 O2B        21.9640  122.3160   27.8530 O.3       1 NAD402      0.0000 
     12 C1B        19.9000  121.0160   27.8770 C.3       1 NAD402      0.0000 
     13 N9A        20.1990  119.8250   28.7080 N.pl3     1 NAD402      0.0000 
     14 C8A        20.7940  118.6480   28.2950 C.2       1 NAD402      0.0000 
     15 N7A        20.8790  117.8080   29.3520 N.2       1 NAD402      0.0000 
     16 C5A        20.3610  118.4280   30.4580 C.ar      1 NAD402      0.0000 
     17 C6A        20.2150  118.0260   31.7850 C.ar      1 NAD402      0.0000 
     18 N6A        20.3280  116.7400   32.2060 N.pl3     1 NAD402      0.0000 
     19 N1A        19.6420  118.9560   32.6540 N.ar      1 NAD402      0.0000 
     20 C2A        19.2210  120.1900   32.2100 C.ar      1 NAD402      0.0000 
     21 N3A        19.3530  120.5850   30.9040 N.ar      1 NAD402      0.0000 
     22 C4A        19.9260  119.6960   30.0400 C.ar      1 NAD402      0.0000 
     23 O3         20.1150  118.0380   22.8570 O.3       1 NAD402      0.0000 
     24 PN         20.4550  116.5390   22.3360 P.3       1 NAD402      0.0000 
     25 O1N        19.1670  116.0470   21.7640 O.co2     1 NAD402      0.0000 
     26 O2N        21.0750  115.8550   23.4690 O.co2     1 NAD402      0.0000 
     27 O5D        21.5050  116.7130   21.1420 O.3       1 NAD402      0.0000 
     28 C5D        21.1090  117.1260   19.8370 C.3       1 NAD402      0.0000 
     29 C4D        22.3900  117.3850   19.0430 C.3       1 NAD402      0.0000 
     30 O4D        23.1940  116.2160   19.1070 O.3       1 NAD402      0.0000 
     31 C3D        22.0570  117.6000   17.5720 C.3       1 NAD402      0.0000 
     32 O3D        23.0230  118.5190   17.0380 O.3       1 NAD402      0.0000 
     33 C2D        22.2390  116.2210   16.9830 C.3       1 NAD402      0.0000 
     34 O2D        22.4950  116.2050   15.5780 O.3       1 NAD402      0.0000 
     35 C1D        23.4140  115.7100   17.7960 C.3       1 NAD402      0.0000 
     36 N1N        23.5080  114.2570   17.8400 N.pl3     1 NAD402      0.0000 
     37 C2N        24.6480  113.7050   17.3380 C.ar      1 NAD402      0.0000 
     38 C3N        24.7880  112.3330   17.3550 C.ar      1 NAD402      0.0000 
     39 C7N        26.0740  111.8510   16.8220 C.2       1 NAD402      0.0000 
     40 O7N        26.2450  110.5230   16.9200 O.2       1 NAD402      0.0000 
     41 N7N        26.9850  112.6940   16.2770 N.am      1 NAD402      0.0000 
     42 C4N        23.7970  111.4600   17.9260 C.ar      1 NAD402      0.0000 
     43 C5N        22.6350  112.0490   18.4290 C.ar      1 NAD402      0.0000 
     44 C6N        22.5020  113.4480   18.3730 C.ar      1 NAD402      0.0000 
     45 H          18.3303  119.9447   24.4936 H         1 NAD402      0.0000 
     46 H          19.2110  121.2054   23.6132 H         1 NAD402      0.0000 
     47 H          18.3548  122.1760   25.6030 H         1 NAD402      0.0000 
     48 H          21.0565  122.1384   25.0611 H         1 NAD402      0.0000 
     49 H          21.5863  120.6389   26.6616 H         1 NAD402      0.0000 
     50 H          19.5414  121.8239   28.4679 H         1 NAD402      0.0000 
     51 H          21.0930  118.4713   27.3986 H         1 NAD402      0.0000 
     52 H          20.6064  116.6114   33.1578 H         1 NAD402      0.0000 
     53 H          20.1228  116.0351   31.5270 H         1 NAD402      0.0000 
     54 H          18.7831  120.8506   32.8995 H         1 NAD402      0.0000 
     55 H          20.5354  118.0470   19.8553 H         1 NAD402      0.0000 
     56 H          20.5440  116.3584   19.3183 H         1 NAD402      0.0000 
     57 H          22.8805  118.2344   19.4220 H         1 NAD402      0.0000 
     58 H          21.0720  117.9060   17.4860 H         1 NAD402      0.0000 
     59 H          21.3828  115.6318   17.2710 H         1 NAD402      0.0000 
     60 H          24.3125  116.1446   17.3846 H         1 NAD402      0.0000 
     61 H          25.3955  114.2943   16.9515 H         1 NAD402      0.0000 
     62 H          26.7095  113.6526   16.2048 H         1 NAD402      0.0000 
     63 H          27.8519  112.2827   15.9953 H         1 NAD402      0.0000 
     64 H          23.9531  110.4717   17.9523 H         1 NAD402      0.0000 
     65 H          21.8940  111.4793   18.8304 H         1 NAD402      0.0000 
     66 H          21.6361  113.8845   18.7366 H         1 NAD402      0.0000 
     67 H          19.3730  123.6098   26.8247 H         1 NAD402      0.0000 
     68 H          22.5547  121.6702   28.3368 H         1 NAD402      0.0000 
     69 H          23.2396  118.1666   16.1275 H         1 NAD402      0.0000 
     70 H          21.6243  115.9471   15.1593 H         1 NAD402      0.0000 
@<TRIPOS>BOND
     1    2    1 ar   
     2    3    1 ar   
     3    4    1 1    
     4   23    1 1    
     5    5    4 1    
     6    6    5 1    
     7   45    5 1    
     8   46    5 1    
     9    7    6 1    
    10    8    6 1    
    11   47    6 1    
    12   12    7 1    
    13    9    8 1    
    14   10    8 1    
    15   48    8 1    
    16   67    9 1    
    17   11   10 1    
    18   12   10 1    
    19   49   10 1    
    20   68   11 1    
    21   13   12 1    
    22   50   12 1    
    23   14   13 1    
    24   22   13 1    
    25   15   14 2    
    26   51   14 1    
    27   16   15 1    
    28   17   16 ar   
    29   22   16 ar   
    30   18   17 1    
    31   19   17 ar   
    32   52   18 1    
    33   53   18 1    
    34   20   19 ar   
    35   21   20 ar   
    36   54   20 1    
    37   22   21 ar   
    38   24   23 1    
    39   25   24 ar   
    40   26   24 ar   
    41   27   24 1    
    42   28   27 1    
    43   29   28 1    
    44   55   28 1    
    45   56   28 1    
    46   30   29 1    
    47   31   29 1    
    48   57   29 1    
    49   35   30 1    
    50   32   31 1    
    51   33   31 1    
    52   58   31 1    
    53   69   32 1    
    54   34   33 1    
    55   35   33 1    
    56   59   33 1    
    57   70   34 1    
    58   36   35 1    
    59   60   35 1    
    60   37   36 ar   
    61   44   36 ar   
    62   38   37 ar   
    63   61   37 1    
    64   39   38 1    
    65   42   38 ar   
    66   40   39 2    
    67   41   39 am   
    68   62   41 1    
    69   63   41 1    
    70   43   42 ar   
    71   64   42 1    
    72   44   43 ar   
    73   65   43 1    
    74   66   44 1    
@<TRIPOS>SUBSTRUCTURE
     1 NAD402      1 GROUP   
@<TRIPOS>SET

