#    Name: 3igv_B80_2_INTS_M
#    Modification time : Tue Mar 25 16:31:51 2014

@<TRIPOS>MOLECULE
3igv_B80_2_INTS_M
   54     0     9     0     0
SMALL
NO_CHARGES


@<TRIPOS>ATOM
      1 N          53.3150   -8.4035   40.5810 N.am      2 SEC2        0.0000 
      2 N          53.1140   -8.3780   41.9850 N.am      8 SEL2        0.0000 
      3 N          53.5160   -8.4290   39.1770 N.am      5 SEP2        0.0000 
      4 N          51.7870   -9.5050   42.0695 N.am      2 SEC2        0.0000 
      5 N          50.4600  -10.6320   42.1540 N.am      5 SEP2        0.0000 
      6 CA         55.5145   -6.3785   44.1825 C.3       3 GLC5        0.0000 
      7 CA         55.3110   -7.9760   43.2410 C.3       9 GLL5        0.0000 
      8 CA         55.7180   -4.7810   45.1240 C.3       6 GLP5        0.0000 
      9 O          52.9615  -10.3845   43.8215 O.2       1 ALC1        0.0000 
     10 O          53.1960   -9.0370   44.3400 O.2       7 ALL1        0.0000 
     11 O          52.7270  -11.7320   43.3030 O.2       4 ALP1        0.0000 
     12 CA         50.5145  -10.5835   48.8335 C.3       3 GLC5        0.0000 
     13 CA         52.2510   -9.8200   47.7690 C.3       9 GLL5        0.0000 
     14 CA         48.7780  -11.3470   49.8980 C.3       6 GLP5        0.0000 
     15 CA         54.6465   -6.2755   45.7660 C.3       3 GLC5        0.0000 
     16 CA         53.5750   -7.7700   46.4080 C.3       9 GLL5        0.0000 
     17 CA         51.6270   -6.6065   52.0065 C.3       3 GLC5        0.0000 
     18 CA         52.9730   -8.0370   52.1230 C.3       9 GLL5        0.0000 
     19 CA         50.2810   -5.1760   51.8900 C.3       6 GLP5        0.0000 
     20 N          53.3900   -4.5905   52.4105 N.am      2 SEC2        0.0000 
     21 N          53.8520   -5.9370   52.5750 N.am      8 SEL2        0.0000 
     22 N          52.9280   -3.2440   52.2460 N.am      5 SEP2        0.0000 
     23 CA         51.6280   -6.2100   53.1740 C.3       3 GLC5        0.0000 
     24 CA         52.9750   -7.2440   54.4580 C.3       9 GLL5        0.0000 
     25 CA         53.7085   -8.0135   57.4705 C.3       3 GLC5        0.0000 
     26 CA         55.2940   -8.4940   56.2500 C.3       9 GLL5        0.0000 
     27 CA         52.1230   -7.5330   58.6910 C.3       6 GLP5        0.0000 
     28 CA         52.4070  -11.7165   56.2205 C.3       3 GLC5        0.0000 
     29 CA         51.8840  -10.7400   54.5570 C.3       9 GLL5        0.0000 
     30 CA         52.9300  -12.6930   57.8840 C.3       6 GLP5        0.0000 
     31 CA         51.1785   -8.9735   57.5525 C.3       3 GLC5        0.0000 
     32 CA         50.2340  -10.4140   56.4140 C.3       9 GLL5        0.0000 
     33 CA         50.9585  -11.4590   46.6257 C.3       3 GLC5        0.0000 
     34 CA         49.5820  -13.0620   46.1710 C.3       6 GLP5        0.0000 
     35 CA         52.6603   -7.0957   56.2993 C.3       3 GLC5        0.0000 
     36 CA         53.1680   -8.6970   54.9170 C.3       9 GLL5        0.0000 
     37 CA         52.2490   -6.2210   57.9110 C.3       6 GLP5        0.0000 
     38 CA         54.4547  -10.3185   56.9903 C.3       3 GLC5        0.0000 
     39 CA         53.9340  -11.8600   58.3580 C.3       6 GLP5        0.0000 
     40 CA         49.8954  -11.2788   52.8597 C.3       3 GLC5        0.0000 
     41 CA         49.5580   -9.8730   54.1620 C.3       9 GLL5        0.0000 
     42 CA         49.4110  -12.3520   51.2360 C.3       6 GLP5        0.0000 
     43 CA         49.4784   -8.0414   55.6249 C.3       3 GLC5        0.0000 
     44 CA         48.3090   -9.4890   54.6360 C.3       9 GLL5        0.0000 
     45 CA         49.7830   -6.2860   56.6280 C.3       6 GLP5        0.0000 
     46 CA         46.3603   -8.5010   57.4390 C.3       3 GLC5        0.0000 
     47 CA         48.0290   -9.5700   55.9980 C.3       9 GLL5        0.0000 
     48 CA         45.2930   -7.6150   58.6530 C.3       6 GLP5        0.0000 
     49 CA         46.2223  -10.0099   54.8658 C.3       3 GLC5        0.0000 
     50 CA         46.8260   -9.2040   56.4520 C.3       9 GLL5        0.0000 
     51 CA         44.9470  -10.6530   53.8470 C.3       6 GLP5        0.0000 
     52 CA         46.6579  -10.8202   56.5252 C.3       3 GLC5        0.0000 
     53 CA         45.6990  -12.2160   57.0540 C.3       6 GLP5        0.0000 
     54 CA         48.7246   -7.8942   56.5384 C.3       3 GLC5        0.0000 
@<TRIPOS>BOND
@<TRIPOS>SUBSTRUCTURE
     1 ALC1        9 GROUP        1 X    ALC  0     ROOT ALC X 1
     2 SEC2        1 GROUP        1 X    SEC  0     **** SEC X 2
     3 GLC5        6 GROUP        1 X    GLC  0     **** GLC X 6
     4 ALP1       11 GROUP        1 Y    ALP  0     ROOT ALP Y 8
     5 SEP2        3 GROUP        1 Y    SEP  0     **** SEP Y 9
     6 GLP5        8 GROUP        1 Y    GLP  0     **** GLP Y 13
     7 ALL1       10 GROUP        1 Z    ALL  0     ROOT ALL Z 15
     8 SEL2        2 GROUP        1 Z    SEL  0     **** SEL Z 16
     9 GLL5        7 GROUP        1 Z    GLL  0     **** GLL Z 20
@<TRIPOS>SET

