#    Name: 3igv_B80_2_ligand
#    Modification time : Tue Mar 25 16:31:51 2014

@<TRIPOS>MOLECULE
3igv_B80_2_ligand
   57    60     1     0     0
SMALL
NO_CHARGES


@<TRIPOS>ATOM
      1 O31        53.1290   -6.6580   43.6600 O.2       1 B80579      0.0000 
      2 S35        53.6480   -8.0000   43.3120 S.o2      1 B80579      0.0000 
      3 O30        53.1140   -8.3780   41.9850 O.2       1 B80579      0.0000 
      4 C20        55.3110   -7.9760   43.2410 C.3       1 B80579      0.0000 
      5 N26        53.1960   -9.0370   44.3400 N.pl3     1 B80579      0.0000 
      6 C10        53.0750   -8.8750   45.6960 C.ar      1 B80579      0.0000 
      7 C4         52.4190   -9.8920   46.3920 C.ar      1 B80579      0.0000 
      8 C3         52.2510   -9.8200   47.7690 C.ar      1 B80579      0.0000 
      9 C7         53.5750   -7.7700   46.4080 C.ar      1 B80579      0.0000 
     10 C12        53.4120   -7.6930   47.7960 C.ar      1 B80579      0.0000 
     11 C9         52.7510   -8.7220   48.4650 C.ar      1 B80579      0.0000 
     12 N23        52.5690   -8.6890   49.7990 N.2       1 B80579      0.0000 
     13 S34        53.9580   -6.4430   48.6330 S.o2      1 B80579      0.0000 
     14 O28        55.3530   -6.1270   48.2610 O.2       1 B80579      0.0000 
     15 O29        53.1050   -5.2680   48.3430 O.2       1 B80579      0.0000 
     16 N24        53.8800   -6.7680   50.1940 N.pl3     1 B80579      0.0000 
     17 C15        53.1560   -7.8170   50.6470 C.2       1 B80579      0.0000 
     18 C13        52.9730   -8.0370   52.1230 C.2       1 B80579      0.0000 
     19 C14        53.2840   -7.0680   52.9900 C.2       1 B80579      0.0000 
     20 O32        53.8520   -5.9370   52.5750 O.co2     1 B80579      0.0000 
     21 C17        52.9750   -7.2440   54.4580 C.3       1 B80579      0.0000 
     22 C18        53.1680   -8.6970   54.9170 C.3       1 B80579      0.0000 
     23 C22        54.6570   -9.0600   54.9950 C.3       1 B80579      0.0000 
     24 C19        55.2940   -8.4940   56.2500 C.3       1 B80579      0.0000 
     25 C16        52.4300   -9.3140   52.6180 C.2       1 B80579      0.0000 
     26 O27        51.8860  -10.1090   51.8570 O.2       1 B80579      0.0000 
     27 N25        52.5030   -9.5750   53.9300 N.am      1 B80579      0.0000 
     28 C21        51.8840  -10.7400   54.5570 C.3       1 B80579      0.0000 
     29 C8         50.5190  -10.3360   55.0530 C.ar      1 B80579      0.0000 
     30 C1         50.2340  -10.4140   56.4140 C.ar      1 B80579      0.0000 
     31 C5         48.9840  -10.0320   56.8930 C.ar      1 B80579      0.0000 
     32 C2         49.5580   -9.8730   54.1620 C.ar      1 B80579      0.0000 
     33 C6         48.3090   -9.4890   54.6360 C.ar      1 B80579      0.0000 
     34 C11        48.0290   -9.5700   55.9980 C.ar      1 B80579      0.0000 
     35 F33        46.8260   -9.2040   56.4520 F         1 B80579      0.0000 
     36 H          52.9602   -9.9777   43.8935 H         1 B80579      0.0000 
     37 H          52.0545  -10.7083   45.8729 H         1 B80579      0.0000 
     38 H          51.7629  -10.5685   48.2708 H         1 B80579      0.0000 
     39 H          54.0607   -7.0190   45.9053 H         1 B80579      0.0000 
     40 H          54.4125   -6.1230   50.7631 H         1 B80579      0.0000 
     41 H          51.9391   -6.9490   54.6547 H         1 B80579      0.0000 
     42 H          53.6299   -6.5987   55.0526 H         1 B80579      0.0000 
     43 H          52.7229   -8.8186   55.8781 H         1 B80579      0.0000 
     44 H          55.1642   -8.6613   54.1156 H         1 B80579      0.0000 
     45 H          54.7563  -10.1462   54.9923 H         1 B80579      0.0000 
     46 H          52.4774  -11.0867   55.3998 H         1 B80579      0.0000 
     47 H          51.7736  -11.5514   53.8414 H         1 B80579      0.0000 
     48 H          50.9515  -10.7559   57.0689 H         1 B80579      0.0000 
     49 H          48.7738  -10.0917   57.8920 H         1 B80579      0.0000 
     50 H          49.7693   -9.8149   53.1596 H         1 B80579      0.0000 
     51 H          47.5931   -9.1460   53.9842 H         1 B80579      0.0000 
     52 H          55.7163   -7.7095   44.1155 H         1 B80579      0.0000 
     53 H          55.6857   -8.8728   43.0055 H         1 B80579      0.0000 
     54 H          55.6441   -7.3297   42.5545 H         1 B80579      0.0000 
     55 H          56.2641   -8.7285   56.3123 H         1 B80579      0.0000 
     56 H          55.2310   -7.4965   56.2810 H         1 B80579      0.0000 
     57 H          54.8547   -8.8413   57.0785 H         1 B80579      0.0000 
@<TRIPOS>BOND
     1    2    1 2    
     2    3    2 2    
     3    4    2 1    
     4    5    2 1    
     5   52    4 1    
     6   53    4 1    
     7   54    4 1    
     8    6    5 1    
     9   36    5 1    
    10    7    6 ar   
    11    9    6 ar   
    12    8    7 ar   
    13   37    7 1    
    14   11    8 ar   
    15   38    8 1    
    16   10    9 ar   
    17   39    9 1    
    18   11   10 ar   
    19   13   10 1    
    20   12   11 1    
    21   17   12 2    
    22   14   13 2    
    23   15   13 2    
    24   16   13 1    
    25   17   16 1    
    26   40   16 1    
    27   18   17 1    
    28   19   18 2    
    29   25   18 1    
    30   20   19 ar   
    31   21   19 1    
    32   22   21 1    
    33   41   21 1    
    34   42   21 1    
    35   23   22 1    
    36   27   22 1    
    37   43   22 1    
    38   24   23 1    
    39   44   23 1    
    40   45   23 1    
    41   55   24 1    
    42   56   24 1    
    43   57   24 1    
    44   26   25 2    
    45   27   25 am   
    46   28   27 1    
    47   29   28 1    
    48   46   28 1    
    49   47   28 1    
    50   30   29 ar   
    51   32   29 ar   
    52   31   30 ar   
    53   48   30 1    
    54   34   31 ar   
    55   49   31 1    
    56   33   32 ar   
    57   50   32 1    
    58   34   33 ar   
    59   51   33 1    
    60   35   34 1    
@<TRIPOS>SUBSTRUCTURE
     1 B80579      1 GROUP   
@<TRIPOS>SET

