#    Name: 2IDX_2_CAVITY_N1_ALL.mol2
#    Modification time : Mon Mar 10 18:56:55 2014

@<TRIPOS>MOLECULE
2IDX_2_CAVITY_N1_ALL.mol2
   69     0     7     0     0
SMALL
NO_CHARGES


@<TRIPOS>ATOM
      1 OG         47.3260   44.0855    3.0144 O.2       1 SER1        0.0000 
      2 OG         47.7921   47.2906    4.7493 O.2       1 SER1        0.0000 
      3 OG         46.8300   46.1714    4.4817 O.2       1 SER1        0.0000 
      4 OG         45.7395   47.1695    4.2276 O.2       1 SER1        0.0000 
      5 OG         46.9584   44.0540    4.4683 O.2       1 SER1        0.0000 
      6 CA         47.0868   41.9366    4.4549 C.3       6 GLY6        0.0000 
      7 OD1        48.5149   46.2610    6.4573 O.3       3 ASP3        0.0000 
      8 OD1        47.4244   47.2591    6.2032 O.3       3 ASP3        0.0000 
      9 OD1        46.3339   48.2572    5.9491 O.3       3 ASP3        0.0000 
     10 DU         47.5528   45.1417    6.1897 H         7 CUB7        0.0000 
     11 OG         46.4623   46.1399    5.9356 O.2       1 SER1        0.0000 
     12 OD1        45.3718   47.1380    5.6815 O.3       3 ASP3        0.0000 
     13 OG         47.6812   43.0244    6.1763 O.2       1 SER1        0.0000 
     14 OG         46.5907   44.0225    5.9222 O.2       1 SER1        0.0000 
     15 N          47.8096   40.9070    6.1629 N.2       2 ALA2        0.0000 
     16 N          46.7191   41.9051    5.9088 N.2       2 ALA2        0.0000 
     17 DU         47.1852   45.1102    7.6437 H         7 CUB7        0.0000 
     18 OD1        46.0947   46.1083    7.3895 O.3       3 ASP3        0.0000 
     19 DU         47.3136   42.9928    7.6302 H         7 CUB7        0.0000 
     20 OG         46.2231   43.9909    7.3761 O.2       1 SER1        0.0000 
     21 OG         45.1326   44.9891    7.1220 O.2       1 SER1        0.0000 
     22 OG         44.0421   45.9872    6.8679 O.2       1 SER1        0.0000 
     23 N          47.4420   40.8754    7.6168 N.2       2 ALA2        0.0000 
     24 N          46.3515   41.8736    7.3627 N.2       2 ALA2        0.0000 
     25 O          46.8175   45.0787    9.0976 O.2       2 ALA2        0.0000 
     26 OD1        45.7270   46.0768    8.8434 O.3       3 ASP3        0.0000 
     27 O          46.9459   42.9613    9.0841 O.2       2 ALA2        0.0000 
     28 O          45.8554   43.9594    8.8300 O.2       2 ALA2        0.0000 
     29 OG         44.7649   44.9575    8.5759 O.2       1 SER1        0.0000 
     30 OD1        43.6744   45.9557    8.3218 O.3       3 ASP3        0.0000 
     31 CZ         47.0743   40.8439    9.0707 C.ar      5 PHE5        0.0000 
     32 DU         45.9838   41.8420    8.8166 H         7 CUB7        0.0000 
     33 OG         44.8933   42.8402    8.5625 O.2       1 SER1        0.0000 
     34 OG         43.8028   43.8383    8.3084 O.2       1 SER1        0.0000 
     35 CA         42.7123   44.8364    8.0542 C.3       6 GLY6        0.0000 
     36 CZ         45.0217   40.7228    8.5490 C.ar      5 PHE5        0.0000 
     37 CZ         43.9312   41.7209    8.2949 C.ar      5 PHE5        0.0000 
     38 OG         42.8407   42.7190    8.0408 O.2       1 SER1        0.0000 
     39 CA         41.7502   43.7171    7.7867 C.3       6 GLY6        0.0000 
     40 O          46.5783   42.9298   10.5380 O.2       2 ALA2        0.0000 
     41 O          43.3068   45.9241    9.7757 O.2       2 ALA2        0.0000 
     42 DU         46.7067   40.8124   10.5246 H         7 CUB7        0.0000 
     43 O          45.6162   41.8105   10.2705 O.2       2 ALA2        0.0000 
     44 O          44.5257   42.8086   10.0164 O.2       2 ALA2        0.0000 
     45 O          43.4352   43.8068    9.7623 O.2       2 ALA2        0.0000 
     46 CA         42.3447   44.8049    9.5082 C.3       6 GLY6        0.0000 
     47 CA         41.2542   45.8030    9.2540 C.3       6 GLY6        0.0000 
     48 CA         45.7446   39.6931   10.2571 C.3       6 GLY6        0.0000 
     49 CZ         44.6541   40.6913   10.0030 C.ar      5 PHE5        0.0000 
     50 CZ         43.5636   41.6894    9.7488 C.ar      5 PHE5        0.0000 
     51 CZ         42.4731   42.6875    9.4947 C.ar      5 PHE5        0.0000 
     52 CA         41.3826   43.6856    9.2406 C.3       6 GLY6        0.0000 
     53 CZ         40.4205   42.5663    8.9731 C.ar      5 PHE5        0.0000 
     54 CA         46.3391   40.7809   11.9785 C.3       6 GLY6        0.0000 
     55 O          45.2486   41.7790   11.7244 O.2       2 ALA2        0.0000 
     56 O          41.9770   44.7734   10.9621 O.2       2 ALA2        0.0000 
     57 NZ         40.8865   45.7715   10.7079 N.2       4 LYS4        0.0000 
     58 CA         44.2864   40.6597   11.4569 C.3       6 GLY6        0.0000 
     59 CZ         43.1959   41.6579   11.2027 C.ar      5 PHE5        0.0000 
     60 O          42.1054   42.6560   10.9486 O.2       2 ALA2        0.0000 
     61 DU         41.0149   43.6541   10.6945 H         7 CUB7        0.0000 
     62 CA         39.9244   44.6522   10.4404 C.3       6 GLY6        0.0000 
     63 CA         40.0528   42.5348   10.4270 C.3       6 GLY6        0.0000 
     64 O          44.8809   41.7475   13.1783 O.2       2 ALA2        0.0000 
     65 O          42.6999   43.7437   12.6701 O.2       2 ALA2        0.0000 
     66 CA         41.6094   44.7418   12.4160 C.3       6 GLY6        0.0000 
     67 N          42.8283   41.6263   12.6567 N.2       2 ALA2        0.0000 
     68 O          41.7378   42.6245   12.4025 O.2       2 ALA2        0.0000 
     69 CA         40.6473   43.6226   12.1484 C.3       6 GLY6        0.0000 
@<TRIPOS>BOND
@<TRIPOS>SUBSTRUCTURE
     1 SER1        1 GROUP   
     2 ALA2       15 GROUP   
     3 ASP3        7 GROUP   
     4 LYS4       57 GROUP   
     5 PHE5       31 GROUP   
     6 GLY6        6 GROUP   
     7 CUB7       10 GROUP   
@<TRIPOS>SET

