#    Name: 2idx_ATP_2_INTS_M
#    Modification time : Tue Mar 25 17:40:08 2014

@<TRIPOS>MOLECULE
2idx_ATP_2_INTS_M
   74     0    15     0     0
SMALL
NO_CHARGES


@<TRIPOS>ATOM
      1 N          44.2580   49.4890    3.7785 N.am      2 SEC2        0.0000 
      2 N          45.0140   50.0950    4.8210 N.am     12 SEL2        0.0000 
      3 N          43.5020   48.8830    2.7360 N.am      7 SEP2        0.0000 
      4 N          43.9605   50.5880    5.6390 N.am      2 SEC2        0.0000 
      5 N          42.9070   51.0810    6.4570 N.am      7 SEP2        0.0000 
      6 N          48.1980   50.7025    4.8125 N.am      2 SEC2        0.0000 
      7 N          47.4640   49.6290    5.3330 N.am     12 SEL2        0.0000 
      8 N          48.9320   51.7760    4.2920 N.am      7 SEP2        0.0000 
      9 N          47.7660   49.4840    4.0730 N.am      2 SEC2        0.0000 
     10 N          48.0680   49.3390    2.8130 N.am      7 SEP2        0.0000 
     11 Zn         45.1600   49.1225    7.7705 Zn        4 ZIC7        0.0000 
     12 Zn         45.7340   49.4680    7.1910 Zn       14 ZIL7        0.0000 
     13 Zn         44.5860   48.7770    8.3500 Zn        9 ZIP7        0.0000 
     14 N          44.3205   50.2745    6.8240 N.am      2 SEC2        0.0000 
     15 N          45.7340   49.4680    7.1910 N.am     12 SEL2        0.0000 
     16 N          44.1230   44.6100    5.3980 N.am      2 SEC2        0.0000 
     17 N          44.4960   45.8510    5.1440 N.am     12 SEL2        0.0000 
     18 N          43.7500   43.3690    5.6520 N.am      7 SEP2        0.0000 
     19 NZ         42.5575   47.7050    6.9355 N.4       3 LYC4        0.0000 
     20 NZ         43.9210   47.6050    7.0110 N.4      13 LYL4        0.0000 
     21 NZ         41.1940   47.8050    6.8600 N.4       8 LYP4        0.0000 
     22 Zn         44.2535   48.1910    7.6805 Zn        4 ZIC7        0.0000 
     23 Zn         43.9210   47.6050    7.0110 Zn       14 ZIL7        0.0000 
     24 N          42.5575   47.7050    6.9355 N.am      2 SEC2        0.0000 
     25 N          43.9210   47.6050    7.0110 N.am     12 SEL2        0.0000 
     26 N          41.1940   47.8050    6.8600 N.am      7 SEP2        0.0000 
     27 Zn         48.7835   47.6465    8.4815 Zn        4 ZIC7        0.0000 
     28 Zn         47.9980   46.9350    8.1060 Zn       14 ZIL7        0.0000 
     29 Zn         49.5690   48.3580    8.8570 Zn        9 ZIP7        0.0000 
     30 NZ         45.3985   47.1295   10.6660 N.4       3 LYC4        0.0000 
     31 NZ         45.6810   47.4000    9.2400 N.4      13 LYL4        0.0000 
     32 NZ         44.9090   45.7110   12.7320 N.4       8 LYP4        0.0000 
     33 Zn         45.1335   48.0885    8.7950 Zn        4 ZIC7        0.0000 
     34 Zn         45.6810   47.4000    9.2400 Zn       14 ZIL7        0.0000 
     35 N          45.3985   47.1295   10.6660 N.am      2 SEC2        0.0000 
     36 N          45.6810   47.4000    9.2400 N.am     12 SEL2        0.0000 
     37 N          45.1160   46.8590   12.0920 N.am      7 SEP2        0.0000 
     38 N          45.8630   44.8115   10.6680 N.am      2 SEC2        0.0000 
     39 N          46.5880   45.0580    9.2320 N.am     12 SEL2        0.0000 
     40 N          45.1380   44.5650   12.1040 N.am      7 SEP2        0.0000 
     41 N          45.5830   43.4735   11.0225 N.am      2 SEC2        0.0000 
     42 N          46.0280   42.3820    9.9410 N.am     12 SEL2        0.0000 
     43 CA         43.7790   42.3655    6.5705 C.3       5 GLC5        0.0000 
     44 CA         45.1200   41.7070    7.9150 C.3      15 GLL5        0.0000 
     45 CA         42.4380   43.0240    5.2260 C.3      10 GLP5        0.0000 
     46 O          45.4050   39.8985    6.6080 O.2       1 ALC1        0.0000 
     47 O          45.5550   40.3620    7.8260 O.2      11 ALL1        0.0000 
     48 O          45.2550   39.4350    5.3900 O.2       6 ALP1        0.0000 
     49 CA         40.8875   45.0825    9.0050 C.3       5 GLC5        0.0000 
     50 CA         42.1910   44.2110   10.6110 C.3      15 GLL5        0.0000 
     51 CA         39.5840   45.9540    7.3990 C.3      10 GLP5        0.0000 
     52 CA         41.3675   45.4760   13.2145 C.3       5 GLC5        0.0000 
     53 CA         41.1370   44.4680   11.6190 C.3      15 GLL5        0.0000 
     54 CA         41.5980   46.4840   14.8100 C.3      10 GLP5        0.0000 
     55 CA         39.2695   43.9785   12.0440 C.3       5 GLC5        0.0000 
     56 CA         37.4020   43.4890   12.4690 C.3      10 GLP5        0.0000 
     57 O          39.4825   45.7625   12.8060 O.2       1 ALC1        0.0000 
     58 O          40.4390   45.6320   11.6040 O.2      11 ALL1        0.0000 
     59 O          38.5260   45.8930   14.0080 O.2       6 ALP1        0.0000 
     60 O          40.4110   47.0125   10.9620 O.2       1 ALC1        0.0000 
     61 O          40.3830   48.3930   10.3200 O.2       6 ALP1        0.0000 
     62 N          40.1410   43.2125   13.8115 N.am      2 SEC2        0.0000 
     63 N          40.9210   43.5040   12.5560 N.am     12 SEL2        0.0000 
     64 N          39.3610   42.9210   15.0670 N.am      7 SEP2        0.0000 
     65 CA         40.6935   41.0065   11.3315 C.3       5 GLC5        0.0000 
     66 CA         41.6160   42.3480   12.5560 C.3      15 GLL5        0.0000 
     67 CA         39.7710   39.6650   10.1070 C.3      10 GLP5        0.0000 
     68 CA         41.8160   41.4855   14.3765 C.3       5 GLC5        0.0000 
     69 CA         42.0160   40.6230   16.1970 C.3      10 GLP5        0.0000 
     70 CA         39.7115   42.2085   12.6840 C.3       5 GLC5        0.0000 
     71 CA         37.8070   42.0690   12.8120 C.3      10 GLP5        0.0000 
     72 CA         43.7865   40.5905    8.1137 C.3       5 GLC5        0.0000 
     73 CA         44.7880   41.8950    9.3740 C.3      15 GLL5        0.0000 
     74 CA         42.6190   39.3800    7.5830 C.3      10 GLP5        0.0000 
@<TRIPOS>BOND
@<TRIPOS>SUBSTRUCTURE
     1 ALC1       46 GROUP        1 X    ALC  0     ROOT ALC X 1
     2 SEC2        1 GROUP        1 X    SEC  0     **** SEC X 2
     3 LYC4       19 GROUP        1 X    LYC  0     **** LYC X 4
     4 ZIC7       11 GROUP        1 X    ZIC  0     **** ZIC X 5
     5 GLC5       43 GROUP        1 X    GLC  0     **** GLC X 6
     6 ALP1       48 GROUP        1 Y    ALP  0     ROOT ALP Y 8
     7 SEP2        3 GROUP        1 Y    SEP  0     **** SEP Y 9
     8 LYP4       21 GROUP        1 Y    LYP  0     **** LYP Y 11
     9 ZIP7       13 GROUP        1 Y    ZIP  0     **** ZIP Y 12
    10 GLP5       45 GROUP        1 Y    GLP  0     **** GLP Y 13
    11 ALL1       47 GROUP        1 Z    ALL  0     ROOT ALL Z 15
    12 SEL2        2 GROUP        1 Z    SEL  0     **** SEL Z 16
    13 LYL4       20 GROUP        1 Z    LYL  0     **** LYL Z 18
    14 ZIL7       12 GROUP        1 Z    ZIL  0     **** ZIL Z 19
    15 GLL5       44 GROUP        1 Z    GLL  0     **** GLL Z 20
@<TRIPOS>SET

