#    Name: 2idx_ATP_2_ligand
#    Modification time : Tue Mar 25 17:40:08 2014

@<TRIPOS>MOLECULE
2idx_ATP_2_ligand
   43    45     1     0     0
SMALL
NO_CHARGES


@<TRIPOS>ATOM
      1 PG         46.0270   49.3640    5.7090 P.3       1 ATP606      0.0000 
      2 O1G        45.0140   50.0950    4.8210 O.co2     1 ATP606      0.0000 
      3 O2G        47.4640   49.6290    5.3330 O.co2     1 ATP606      0.0000 
      4 O3G        45.7340   49.4680    7.1910 O.co2     1 ATP606      0.0000 
      5 PB         44.9500   46.8420    6.1890 P.3       1 ATP606      0.0000 
      6 O1B        44.4960   45.8510    5.1440 O.co2     1 ATP606      0.0000 
      7 O2B        43.9210   47.6050    7.0110 O.co2     1 ATP606      0.0000 
      8 O3B        45.9290   47.8180    5.4040 O.3       1 ATP606      0.0000 
      9 PA         46.5950   46.4880    8.4670 P.3       1 ATP606      0.0000 
     10 O1A        47.9980   46.9350    8.1060 O.co2     1 ATP606      0.0000 
     11 O2A        45.6810   47.4000    9.2400 O.co2     1 ATP606      0.0000 
     12 O3A        45.9190   45.9720    7.1160 O.3       1 ATP606      0.0000 
     13 O5'        46.5880   45.0580    9.2320 O.3       1 ATP606      0.0000 
     14 C5'        47.6270   44.0860    9.1610 C.3       1 ATP606      0.0000 
     15 C4'        47.0050   42.7120    8.9430 C.3       1 ATP606      0.0000 
     16 O4'        46.0280   42.3820    9.9410 O.3       1 ATP606      0.0000 
     17 C3'        46.2550   42.6780    7.6390 C.3       1 ATP606      0.0000 
     18 O3'        47.0800   42.2500    6.5540 O.3       1 ATP606      0.0000 
     19 C2'        45.1200   41.7070    7.9150 C.3       1 ATP606      0.0000 
     20 O2'        45.5550   40.3620    7.8260 O.3       1 ATP606      0.0000 
     21 C1'        44.7880   41.8950    9.3740 C.3       1 ATP606      0.0000 
     22 N9         43.7750   42.9380    9.6630 N.pl3     1 ATP606      0.0000 
     23 C8         43.6560   44.1110    9.0130 C.2       1 ATP606      0.0000 
     24 N7         42.7080   44.8860    9.5720 N.2       1 ATP606      0.0000 
     25 C5         42.1910   44.2110   10.6110 C.ar      1 ATP606      0.0000 
     26 C6         41.1370   44.4680   11.6190 C.ar      1 ATP606      0.0000 
     27 N6         40.4390   45.6320   11.6040 N.pl3     1 ATP606      0.0000 
     28 N1         40.9210   43.5040   12.5560 N.ar      1 ATP606      0.0000 
     29 C2         41.6160   42.3480   12.5560 C.ar      1 ATP606      0.0000 
     30 N3         42.5870   42.0610   11.6650 N.ar      1 ATP606      0.0000 
     31 C4         42.9090   42.9280   10.6780 C.ar      1 ATP606      0.0000 
     32 H          48.2125   44.0468   10.0839 H         1 ATP606      0.0000 
     33 H          48.3112   44.2803    8.3302 H         1 ATP606      0.0000 
     34 H          47.7787   41.9698    8.9024 H         1 ATP606      0.0000 
     35 H          45.8209   43.6470    7.4813 H         1 ATP606      0.0000 
     36 H          44.2899   41.9311    7.3399 H         1 ATP606      0.0000 
     37 H          44.5355   40.9697    9.8137 H         1 ATP606      0.0000 
     38 H          44.1940   44.3690    8.2287 H         1 ATP606      0.0000 
     39 H          39.7518   45.7423   12.3221 H         1 ATP606      0.0000 
     40 H          40.6736   46.2764   10.8762 H         1 ATP606      0.0000 
     41 H          41.3850   41.6208   13.3017 H         1 ATP606      0.0000 
     42 H          46.9703   41.2565    6.5218 H         1 ATP606      0.0000 
     43 H          44.9707   39.9468    7.1288 H         1 ATP606      0.0000 
@<TRIPOS>BOND
     1    2    1 ar   
     2    3    1 ar   
     3    4    1 ar   
     4    8    1 1    
     5    6    5 ar   
     6    7    5 ar   
     7    8    5 1    
     8   12    5 1    
     9   10    9 ar   
    10   11    9 ar   
    11   12    9 1    
    12   13    9 1    
    13   14   13 1    
    14   15   14 1    
    15   32   14 1    
    16   33   14 1    
    17   16   15 1    
    18   17   15 1    
    19   34   15 1    
    20   21   16 1    
    21   18   17 1    
    22   19   17 1    
    23   35   17 1    
    24   42   18 1    
    25   20   19 1    
    26   21   19 1    
    27   36   19 1    
    28   43   20 1    
    29   22   21 1    
    30   37   21 1    
    31   23   22 1    
    32   31   22 1    
    33   24   23 2    
    34   38   23 1    
    35   25   24 1    
    36   26   25 ar   
    37   31   25 ar   
    38   27   26 1    
    39   28   26 ar   
    40   39   27 1    
    41   40   27 1    
    42   29   28 ar   
    43   30   29 ar   
    44   41   29 1    
    45   31   30 ar   
@<TRIPOS>SUBSTRUCTURE
     1 ATP606      1 GROUP   
@<TRIPOS>SET

