#    Name: 4at0_FAD_1_INTS_M
#    Modification time : Tue Mar 25 06:12:56 2014

@<TRIPOS>MOLECULE
4at0_FAD_1_INTS_M
  127     0     9     0     0
SMALL
NO_CHARGES


@<TRIPOS>ATOM
      1 N          32.2440   30.5200   43.1040 N.am      2 SEC2        0.0000 
      2 N          33.1290   31.8460   42.8080 N.am      8 SEL2        0.0000 
      3 N          31.3590   29.1940   43.4000 N.am      5 SEP2        0.0000 
      4 N          31.5755   31.1645   40.7050 N.am      2 SEC2        0.0000 
      5 N          32.7110   31.8840   40.2610 N.am      8 SEL2        0.0000 
      6 N          30.4400   30.4450   41.1490 N.am      5 SEP2        0.0000 
      7 N          33.1445   31.5690   38.9835 N.am      2 SEC2        0.0000 
      8 N          33.5780   31.2540   37.7060 N.am      5 SEP2        0.0000 
      9 CA         32.9565   34.7245   42.6350 C.3       3 GLC5        0.0000 
     10 CA         33.3270   34.8640   40.4610 C.3       9 GLL5        0.0000 
     11 CA         32.5860   34.5850   44.8090 C.3       6 GLP5        0.0000 
     12 CA         34.9350   34.2305   39.1105 C.3       3 GLC5        0.0000 
     13 CA         36.5430   33.5970   37.7600 C.3       6 GLP5        0.0000 
     14 CA         32.7410   37.6680   40.9715 C.3       3 GLC5        0.0000 
     15 CA         32.2200   35.9410   40.4440 C.3       9 GLL5        0.0000 
     16 CA         33.2620   39.3950   41.4990 C.3       6 GLP5        0.0000 
     17 CA         30.0935   33.9080   40.9435 C.3       3 GLC5        0.0000 
     18 CA         30.8570   35.3160   40.0520 C.3       9 GLL5        0.0000 
     19 CA         29.3300   32.5000   41.8350 C.3       6 GLP5        0.0000 
     20 N          28.4755   35.3410   41.4345 N.am      2 SEC2        0.0000 
     21 N          29.8500   35.6750   41.0400 N.am      8 SEL2        0.0000 
     22 N          27.1010   35.0070   41.8290 N.am      5 SEP2        0.0000 
     23 O          29.6870   36.9985   41.2330 O.2       1 ALC1        0.0000 
     24 O          29.8500   35.6750   41.0400 O.2       7 ALL1        0.0000 
     25 O          29.5240   38.3220   41.4260 O.2       4 ALP1        0.0000 
     26 CA         30.0535   35.4055   36.8010 C.3       3 GLC5        0.0000 
     27 CA         30.5760   35.9300   38.7020 C.3       9 GLL5        0.0000 
     28 CA         29.5310   34.8810   34.9000 C.3       6 GLP5        0.0000 
     29 O          28.4700   36.9175   39.2820 O.2       1 ALC1        0.0000 
     30 O          29.1350   36.1030   38.4300 O.2       7 ALL1        0.0000 
     31 O          27.8050   37.7320   40.1340 O.2       4 ALP1        0.0000 
     32 CA         32.2960   38.3385   40.1300 C.3       3 GLC5        0.0000 
     33 CA         31.3300   37.2820   38.7610 C.3       9 GLL5        0.0000 
     34 CA         29.9535   38.5960   37.6130 C.3       3 GLC5        0.0000 
     35 CA         28.5770   39.9100   36.4650 C.3       6 GLP5        0.0000 
     36 CA         33.5035   37.2750   38.5900 C.3       3 GLC5        0.0000 
     37 CA         35.6770   37.2680   38.4190 C.3       6 GLP5        0.0000 
     38 CA         30.6165   39.1770   35.1030 C.3       3 GLC5        0.0000 
     39 CA         32.2070   39.3920   35.9890 C.3       9 GLL5        0.0000 
     40 CA         29.0260   38.9620   34.2170 C.3       6 GLP5        0.0000 
     41 CA         30.4500   40.2970   36.0010 C.3       3 GLC5        0.0000 
     42 CA         32.3230   40.6840   35.5370 C.3       9 GLL5        0.0000 
     43 CA         30.9060   42.1345   34.9290 C.3       3 GLC5        0.0000 
     44 CA         29.4890   43.5850   34.3210 C.3       6 GLP5        0.0000 
     45 CA         33.1910   42.6545   35.6590 C.3       3 GLC5        0.0000 
     46 CA         34.0590   44.6250   35.7810 C.3       6 GLP5        0.0000 
     47 O          33.1490   42.2390   33.5390 O.2       1 ALC1        0.0000 
     48 O          32.7370   40.9310   34.2640 O.2       7 ALL1        0.0000 
     49 O          33.5610   43.5470   32.8140 O.2       4 ALP1        0.0000 
     50 N          31.9275   42.9180   35.5760 N.am      2 SEC2        0.0000 
     51 N          32.0490   41.6920   36.3380 N.am      8 SEL2        0.0000 
     52 N          31.8060   44.1440   34.8140 N.am      5 SEP2        0.0000 
     53 CA         30.2500   41.4780   39.3100 C.3       3 GLC5        0.0000 
     54 CA         31.6580   41.4760   37.6350 C.3       9 GLL5        0.0000 
     55 CA         28.8420   41.4800   40.9850 C.3       6 GLP5        0.0000 
     56 CA         30.1175   40.6930   37.0500 C.3       3 GLC5        0.0000 
     57 CA         30.5735   42.5305   35.9780 C.3       3 GLC5        0.0000 
     58 CA         32.5770   43.1990   37.3960 C.3       3 GLC5        0.0000 
     59 CA         33.4960   44.9220   37.1570 C.3       6 GLP5        0.0000 
     60 CA         33.4815   40.5980   37.7085 C.3       3 GLC5        0.0000 
     61 CA         35.3050   39.7200   37.7820 C.3       6 GLP5        0.0000 
     62 N          29.9530   40.4440   38.4090 N.am      2 SEC2        0.0000 
     63 N          31.5310   40.1790   38.0790 N.am      8 SEL2        0.0000 
     64 N          28.3750   40.7090   38.7390 N.am      5 SEP2        0.0000 
     65 CA         30.1895   39.5385   36.8560 C.3       3 GLC5        0.0000 
     66 CA         31.8020   39.1670   37.2470 C.3       9 GLL5        0.0000 
     67 N          38.5085   25.2185   45.5325 N.am      2 SEC2        0.0000 
     68 N          38.2170   23.9000   45.2490 N.am      8 SEL2        0.0000 
     69 N          38.8000   26.5370   45.8160 N.am      5 SEP2        0.0000 
     70 O          36.7595   22.8300   47.0875 O.2       1 ALC1        0.0000 
     71 O          36.4440   22.5610   45.6800 O.2       7 ALL1        0.0000 
     72 O          37.0750   23.0990   48.4950 O.2       4 ALP1        0.0000 
     73 N          34.7480   21.2945   47.4430 N.am      2 SEC2        0.0000 
     74 N          34.6370   21.1820   45.9780 N.am      8 SEL2        0.0000 
     75 N          34.8590   21.4070   48.9080 N.am      5 SEP2        0.0000 
     76 N          32.4795   21.5790   44.5370 N.am      2 SEC2        0.0000 
     77 N          33.6610   21.6860   43.4890 N.am      8 SEL2        0.0000 
     78 N          31.2980   21.4720   45.5850 N.am      5 SEP2        0.0000 
     79 CA         31.5635   22.3355   43.0435 C.3       3 GLC5        0.0000 
     80 CA         32.3340   21.0750   41.5730 C.3       9 GLL5        0.0000 
     81 CA         30.7930   23.5960   44.5140 C.3       6 GLP5        0.0000 
     82 CA         32.5955   23.7885   36.4475 C.3       3 GLC5        0.0000 
     83 CA         32.3410   22.4580   38.0710 C.3       9 GLL5        0.0000 
     84 CA         32.8500   25.1190   34.8240 C.3       6 GLP5        0.0000 
     85 CA         31.1235   24.1510   38.3235 C.3       3 GLC5        0.0000 
     86 CA         29.9060   25.8440   38.5760 C.3       6 GLP5        0.0000 
     87 CA         34.4110   22.8250   37.6265 C.3       3 GLC5        0.0000 
     88 CA         36.4810   23.1920   37.1820 C.3       6 GLP5        0.0000 
     89 CA         36.8635   24.0685   40.1630 C.3       3 GLC5        0.0000 
     90 CA         35.6390   24.7480   41.3490 C.3       9 GLL5        0.0000 
     91 CA         38.0880   23.3890   38.9770 C.3       6 GLP5        0.0000 
     92 CA         33.6240   25.2010   43.4165 C.3       3 GLC5        0.0000 
     93 CA         35.1600   26.0380   42.0430 C.3       9 GLL5        0.0000 
     94 CA         32.0880   24.3640   44.7900 C.3       6 GLP5        0.0000 
     95 CA         35.3185   26.7170   43.9965 C.3       3 GLC5        0.0000 
     96 CA         35.4770   27.3960   45.9500 C.3       6 GLP5        0.0000 
     97 O          38.0130   27.1685   41.3845 O.2       1 ALC1        0.0000 
     98 O          36.8820   27.1070   40.6300 O.2       7 ALL1        0.0000 
     99 O          39.1440   27.2300   42.1390 O.2       4 ALP1        0.0000 
    100 CA         35.6030   27.9355   44.0890 C.3       3 GLC5        0.0000 
    101 CA         35.7290   28.4750   42.2280 C.3       9 GLL5        0.0000 
    102 N          33.9665   29.5005   43.9155 N.am      2 SEC2        0.0000 
    103 N          34.4610   28.6260   42.8770 N.am      8 SEL2        0.0000 
    104 N          33.4720   30.3750   44.9540 N.am      5 SEP2        0.0000 
    105 CA         37.7645   29.4290   40.5020 C.3       3 GLC5        0.0000 
    106 CA         36.1030   29.7690   41.4960 C.3       9 GLL5        0.0000 
    107 CA         39.4260   29.0890   39.5080 C.3       6 GLP5        0.0000 
    108 N          38.7200   32.3080   40.6600 N.am      2 SEC2        0.0000 
    109 N          37.4110   32.5460   41.0910 N.am      8 SEL2        0.0000 
    110 N          40.0290   32.0700   40.2290 N.am      5 SEP2        0.0000 
    111 N          36.5655   33.7320   44.7310 N.am      2 SEC2        0.0000 
    112 N          36.1300   33.1940   43.2690 N.am      8 SEL2        0.0000 
    113 N          37.0010   34.2700   46.1930 N.am      5 SEP2        0.0000 
    114 CA         34.2252   36.3353   39.4357 C.3       3 GLC5        0.0000 
    115 CA         30.2792   33.8825   38.6620 C.3       3 GLC5        0.0000 
    116 CA         29.8420   32.1420   37.9470 C.3       6 GLP5        0.0000 
    117 CA         33.6692   39.6612   37.1435 C.3       3 GLC5        0.0000 
    118 CA         32.8843   23.3480   43.2882 C.3       3 GLC5        0.0000 
    119 CA         34.0190   22.8150   41.4010 C.3       9 GLL5        0.0000 
    120 CA         30.1606   20.2782   41.4978 C.3       3 GLC5        0.0000 
    121 CA         28.7730   19.7470   42.7280 C.3       6 GLP5        0.0000 
    122 CA         37.3533   25.6905   42.2395 C.3       3 GLC5        0.0000 
    123 CA         39.3070   25.9880   42.7830 C.3       6 GLP5        0.0000 
    124 CA         33.7345   28.2510   40.9685 C.3       3 GLC5        0.0000 
    125 CA         35.6190   27.2890   41.2740 C.3       9 GLL5        0.0000 
    126 CA         31.7950   28.6200   40.1860 C.3       6 GLP5        0.0000 
    127 CA         37.4905   26.9350   42.2670 C.3       3 GLC5        0.0000 
@<TRIPOS>BOND
@<TRIPOS>SUBSTRUCTURE
     1 ALC1       23 GROUP        1 X    ALC  0     ROOT ALC X 1
     2 SEC2        1 GROUP        1 X    SEC  0     **** SEC X 2
     3 GLC5        9 GROUP        1 X    GLC  0     **** GLC X 6
     4 ALP1       25 GROUP        1 Y    ALP  0     ROOT ALP Y 8
     5 SEP2        3 GROUP        1 Y    SEP  0     **** SEP Y 9
     6 GLP5       11 GROUP        1 Y    GLP  0     **** GLP Y 13
     7 ALL1       24 GROUP        1 Z    ALL  0     ROOT ALL Z 15
     8 SEL2        2 GROUP        1 Z    SEL  0     **** SEL Z 16
     9 GLL5       10 GROUP        1 Z    GLL  0     **** GLL Z 20
@<TRIPOS>SET

