#    Name: 4at0_FAD_1_ligand
#    Modification time : Tue Mar 25 06:12:56 2014

@<TRIPOS>MOLECULE
4at0_FAD_1_ligand
   84    89     1     0     0
SMALL
NO_CHARGES


@<TRIPOS>ATOM
      1 PA         33.3790   32.4360   41.4690 P.3       1 FAD1493     0.0000 
      2 O1A        33.1290   31.8460   42.8080 O.co2     1 FAD1493     0.0000 
      3 O2A        32.7110   31.8840   40.2610 O.co2     1 FAD1493     0.0000 
      4 O5B        33.0500   33.9820   41.5900 O.3       1 FAD1493     0.0000 
      5 C5B        33.3270   34.8640   40.4610 C.3       1 FAD1493     0.0000 
      6 C4B        32.2200   35.9410   40.4440 C.3       1 FAD1493     0.0000 
      7 O4B        32.5650   36.9250   39.4460 O.3       1 FAD1493     0.0000 
      8 C3B        30.8570   35.3160   40.0520 C.3       1 FAD1493     0.0000 
      9 O3B        29.8500   35.6750   41.0400 O.3       1 FAD1493     0.0000 
     10 C2B        30.5760   35.9300   38.7020 C.3       1 FAD1493     0.0000 
     11 O2B        29.1350   36.1030   38.4300 O.3       1 FAD1493     0.0000 
     12 C1B        31.3300   37.2820   38.7610 C.3       1 FAD1493     0.0000 
     13 N9A        31.7400   37.8470   37.4720 N.pl3     1 FAD1493     0.0000 
     14 C8A        32.1160   37.2490   36.3330 C.2       1 FAD1493     0.0000 
     15 N7A        32.3870   38.1950   35.4230 N.2       1 FAD1493     0.0000 
     16 C5A        32.2070   39.3920   35.9890 C.ar      1 FAD1493     0.0000 
     17 C6A        32.3230   40.6840   35.5370 C.ar      1 FAD1493     0.0000 
     18 N6A        32.7370   40.9310   34.2640 N.pl3     1 FAD1493     0.0000 
     19 N1A        32.0490   41.6920   36.3380 N.ar      1 FAD1493     0.0000 
     20 C2A        31.6580   41.4760   37.6350 C.ar      1 FAD1493     0.0000 
     21 N3A        31.5310   40.1790   38.0790 N.ar      1 FAD1493     0.0000 
     22 C4A        31.8020   39.1670   37.2470 C.ar      1 FAD1493     0.0000 
     23 N1         36.6880   23.7650   43.5980 N.2       1 FAD1493     0.0000 
     24 C2         37.1730   23.4340   44.8370 C.2       1 FAD1493     0.0000 
     25 O2         38.2170   23.9000   45.2490 O.2       1 FAD1493     0.0000 
     26 N3         36.4440   22.5610   45.6800 N.am      1 FAD1493     0.0000 
     27 C4         35.2540   21.9680   45.2410 C.2       1 FAD1493     0.0000 
     28 O4         34.6370   21.1820   45.9780 O.2       1 FAD1493     0.0000 
     29 C4X        34.7900   22.2720   43.9590 C.2       1 FAD1493     0.0000 
     30 N5         33.6610   21.6860   43.4890 N.2       1 FAD1493     0.0000 
     31 C5X        33.3420   21.8490   42.1720 C.ar      1 FAD1493     0.0000 
     32 C6         32.3340   21.0750   41.5730 C.ar      1 FAD1493     0.0000 
     33 C7         31.9790   21.2550   40.2230 C.ar      1 FAD1493     0.0000 
     34 C7M        30.9400   20.4540   39.6370 C.3       1 FAD1493     0.0000 
     35 C8         32.6670   22.2180   39.4470 C.ar      1 FAD1493     0.0000 
     36 C8M        32.3410   22.4580   38.0710 C.3       1 FAD1493     0.0000 
     37 C9         33.6660   22.9970   40.0570 C.ar      1 FAD1493     0.0000 
     38 C9A        34.0190   22.8150   41.4010 C.ar      1 FAD1493     0.0000 
     39 N10        35.0320   23.5350   41.9720 N.pl3     1 FAD1493     0.0000 
     40 C10        35.5010   23.1740   43.1640 C.2       1 FAD1493     0.0000 
     41 C1'        35.6390   24.7480   41.3490 C.3       1 FAD1493     0.0000 
     42 C2'        35.1600   26.0380   42.0430 C.3       1 FAD1493     0.0000 
     43 O2'        33.7430   25.9830   42.0530 O.3       1 FAD1493     0.0000 
     44 C3'        35.6190   27.2890   41.2740 C.3       1 FAD1493     0.0000 
     45 O3'        36.8820   27.1070   40.6300 O.3       1 FAD1493     0.0000 
     46 C4'        35.7290   28.4750   42.2280 C.3       1 FAD1493     0.0000 
     47 O4'        34.4610   28.6260   42.8770 O.3       1 FAD1493     0.0000 
     48 C5'        36.1030   29.7690   41.4960 C.3       1 FAD1493     0.0000 
     49 O5'        36.2070   30.8110   42.5170 O.3       1 FAD1493     0.0000 
     50 P          36.2870   32.3550   42.0110 P.3       1 FAD1493     0.0000 
     51 O1P        37.4110   32.5460   41.0910 O.co2     1 FAD1493     0.0000 
     52 O2P        36.1300   33.1940   43.2690 O.co2     1 FAD1493     0.0000 
     53 O3P        34.9660   32.4100   41.0270 O.3       1 FAD1493     0.0000 
     54 H          33.2904   34.3308   39.5228 H         1 FAD1493     0.0000 
     55 H          34.2783   35.3627   40.5713 H         1 FAD1493     0.0000 
     56 H          32.1376   36.3707   41.4084 H         1 FAD1493     0.0000 
     57 H          30.9967   34.2784   39.9487 H         1 FAD1493     0.0000 
     58 H          31.0603   35.3340   37.9517 H         1 FAD1493     0.0000 
     59 H          30.7835   37.9582   39.3532 H         1 FAD1493     0.0000 
     60 H          32.1812   36.2913   36.1909 H         1 FAD1493     0.0000 
     61 H          32.8992   40.1281   33.6905 H         1 FAD1493     0.0000 
     62 H          32.8425   41.8936   34.0145 H         1 FAD1493     0.0000 
     63 H          31.4639   42.2623   38.2624 H         1 FAD1493     0.0000 
     64 H          36.7984   22.3643   46.6250 H         1 FAD1493     0.0000 
     65 H          31.8435   20.3600   42.1331 H         1 FAD1493     0.0000 
     66 H          34.1508   23.7211   39.4989 H         1 FAD1493     0.0000 
     67 H          35.3679   24.8061   40.2907 H         1 FAD1493     0.0000 
     68 H          36.7299   24.7044   41.4197 H         1 FAD1493     0.0000 
     69 H          35.5643   26.0607   43.0271 H         1 FAD1493     0.0000 
     70 H          34.8454   27.5343   40.5469 H         1 FAD1493     0.0000 
     71 H          36.5005   28.2538   42.9510 H         1 FAD1493     0.0000 
     72 H          35.3263   29.9947   40.7827 H         1 FAD1493     0.0000 
     73 H          37.0448   29.6170   40.9931 H         1 FAD1493     0.0000 
     74 H          30.7926   20.6830   38.6748 H         1 FAD1493     0.0000 
     75 H          31.1563   19.4785   39.6763 H         1 FAD1493     0.0000 
     76 H          30.0655   20.5794   40.1055 H         1 FAD1493     0.0000 
     77 H          32.9177   23.1707   37.6715 H         1 FAD1493     0.0000 
     78 H          32.4603   21.6371   37.5124 H         1 FAD1493     0.0000 
     79 H          31.3918   22.7526   37.9601 H         1 FAD1493     0.0000 
     80 H          29.8379   36.6749   41.0455 H         1 FAD1493     0.0000 
     81 H          28.8037   36.7001   39.1605 H         1 FAD1493     0.0000 
     82 H          33.5214   25.0967   42.4597 H         1 FAD1493     0.0000 
     83 H          37.5587   27.4301   41.2916 H         1 FAD1493     0.0000 
     84 H          33.9846   27.7612   42.7183 H         1 FAD1493     0.0000 
@<TRIPOS>BOND
     1    2    1 ar   
     2    3    1 ar   
     3    4    1 1    
     4   53    1 1    
     5    5    4 1    
     6    6    5 1    
     7   54    5 1    
     8   55    5 1    
     9    7    6 1    
    10    8    6 1    
    11   56    6 1    
    12   12    7 1    
    13    9    8 1    
    14   10    8 1    
    15   57    8 1    
    16   80    9 1    
    17   11   10 1    
    18   12   10 1    
    19   58   10 1    
    20   81   11 1    
    21   13   12 1    
    22   59   12 1    
    23   14   13 1    
    24   22   13 1    
    25   15   14 2    
    26   60   14 1    
    27   16   15 1    
    28   17   16 ar   
    29   22   16 ar   
    30   18   17 1    
    31   19   17 ar   
    32   61   18 1    
    33   62   18 1    
    34   20   19 ar   
    35   21   20 ar   
    36   63   20 1    
    37   22   21 ar   
    38   24   23 1    
    39   40   23 2    
    40   25   24 2    
    41   26   24 am   
    42   27   26 am   
    43   64   26 1    
    44   28   27 2    
    45   29   27 1    
    46   30   29 2    
    47   40   29 1    
    48   31   30 1    
    49   32   31 ar   
    50   38   31 ar   
    51   33   32 ar   
    52   65   32 1    
    53   34   33 1    
    54   35   33 ar   
    55   74   34 1    
    56   75   34 1    
    57   76   34 1    
    58   36   35 1    
    59   37   35 ar   
    60   77   36 1    
    61   78   36 1    
    62   79   36 1    
    63   38   37 ar   
    64   66   37 1    
    65   39   38 1    
    66   40   39 1    
    67   41   39 1    
    68   42   41 1    
    69   67   41 1    
    70   68   41 1    
    71   43   42 1    
    72   44   42 1    
    73   69   42 1    
    74   82   43 1    
    75   45   44 1    
    76   46   44 1    
    77   70   44 1    
    78   83   45 1    
    79   47   46 1    
    80   48   46 1    
    81   71   46 1    
    82   84   47 1    
    83   49   48 1    
    84   72   48 1    
    85   73   48 1    
    86   50   49 1    
    87   51   50 ar   
    88   52   50 ar   
    89   53   50 1    
@<TRIPOS>SUBSTRUCTURE
     1 FAD1493     1 GROUP   
@<TRIPOS>SET

