#    Name: 2vor_ACP_1_INTS_M
#    Modification time : Tue Mar 25 02:17:02 2014

@<TRIPOS>MOLECULE
2vor_ACP_1_INTS_M
   89     0    15     0     0
SMALL
NO_CHARGES


@<TRIPOS>ATOM
      1 Zn          5.1730  -34.3225   15.4855 Zn        4 ZIC7        0.0000 
      2 Zn          5.4020  -33.7240   14.7450 Zn       14 ZIL7        0.0000 
      3 Zn          4.9440  -34.9210   16.2260 Zn        9 ZIP7        0.0000 
      4 N           6.8020  -32.9980   14.6095 N.am      2 SEC2        0.0000 
      5 N           5.4020  -33.7240   14.7450 N.am     12 SEL2        0.0000 
      6 N           8.2020  -32.2720   14.4740 N.am      7 SEP2        0.0000 
      7 N           3.2555  -34.0975   11.4845 N.am      2 SEC2        0.0000 
      8 N           3.8350  -35.0310   12.6840 N.am     12 SEL2        0.0000 
      9 N           2.6760  -33.1640   10.2850 N.am      7 SEP2        0.0000 
     10 N           3.7305  -32.9185   11.3510 N.am      2 SEC2        0.0000 
     11 N           4.7850  -32.6730   12.4170 N.am     12 SEL2        0.0000 
     12 NZ          0.8175  -33.9855   16.3270 N.4       3 LYC4        0.0000 
     13 NZ          1.3300  -32.6480   16.1790 N.4      13 LYL4        0.0000 
     14 NZ          0.3050  -35.3230   16.4750 N.4       8 LYP4        0.0000 
     15 N           1.5710  -32.0905   17.5520 N.am      2 SEC2        0.0000 
     16 N           1.3300  -32.6480   16.1790 N.am     12 SEL2        0.0000 
     17 N           1.8120  -31.5330   18.9250 N.am      7 SEP2        0.0000 
     18 N           0.8175  -33.9855   16.3270 N.am      2 SEC2        0.0000 
     19 N           0.3050  -35.3230   16.4750 N.am      7 SEP2        0.0000 
     20 NZ          1.9750  -34.2895   16.5005 N.4       3 LYC4        0.0000 
     21 NZ          3.6450  -33.2560   16.5260 N.4      13 LYL4        0.0000 
     22 Zn          4.2945  -34.0885   16.3760 Zn        4 ZIC7        0.0000 
     23 Zn          3.6450  -33.2560   16.5260 Zn       14 ZIL7        0.0000 
     24 N           4.0545  -32.8520   17.8255 N.am      2 SEC2        0.0000 
     25 N           3.6450  -33.2560   16.5260 N.am     12 SEL2        0.0000 
     26 N           4.4640  -32.4480   19.1250 N.am      7 SEP2        0.0000 
     27 CA          2.0225  -33.5220   12.0475 C.3       5 GLC5        0.0000 
     28 CA          2.5870  -33.4580   14.1160 C.3      15 GLL5        0.0000 
     29 CA          1.4580  -33.5860    9.9790 C.3      10 GLP5        0.0000 
     30 NZ          6.8490  -31.5390   14.6860 N.4       3 LYC4        0.0000 
     31 NZ          5.4960  -30.8060   14.8980 N.4      13 LYL4        0.0000 
     32 NZ          8.7730  -31.0840   14.3270 N.4       8 LYP4        0.0000 
     33 N           6.7685  -30.3845   14.6665 N.am      2 SEC2        0.0000 
     34 N           5.4960  -30.8060   14.8980 N.am     12 SEL2        0.0000 
     35 N           8.0410  -29.9630   14.4350 N.am      7 SEP2        0.0000 
     36 N           6.8490  -31.5390   14.6860 N.am      2 SEC2        0.0000 
     37 N           5.3420  -29.5920   18.1715 N.am      2 SEC2        0.0000 
     38 N           4.6270  -29.1110   16.7680 N.am     12 SEL2        0.0000 
     39 N           6.0570  -30.0730   19.5750 N.am      7 SEP2        0.0000 
     40 N           5.3370  -28.3540   17.5620 N.am      2 SEC2        0.0000 
     41 N           6.0470  -27.5970   18.3560 N.am      7 SEP2        0.0000 
     42 N           1.8990  -30.3510   16.3520 N.am      2 SEC2        0.0000 
     43 N           2.8970  -30.9410   15.4680 N.am     12 SEL2        0.0000 
     44 N           0.9010  -29.7610   17.2360 N.am      7 SEP2        0.0000 
     45 CA          5.6380  -28.4065   13.8685 C.3       5 GLC5        0.0000 
     46 CA          3.7680  -29.3910   13.2180 C.3      15 GLL5        0.0000 
     47 CA          7.5080  -27.4220   14.5190 C.3      10 GLP5        0.0000 
     48 CA          3.3740  -27.9010   10.3550 C.3       5 GLC5        0.0000 
     49 CA          3.4080  -28.1360   12.4460 C.3      15 GLL5        0.0000 
     50 CA          3.3400  -27.6660    8.2640 C.3      10 GLP5        0.0000 
     51 CA          5.9020  -27.1985   13.7035 C.3       5 GLC5        0.0000 
     52 CA          4.2960  -26.9750   12.8880 C.3      15 GLL5        0.0000 
     53 N           6.4055  -27.1620   10.6975 N.am      2 SEC2        0.0000 
     54 N           5.4100  -26.7890   12.0280 N.am     12 SEL2        0.0000 
     55 N           7.4010  -27.5350    9.3670 N.am      7 SEP2        0.0000 
     56 O           5.9780  -25.6115   11.5480 O.2       1 ALC1        0.0000 
     57 O           5.4100  -26.7890   12.0280 O.2      11 ALL1        0.0000 
     58 O           6.5460  -24.4340   11.0680 O.2       6 ALP1        0.0000 
     59 O           4.9005  -24.8540   11.2735 O.2       1 ALC1        0.0000 
     60 O           3.2550  -25.2740   11.4790 O.2      11 ALL1        0.0000 
     61 O           4.2640  -25.1175   10.4360 O.2       1 ALC1        0.0000 
     62 O           5.2730  -24.9610    9.3930 O.2       6 ALP1        0.0000 
     63 CA          0.6745  -26.1575   11.8075 C.3       5 GLC5        0.0000 
     64 CA          2.0520  -26.3230   13.1670 C.3      15 GLL5        0.0000 
     65 CA         -0.7030  -25.9920   10.4480 C.3      10 GLP5        0.0000 
     66 N           1.9600  -26.0055   18.1125 N.am      2 SEC2        0.0000 
     67 N           1.4040  -26.3850   16.7960 N.am     12 SEL2        0.0000 
     68 N           2.5160  -25.6260   19.4290 N.am      7 SEP2        0.0000 
     69 CA          0.9365  -27.5260   17.3200 C.3       5 GLC5        0.0000 
     70 CA          0.2640  -25.8620   16.3040 C.3      15 GLL5        0.0000 
     71 CA          1.6090  -29.1900   18.3360 C.3      10 GLP5        0.0000 
     72 CA         -0.3975  -23.7065   16.8175 C.3       5 GLC5        0.0000 
     73 CA         -0.9260  -25.4660   16.8830 C.3      15 GLL5        0.0000 
     74 CA          0.1310  -21.9470   16.7520 C.3      10 GLP5        0.0000 
     75 O          -0.2050  -25.8555   19.4345 O.2       1 ALC1        0.0000 
     76 O          -1.1050  -25.5360   18.2020 O.2      11 ALL1        0.0000 
     77 O           0.6950  -26.1750   20.6670 O.2       6 ALP1        0.0000 
     78 CA         -1.6760  -26.9715   15.0250 C.3       5 GLC5        0.0000 
     79 CA         -1.7510  -24.9250   14.7600 C.3      15 GLL5        0.0000 
     80 CA         -1.6010  -29.0180   15.2900 C.3      10 GLP5        0.0000 
     81 CA         -0.8100  -23.4360   15.7560 C.3       5 GLC5        0.0000 
     82 CA         -1.1745  -23.5060   13.6655 C.3       5 GLC5        0.0000 
     83 CA         -0.5980  -22.0870   12.5710 C.3      10 GLP5        0.0000 
     84 CA         -0.1200  -23.9335   13.7420 C.3       5 GLC5        0.0000 
     85 CA          0.3580  -25.7800   14.9130 C.3      15 GLL5        0.0000 
     86 CA          2.5217  -24.4850   14.3893 C.3       5 GLC5        0.0000 
     87 CA          2.3200  -22.9350   15.7840 C.3      10 GLP5        0.0000 
     88 CA          1.3155  -24.3780   15.6963 C.3       5 GLC5        0.0000 
     89 CA         -0.7937  -27.3700   15.5216 C.3       5 GLC5        0.0000 
@<TRIPOS>BOND
@<TRIPOS>SUBSTRUCTURE
     1 ALC1       56 GROUP        1 X    ALC  0     ROOT ALC X 1
     2 SEC2        4 GROUP        1 X    SEC  0     **** SEC X 2
     3 LYC4       12 GROUP        1 X    LYC  0     **** LYC X 4
     4 ZIC7        1 GROUP        1 X    ZIC  0     **** ZIC X 5
     5 GLC5       27 GROUP        1 X    GLC  0     **** GLC X 6
     6 ALP1       58 GROUP        1 Y    ALP  0     ROOT ALP Y 8
     7 SEP2        6 GROUP        1 Y    SEP  0     **** SEP Y 9
     8 LYP4       14 GROUP        1 Y    LYP  0     **** LYP Y 11
     9 ZIP7        3 GROUP        1 Y    ZIP  0     **** ZIP Y 12
    10 GLP5       29 GROUP        1 Y    GLP  0     **** GLP Y 13
    11 ALL1       57 GROUP        1 Z    ALL  0     ROOT ALL Z 15
    12 SEL2        5 GROUP        1 Z    SEL  0     **** SEL Z 16
    13 LYL4       13 GROUP        1 Z    LYL  0     **** LYL Z 18
    14 ZIL7        2 GROUP        1 Z    ZIL  0     **** ZIL Z 19
    15 GLL5       28 GROUP        1 Z    GLL  0     **** GLL Z 20
@<TRIPOS>SET

