#    Name: 2vor_ACP_1_ligand
#    Modification time : Tue Mar 25 02:17:02 2014

@<TRIPOS>MOLECULE
2vor_ACP_1_ligand
   45    47     1     0     0
SMALL
NO_CHARGES


@<TRIPOS>ATOM
      1 PG          4.2320  -33.6970   13.3650 P.3       1 ACP1490     0.0000 
      2 O1G         5.4020  -33.7240   14.7450 O.co2     1 ACP1490     0.0000 
      3 O2G         3.8350  -35.0310   12.6840 O.co2     1 ACP1490     0.0000 
      4 O3G         4.7850  -32.6730   12.4170 O.co2     1 ACP1490     0.0000 
      5 PB          2.7090  -32.4850   15.6810 P.3       1 ACP1490     0.0000 
      6 O1B         1.3300  -32.6480   16.1790 O.co2     1 ACP1490     0.0000 
      7 O2B         3.6450  -33.2560   16.5260 O.co2     1 ACP1490     0.0000 
      8 C3B         2.5870  -33.4580   14.1160 C.3       1 ACP1490     0.0000 
      9 PA          4.3730  -30.3050   15.8770 P.3       1 ACP1490     0.0000 
     10 O1A         5.4960  -30.8060   14.8980 O.co2     1 ACP1490     0.0000 
     11 O2A         4.6270  -29.1110   16.7680 O.co2     1 ACP1490     0.0000 
     12 O3A         2.8970  -30.9410   15.4680 O.3       1 ACP1490     0.0000 
     13 O5'         3.9990  -29.1170   14.6810 O.3       1 ACP1490     0.0000 
     14 C5'         3.7680  -29.3910   13.2180 C.3       1 ACP1490     0.0000 
     15 C4'         3.4080  -28.1360   12.4460 C.3       1 ACP1490     0.0000 
     16 O4'         2.1190  -27.7830   12.9990 O.3       1 ACP1490     0.0000 
     17 C3'         4.2960  -26.9750   12.8880 C.3       1 ACP1490     0.0000 
     18 O3'         5.4100  -26.7890   12.0280 O.3       1 ACP1490     0.0000 
     19 C2'         3.3950  -25.7470   12.8220 C.3       1 ACP1490     0.0000 
     20 O2'         3.2550  -25.2740   11.4790 O.3       1 ACP1490     0.0000 
     21 C1'         2.0520  -26.3230   13.1670 C.3       1 ACP1490     0.0000 
     22 N9          1.5700  -26.2230   14.5850 N.pl3     1 ACP1490     0.0000 
     23 C8          2.2120  -26.5850   15.7400 C.2       1 ACP1490     0.0000 
     24 N7          1.4040  -26.3850   16.7960 N.2       1 ACP1490     0.0000 
     25 C5          0.2640  -25.8620   16.3040 C.ar      1 ACP1490     0.0000 
     26 C6         -0.9260  -25.4660   16.8830 C.ar      1 ACP1490     0.0000 
     27 N6         -1.1050  -25.5360   18.2020 N.pl3     1 ACP1490     0.0000 
     28 N1         -1.9000  -25.0370   16.0670 N.ar      1 ACP1490     0.0000 
     29 C2         -1.7510  -24.9250   14.7600 C.ar      1 ACP1490     0.0000 
     30 N3         -0.6300  -25.2910   14.1630 N.ar      1 ACP1490     0.0000 
     31 C4          0.3580  -25.7800   14.9130 C.ar      1 ACP1490     0.0000 
     32 H           2.2403  -34.3863   14.3831 H         1 ACP1490     0.0000 
     33 H           2.0394  -32.8841   13.4649 H         1 ACP1490     0.0000 
     34 H           2.9574  -30.1245   13.1069 H         1 ACP1490     0.0000 
     35 H           4.6745  -29.8324   12.7811 H         1 ACP1490     0.0000 
     36 H           3.3996  -28.2678   11.4548 H         1 ACP1490     0.0000 
     37 H           4.5667  -27.1259   13.9073 H         1 ACP1490     0.0000 
     38 H           3.6685  -25.0482   13.5122 H         1 ACP1490     0.0000 
     39 H           1.2884  -25.9574   12.5070 H         1 ACP1490     0.0000 
     40 H           3.1191  -26.9339   15.7757 H         1 ACP1490     0.0000 
     41 H          -0.3196  -25.8479   18.7367 H         1 ACP1490     0.0000 
     42 H          -2.0085  -25.2703   18.5381 H         1 ACP1490     0.0000 
     43 H          -2.5456  -24.5340   14.1773 H         1 ACP1490     0.0000 
     44 H           5.5039  -25.7976   11.9371 H         1 ACP1490     0.0000 
     45 H           4.1830  -25.2747   11.1064 H         1 ACP1490     0.0000 
@<TRIPOS>BOND
     1    2    1 ar   
     2    3    1 ar   
     3    4    1 ar   
     4    8    1 1    
     5    6    5 ar   
     6    7    5 ar   
     7    8    5 1    
     8   12    5 1    
     9   32    8 1    
    10   33    8 1    
    11   10    9 ar   
    12   11    9 ar   
    13   12    9 1    
    14   13    9 1    
    15   14   13 1    
    16   15   14 1    
    17   34   14 1    
    18   35   14 1    
    19   16   15 1    
    20   17   15 1    
    21   36   15 1    
    22   21   16 1    
    23   18   17 1    
    24   19   17 1    
    25   37   17 1    
    26   44   18 1    
    27   20   19 1    
    28   21   19 1    
    29   38   19 1    
    30   45   20 1    
    31   22   21 1    
    32   39   21 1    
    33   23   22 1    
    34   31   22 1    
    35   24   23 2    
    36   40   23 1    
    37   25   24 1    
    38   26   25 ar   
    39   31   25 ar   
    40   27   26 1    
    41   28   26 ar   
    42   41   27 1    
    43   42   27 1    
    44   29   28 ar   
    45   30   29 ar   
    46   43   29 1    
    47   31   30 ar   
@<TRIPOS>SUBSTRUCTURE
     1 ACP1490     1 GROUP   
@<TRIPOS>SET

