#    Name: 3sl2_ATP_1_INTS_M
#    Modification time : Mon Mar 24 17:48:36 2014

@<TRIPOS>MOLECULE
3sl2_ATP_1_INTS_M
   66     0    15     0     0
SMALL
NO_CHARGES


@<TRIPOS>ATOM
      1 Zn        -15.7660   18.5225   -7.5910 Zn        4 ZIC7        0.0000 
      2 Zn        -15.8960   19.2350   -8.2790 Zn       14 ZIL7        0.0000 
      3 Zn        -15.6360   17.8100   -6.9030 Zn        9 ZIP7        0.0000 
      4 N         -16.7490   20.6425   -7.8255 N.am      2 SEC2        0.0000 
      5 N         -15.8960   19.2350   -8.2790 N.am     12 SEL2        0.0000 
      6 N         -17.6020   22.0500   -7.3720 N.am      7 SEP2        0.0000 
      7 N         -15.5510   22.6310   -8.8340 N.am      2 SEC2        0.0000 
      8 N         -15.5830   21.3910   -9.5810 N.am     12 SEL2        0.0000 
      9 N         -15.5190   23.8710   -8.0870 N.am      7 SEP2        0.0000 
     10 N         -16.5925   21.7205   -8.4765 N.am      2 SEC2        0.0000 
     11 NZ        -12.7935   17.1975   -8.3250 N.4       3 LYC4        0.0000 
     12 NZ        -13.6360   18.2660   -7.0410 N.4      13 LYL4        0.0000 
     13 NZ        -11.9510   16.1290   -9.6090 N.4       8 LYP4        0.0000 
     14 Zn        -14.6360   18.0380   -6.9720 Zn        4 ZIC7        0.0000 
     15 Zn        -13.6360   18.2660   -7.0410 Zn       14 ZIL7        0.0000 
     16 N         -13.2685   21.6975   -8.7905 N.am      2 SEC2        0.0000 
     17 N         -13.6360   20.1750   -8.6010 N.am     12 SEL2        0.0000 
     18 N         -12.9010   23.2200   -8.9800 N.am      7 SEP2        0.0000 
     19 Zn        -15.7315   18.5810   -6.1675 Zn        4 ZIC7        0.0000 
     20 Zn        -15.8270   19.3520   -5.4320 Zn       14 ZIL7        0.0000 
     21 N         -16.1780   18.2565   -4.5430 N.am      2 SEC2        0.0000 
     22 N         -15.8270   19.3520   -5.4320 N.am     12 SEL2        0.0000 
     23 N         -16.5290   17.1610   -3.6540 N.am      7 SEP2        0.0000 
     24 N         -16.9710   21.7270   -4.7700 N.am      2 SEC2        0.0000 
     25 N         -15.6010   21.8190   -4.8920 N.am     12 SEL2        0.0000 
     26 N         -18.3410   21.6350   -4.6480 N.am      7 SEP2        0.0000 
     27 CA        -14.7265   20.5815   -2.1510 C.3       5 GLC5        0.0000 
     28 CA        -12.9850   21.1070   -3.4380 C.3      15 GLL5        0.0000 
     29 CA        -16.4680   20.0560   -0.8640 C.3      10 GLP5        0.0000 
     30 CA        -11.7870   20.9820   -0.7930 C.3       5 GLC5        0.0000 
     31 CA        -11.7280   20.4750   -2.8930 C.3      15 GLL5        0.0000 
     32 CA        -11.8460   21.4890    1.3070 C.3      10 GLP5        0.0000 
     33 N          -8.4030   20.4255   -2.4800 N.am      2 SEC2        0.0000 
     34 N          -9.1740   19.0690   -2.4240 N.am     12 SEL2        0.0000 
     35 N          -7.6320   21.7820   -2.5360 N.am      7 SEP2        0.0000 
     36 CA        -11.5645   20.0725   -0.1020 C.3       5 GLC5        0.0000 
     37 CA        -11.2830   18.6560   -1.5110 C.3      15 GLL5        0.0000 
     38 CA        -12.0435   13.1760   -1.3430 C.3       5 GLC5        0.0000 
     39 CA        -13.1740   14.2950   -0.1080 C.3      15 GLL5        0.0000 
     40 CA        -10.9130   12.0570   -2.5780 C.3      10 GLP5        0.0000 
     41 CA        -13.5320   13.9625    1.8955 C.3       5 GLC5        0.0000 
     42 CA        -13.8900   13.6300    3.8990 C.3      10 GLP5        0.0000 
     43 O         -14.5665   12.3665    0.6835 O.2       1 ALC1        0.0000 
     44 O         -14.3080   13.5590   -0.0450 O.2      11 ALL1        0.0000 
     45 O         -14.8250   11.1740    1.4120 O.2       6 ALP1        0.0000 
     46 CA        -10.8780   13.3210   -1.1680 C.3       5 GLC5        0.0000 
     47 CA        -10.8430   14.5850    0.2420 C.3      15 GLL5        0.0000 
     48 CA         -9.1770   13.5215   -0.0070 C.3       5 GLC5        0.0000 
     49 CA         -7.5110   12.4580   -0.2560 C.3      10 GLP5        0.0000 
     50 CA         -9.9705   13.9435    2.1170 C.3       5 GLC5        0.0000 
     51 CA         -9.0980   13.3020    3.9920 C.3      10 GLP5        0.0000 
     52 CA        -10.8230   15.8650    1.6080 C.3       5 GLC5        0.0000 
     53 CA        -10.8030   17.1450    2.9740 C.3      10 GLP5        0.0000 
     54 CA        -10.1870   21.5010   -3.7633 C.3       5 GLC5        0.0000 
     55 CA         -8.9170   23.0760   -4.1840 C.3      10 GLP5        0.0000 
     56 CA        -10.8397   17.2912   -4.1512 C.3       5 GLC5        0.0000 
     57 CA        -11.1860   19.3770   -3.7920 C.3      15 GLL5        0.0000 
     58 CA        -10.8630   15.6340   -5.0150 C.3      10 GLP5        0.0000 
     59 CA         -9.3760   19.4770   -0.9870 C.3       5 GLC5        0.0000 
     60 CA        -10.4470   18.5200   -2.7830 C.3      15 GLL5        0.0000 
     61 CA         -7.8870   20.3660    0.1730 C.3      10 GLP5        0.0000 
     62 CA        -14.5620   14.9013   -1.9992 C.3       5 GLC5        0.0000 
     63 CA        -13.2260   15.6460   -0.6930 C.3      15 GLL5        0.0000 
     64 CA        -15.9240   14.8320   -3.5980 C.3      10 GLP5        0.0000 
     65 CA        -12.4005   16.8552    1.0660 C.3       5 GLC5        0.0000 
     66 CA        -12.2080   17.6920    2.8520 C.3      10 GLP5        0.0000 
@<TRIPOS>BOND
@<TRIPOS>SUBSTRUCTURE
     1 ALC1       43 GROUP        1 X    ALC  0     ROOT ALC X 1
     2 SEC2        4 GROUP        1 X    SEC  0     **** SEC X 2
     3 LYC4       11 GROUP        1 X    LYC  0     **** LYC X 4
     4 ZIC7        1 GROUP        1 X    ZIC  0     **** ZIC X 5
     5 GLC5       27 GROUP        1 X    GLC  0     **** GLC X 6
     6 ALP1       45 GROUP        1 Y    ALP  0     ROOT ALP Y 8
     7 SEP2        6 GROUP        1 Y    SEP  0     **** SEP Y 9
     8 LYP4       13 GROUP        1 Y    LYP  0     **** LYP Y 11
     9 ZIP7        3 GROUP        1 Y    ZIP  0     **** ZIP Y 12
    10 GLP5       29 GROUP        1 Y    GLP  0     **** GLP Y 13
    11 ALL1       44 GROUP        1 Z    ALL  0     ROOT ALL Z 15
    12 SEL2        5 GROUP        1 Z    SEL  0     **** SEL Z 16
    13 LYL4       12 GROUP        1 Z    LYL  0     **** LYL Z 18
    14 ZIL7        2 GROUP        1 Z    ZIL  0     **** ZIL Z 19
    15 GLL5       28 GROUP        1 Z    GLL  0     **** GLL Z 20
@<TRIPOS>SET

