#    Name: 3sl2_ATP_1_ligand
#    Modification time : Mon Mar 24 17:48:36 2014

@<TRIPOS>MOLECULE
3sl2_ATP_1_ligand
   43    45     1     0     0
SMALL
NO_CHARGES


@<TRIPOS>ATOM
      1 PG        -15.0420   20.0650   -9.2960 P.3       1 ATP703      0.0000 
      2 O1G       -15.8960   19.2350   -8.2790 O.co2     1 ATP703      0.0000 
      3 O2G       -14.7170   19.2950  -10.6250 O.co2     1 ATP703      0.0000 
      4 O3G       -15.5830   21.3910   -9.5810 O.co2     1 ATP703      0.0000 
      5 PB        -13.0870   19.6410   -7.2230 P.3       1 ATP703      0.0000 
      6 O1B       -13.6360   18.2660   -7.0410 O.co2     1 ATP703      0.0000 
      7 O2B       -11.6200   19.9110   -6.9440 O.co2     1 ATP703      0.0000 
      8 O3B       -13.6360   20.1750   -8.6010 O.3       1 ATP703      0.0000 
      9 PA        -14.9450   20.4910   -5.0630 P.3       1 ATP703      0.0000 
     10 O1A       -15.8270   19.3520   -5.4320 O.co2     1 ATP703      0.0000 
     11 O2A       -15.6010   21.8190   -4.8920 O.co2     1 ATP703      0.0000 
     12 O3A       -13.8950   20.7660   -6.3360 O.3       1 ATP703      0.0000 
     13 O5'       -13.9620   20.1530   -3.9120 O.3       1 ATP703      0.0000 
     14 C5'       -12.9850   21.1070   -3.4380 C.3       1 ATP703      0.0000 
     15 C4'       -11.7280   20.4750   -2.8930 C.3       1 ATP703      0.0000 
     16 O4'       -12.0360   19.8630   -1.6210 O.3       1 ATP703      0.0000 
     17 C3'       -11.1860   19.3770   -3.7920 C.3       1 ATP703      0.0000 
     18 O3'       -10.3890   19.9380   -4.8700 O.3       1 ATP703      0.0000 
     19 C2'       -10.4470   18.5200   -2.7830 C.3       1 ATP703      0.0000 
     20 O2'        -9.1740   19.0690   -2.4240 O.3       1 ATP703      0.0000 
     21 C1'       -11.2830   18.6560   -1.5110 C.3       1 ATP703      0.0000 
     22 N9        -12.2520   17.5570   -1.2930 N.pl3     1 ATP703      0.0000 
     23 C8        -13.5850   17.5860   -1.5800 C.2       1 ATP703      0.0000 
     24 N7        -14.1900   16.4300   -1.2190 N.2       1 ATP703      0.0000 
     25 C5        -13.2260   15.6460   -0.6930 C.ar      1 ATP703      0.0000 
     26 C6        -13.1740   14.2950   -0.1080 C.ar      1 ATP703      0.0000 
     27 N6        -14.3080   13.5590   -0.0450 N.pl3     1 ATP703      0.0000 
     28 N1        -11.9580   13.8340    0.3230 N.ar      1 ATP703      0.0000 
     29 C2        -10.8430   14.5850    0.2420 C.ar      1 ATP703      0.0000 
     30 N3        -10.8150   15.8280   -0.2750 N.ar      1 ATP703      0.0000 
     31 C4        -11.9600   16.3910   -0.7470 C.ar      1 ATP703      0.0000 
     32 H         -13.4215   21.7493   -2.6400 H         1 ATP703      0.0000 
     33 H         -12.6932   21.8056   -4.2545 H         1 ATP703      0.0000 
     34 H         -10.9721   21.2255   -2.7676 H         1 ATP703      0.0000 
     35 H         -12.0364   18.8202   -4.1421 H         1 ATP703      0.0000 
     36 H         -10.4288   17.5304   -3.0661 H         1 ATP703      0.0000 
     37 H         -10.6107   18.7238   -0.6673 H         1 ATP703      0.0000 
     38 H         -14.0411   18.3485   -1.9944 H         1 ATP703      0.0000 
     39 H         -14.2310   12.6699    0.4062 H         1 ATP703      0.0000 
     40 H         -15.1224   13.9695   -0.4552 H         1 ATP703      0.0000 
     41 H          -9.9290   14.1710    0.6087 H         1 ATP703      0.0000 
     42 H         -10.7262   19.4930   -5.6996 H         1 ATP703      0.0000 
     43 H          -8.5662   18.2794   -2.3399 H         1 ATP703      0.0000 
@<TRIPOS>BOND
     1    2    1 ar   
     2    3    1 ar   
     3    4    1 ar   
     4    8    1 1    
     5    6    5 ar   
     6    7    5 ar   
     7    8    5 1    
     8   12    5 1    
     9   10    9 ar   
    10   11    9 ar   
    11   12    9 1    
    12   13    9 1    
    13   14   13 1    
    14   15   14 1    
    15   32   14 1    
    16   33   14 1    
    17   16   15 1    
    18   17   15 1    
    19   34   15 1    
    20   21   16 1    
    21   18   17 1    
    22   19   17 1    
    23   35   17 1    
    24   42   18 1    
    25   20   19 1    
    26   21   19 1    
    27   36   19 1    
    28   43   20 1    
    29   22   21 1    
    30   37   21 1    
    31   23   22 1    
    32   31   22 1    
    33   24   23 2    
    34   38   23 1    
    35   25   24 1    
    36   26   25 ar   
    37   31   25 ar   
    38   27   26 1    
    39   28   26 ar   
    40   39   27 1    
    41   40   27 1    
    42   29   28 ar   
    43   30   29 ar   
    44   41   29 1    
    45   31   30 ar   
@<TRIPOS>SUBSTRUCTURE
     1 ATP703      1 GROUP   
@<TRIPOS>SET

