#    Name: 4bcr_WY1_3_INTS_M
#    Modification time : Tue Mar 25 07:33:12 2014

@<TRIPOS>MOLECULE
4bcr_WY1_3_INTS_M
   59     0     9     0     0
SMALL
NO_CHARGES


@<TRIPOS>ATOM
      1 CA        -20.3910   -7.1675   43.5555 C.3       3 GLC5        0.0000 
      2 CA        -21.9600   -6.6990   45.0300 C.3       9 GLL5        0.0000 
      3 CA        -18.8220   -7.6360   42.0810 C.3       6 GLP5        0.0000 
      4 CA        -22.4365   -5.1320   43.7975 C.3       3 GLC5        0.0000 
      5 CA        -22.9130   -3.5650   42.5650 C.3       6 GLP5        0.0000 
      6 CA        -25.3265   -7.1520   48.5815 C.3       3 GLC5        0.0000 
      7 CA        -23.6360   -7.8530   47.2870 C.3       9 GLL5        0.0000 
      8 CA        -27.0170   -6.4510   49.8760 C.3       6 GLP5        0.0000 
      9 CA        -18.2950   -5.3305   48.7805 C.3       3 GLC5        0.0000 
     10 CA        -20.0820   -5.7040   48.2180 C.3       9 GLL5        0.0000 
     11 CA        -16.5080   -4.9570   49.3430 C.3       6 GLP5        0.0000 
     12 O         -18.6680   -5.5055   44.5210 O.2       1 ALC1        0.0000 
     13 O         -19.5670   -5.2680   45.9010 O.2       7 ALL1        0.0000 
     14 O         -17.7690   -5.7430   43.1410 O.2       4 ALP1        0.0000 
     15 CA        -17.4090   -4.6565   46.9280 C.3       3 GLC5        0.0000 
     16 CA        -18.9740   -3.8990   46.1490 C.3       9 GLL5        0.0000 
     17 CA        -15.8440   -5.4140   47.7070 C.3       6 GLP5        0.0000 
     18 CA        -20.7245   -0.2370   45.7310 C.3       3 GLC5        0.0000 
     19 CA        -20.1800   -0.3480   47.4830 C.3       9 GLL5        0.0000 
     20 CA        -21.2690   -0.1260   43.9790 C.3       6 GLP5        0.0000 
     21 CA        -21.9115   -1.1175   47.4600 C.3       3 GLC5        0.0000 
     22 CA        -23.6430   -1.8870   47.4370 C.3       6 GLP5        0.0000 
     23 CA        -20.0200   -0.8285   48.9640 C.3       3 GLC5        0.0000 
     24 CA        -19.8600   -1.3090   50.4450 C.3       6 GLP5        0.0000 
     25 CA        -21.1365    0.9435   47.5125 C.3       3 GLC5        0.0000 
     26 CA        -22.0930    2.2350   47.5420 C.3       6 GLP5        0.0000 
     27 CA        -15.3060   -4.3470   46.1315 C.3       3 GLC5        0.0000 
     28 CA        -14.7680   -3.2800   44.5560 C.3       9 GLL5        0.0000 
     29 CA        -13.3990   -4.7790   44.3510 C.3       3 GLC5        0.0000 
     30 CA        -12.0300   -6.2780   44.1460 C.3       6 GLP5        0.0000 
     31 N         -16.1070   -3.9600   41.3945 N.am      2 SEC2        0.0000 
     32 N         -15.7870   -4.5050   42.7970 N.am      8 SEL2        0.0000 
     33 N         -16.4270   -3.4150   39.9920 N.am      5 SEP2        0.0000 
     34 N         -16.0720   -2.8350   41.2775 N.am      2 SEC2        0.0000 
     35 N         -15.7170   -2.2550   42.5630 N.am      8 SEL2        0.0000 
     36 N         -16.1680   -0.6245   42.9115 N.am      2 SEC2        0.0000 
     37 N         -16.6190    1.0060   43.2600 N.am      5 SEP2        0.0000 
     38 N         -15.4790   -1.3645   41.3950 N.am      2 SEC2        0.0000 
     39 N         -15.2410   -0.4740   40.2270 N.am      5 SEP2        0.0000 
     40 CA        -21.3130   -8.2197   46.0187 C.3       3 GLC5        0.0000 
     41 CA        -20.8520   -9.8140   46.2490 C.3       6 GLP5        0.0000 
     42 CA        -23.8130   -5.6837   48.0277 C.3       3 GLC5        0.0000 
     43 CA        -22.3860   -7.0960   47.5580 C.3       9 GLL5        0.0000 
     44 CA        -24.6150   -3.8930   48.6330 C.3       6 GLP5        0.0000 
     45 CA        -21.6885   -8.5106   47.2029 C.3       3 GLC5        0.0000 
     46 CA        -23.0377   -5.2430   48.8432 C.3       3 GLC5        0.0000 
     47 CA        -22.0390   -6.9400   48.8910 C.3       9 GLL5        0.0000 
     48 CA        -21.1167   -7.7150   50.7272 C.3       3 GLC5        0.0000 
     49 CA        -20.8820   -6.2460   49.2160 C.3       9 GLL5        0.0000 
     50 CA        -20.7730   -8.8370   52.4010 C.3       6 GLP5        0.0000 
     51 CA        -19.8255   -7.6375   46.8062 C.3       3 GLC5        0.0000 
     52 CA        -19.3950   -9.4980   46.0560 C.3       6 GLP5        0.0000 
     53 CA        -20.5391   -5.4588   50.4589 C.3       3 GLC5        0.0000 
     54 CA        -20.3070   -4.7690   52.2820 C.3       6 GLP5        0.0000 
     55 CA        -21.5645   -2.0777   47.0915 C.3       3 GLC5        0.0000 
     56 CA        -19.7720   -2.8920   46.6410 C.3       9 GLL5        0.0000 
     57 CA        -19.6730   -1.7887   48.5955 C.3       3 GLC5        0.0000 
     58 CA        -16.0705   -3.8480   46.8140 C.3       3 GLC5        0.0000 
     59 CA        -17.1670   -2.4500   46.1010 C.3       9 GLL5        0.0000 
@<TRIPOS>BOND
@<TRIPOS>SUBSTRUCTURE
     1 ALC1       12 GROUP        1 X    ALC  0     ROOT ALC X 1
     2 SEC2       31 GROUP        1 X    SEC  0     **** SEC X 2
     3 GLC5        1 GROUP        1 X    GLC  0     **** GLC X 6
     4 ALP1       14 GROUP        1 Y    ALP  0     ROOT ALP Y 8
     5 SEP2       33 GROUP        1 Y    SEP  0     **** SEP Y 9
     6 GLP5        3 GROUP        1 Y    GLP  0     **** GLP Y 13
     7 ALL1       13 GROUP        1 Z    ALL  0     ROOT ALL Z 15
     8 SEL2       32 GROUP        1 Z    SEL  0     **** SEL Z 16
     9 GLL5        2 GROUP        1 Z    GLL  0     **** GLL Z 20
@<TRIPOS>SET

