#    Name: 4bcr_WY1_3_ligand
#    Modification time : Tue Mar 25 07:33:12 2014

@<TRIPOS>MOLECULE
4bcr_WY1_3_ligand
   34    35     1     0     0
SMALL
NO_CHARGES


@<TRIPOS>ATOM
      1 CAB       -21.9600   -6.6990   45.0300 C.3       1 WY11468     0.0000 
      2 CAR       -21.5880   -6.5520   46.5470 C.ar      1 WY11468     0.0000 
      3 CAP       -22.3860   -7.0960   47.5580 C.ar      1 WY11468     0.0000 
      4 CAA       -23.6360   -7.8530   47.2870 C.3       1 WY11468     0.0000 
      5 CAG       -22.0390   -6.9400   48.8910 C.ar      1 WY11468     0.0000 
      6 CAF       -20.8820   -6.2460   49.2160 C.ar      1 WY11468     0.0000 
      7 CAH       -20.0820   -5.7040   48.2180 C.ar      1 WY11468     0.0000 
      8 CAT       -20.4300   -5.8500   46.8950 C.ar      1 WY11468     0.0000 
      9 NAM       -19.5670   -5.2680   45.9010 N.pl3     1 WY11468     0.0000 
     10 C4        -18.9740   -3.8990   46.1490 C.ar      1 WY11468     0.0000 
     11 N3        -17.6800   -3.6530   45.8870 N.ar      1 WY11468     0.0000 
     12 C5        -19.7720   -2.8920   46.6410 C.ar      1 WY11468     0.0000 
     13 C6        -19.2000   -1.6450   46.8510 C.ar      1 WY11468     0.0000 
     14 CL6       -20.1800   -0.3480   47.4830 Cl        1 WY11468     0.0000 
     15 N1        -17.9080   -1.4520   46.5740 N.ar      1 WY11468     0.0000 
     16 C2        -17.1670   -2.4500   46.1010 C.ar      1 WY11468     0.0000 
     17 SAN       -15.4270   -2.1140   45.7410 S.3       1 WY11468     0.0000 
     18 CAJ       -14.7680   -3.2800   44.5560 C.3       1 WY11468     0.0000 
     19 CAO       -15.4420   -3.3690   43.2640 C.2       1 WY11468     0.0000 
     20 OAC       -15.7870   -4.5050   42.7970 O.co2     1 WY11468     0.0000 
     21 OAD       -15.7170   -2.2550   42.5630 O.co2     1 WY11468     0.0000 
     22 H         -22.6307   -7.3331   49.6299 H         1 WY11468     0.0000 
     23 H         -20.6134   -6.1314   50.2061 H         1 WY11468     0.0000 
     24 H         -19.2240   -5.1906   48.4763 H         1 WY11468     0.0000 
     25 H         -19.3436   -5.7339   45.0513 H         1 WY11468     0.0000 
     26 H         -20.7568   -3.0517   46.8474 H         1 WY11468     0.0000 
     27 H         -14.7811   -4.2184   45.1384 H         1 WY11468     0.0000 
     28 H         -13.7126   -2.9600   44.4944 H         1 WY11468     0.0000 
     29 H         -21.2891   -6.2523   44.4381 H         1 WY11468     0.0000 
     30 H         -22.0055   -7.6579   44.7500 H         1 WY11468     0.0000 
     31 H         -22.8496   -6.2911   44.8245 H         1 WY11468     0.0000 
     32 H         -23.4644   -8.6668   46.7318 H         1 WY11468     0.0000 
     33 H         -24.0740   -8.1613   48.1315 H         1 WY11468     0.0000 
     34 H         -24.3067   -7.2984   46.7945 H         1 WY11468     0.0000 
@<TRIPOS>BOND
     1    2    1 1    
     2   29    1 1    
     3   30    1 1    
     4   31    1 1    
     5    3    2 ar   
     6    8    2 ar   
     7    4    3 1    
     8    5    3 ar   
     9   32    4 1    
    10   33    4 1    
    11   34    4 1    
    12    6    5 ar   
    13   22    5 1    
    14    7    6 ar   
    15   23    6 1    
    16    8    7 ar   
    17   24    7 1    
    18    9    8 1    
    19   10    9 1    
    20   25    9 1    
    21   11   10 ar   
    22   12   10 ar   
    23   16   11 ar   
    24   13   12 ar   
    25   26   12 1    
    26   14   13 1    
    27   15   13 ar   
    28   16   15 ar   
    29   17   16 1    
    30   18   17 1    
    31   19   18 1    
    32   27   18 1    
    33   28   18 1    
    34   20   19 ar   
    35   21   19 ar   
@<TRIPOS>SUBSTRUCTURE
     1 WY11468     1 GROUP   
@<TRIPOS>SET

