#    Name: 2iyg_FMN_2_INTS_M
#    Modification time : Tue Mar 25 19:00:37 2014

@<TRIPOS>MOLECULE
2iyg_FMN_2_INTS_M
   52     0     9     0     0
SMALL
NO_CHARGES


@<TRIPOS>ATOM
      1 O          30.2205   42.1340    8.1855 O.2       1 ALC1        0.0000 
      2 O          29.5670   43.4350    7.8070 O.2       7 ALL1        0.0000 
      3 O          30.8740   40.8330    8.5640 O.2       4 ALP1        0.0000 
      4 N          28.6330   41.1055    7.1380 N.am      2 SEC2        0.0000 
      5 N          27.6980   42.3840    7.2330 N.am      8 SEL2        0.0000 
      6 N          29.5680   39.8270    7.0430 N.am      5 SEP2        0.0000 
      7 N          26.3310   42.2370    6.7165 N.am      2 SEC2        0.0000 
      8 N          24.9640   42.0900    6.2000 N.am      5 SEP2        0.0000 
      9 N          25.7105   43.3935    6.2480 N.am      2 SEC2        0.0000 
     10 N          26.4570   44.6970    6.2960 N.am      8 SEL2        0.0000 
     11 CA         23.3895   44.8590    3.9940 C.3       3 GLC5        0.0000 
     12 CA         24.6460   46.0020    5.3620 C.3       9 GLL5        0.0000 
     13 CA         22.1330   43.7160    2.6260 C.3       6 GLP5        0.0000 
     14 CA         24.1900   46.5660    7.4165 C.3       3 GLC5        0.0000 
     15 CA         23.7340   47.1300    9.4710 C.3       6 GLP5        0.0000 
     16 CA         22.4295   45.4925    3.4930 C.3       3 GLC5        0.0000 
     17 CA         22.7260   47.2690    4.3600 C.3       9 GLL5        0.0000 
     18 CA         21.3530   47.2765    3.2215 C.3       3 GLC5        0.0000 
     19 CA         19.9800   47.2840    2.0830 C.3       6 GLP5        0.0000 
     20 CA         21.7770   49.0950    5.2200 C.3       3 GLC5        0.0000 
     21 CA         20.8280   50.9210    6.0800 C.3       6 GLP5        0.0000 
     22 CA         24.9460   49.6530    3.1325 C.3       3 GLC5        0.0000 
     23 CA         24.2680   49.7650    4.8090 C.3       9 GLL5        0.0000 
     24 CA         25.6240   49.5410    1.4560 C.3       6 GLP5        0.0000 
     25 CA         24.9335   50.9005    6.4355 C.3       3 GLC5        0.0000 
     26 CA         25.5990   52.0360    8.0620 C.3       6 GLP5        0.0000 
     27 CA         24.4660   51.6465    3.8585 C.3       3 GLC5        0.0000 
     28 CA         24.6640   53.5280    2.9080 C.3       6 GLP5        0.0000 
     29 CA         22.5480   50.3430    5.4445 C.3       3 GLC5        0.0000 
     30 CA         25.8585   50.1810    6.8835 C.3       3 GLC5        0.0000 
     31 CA         26.1180   48.3260    5.7050 C.3       9 GLL5        0.0000 
     32 O          27.5775   50.4630    7.5490 O.2       1 ALC1        0.0000 
     33 O          27.7710   49.5130    8.5220 O.2       7 ALL1        0.0000 
     34 O          27.3840   51.4130    6.5760 O.2       4 ALP1        0.0000 
     35 CA         29.6900   49.3565   10.6470 C.3       3 GLC5        0.0000 
     36 CA         30.1350   49.6030    8.5380 C.3       9 GLL5        0.0000 
     37 CA         29.2450   49.1100   12.7560 C.3       6 GLP5        0.0000 
     38 O          28.8505   50.9635    7.0310 O.2       1 ALC1        0.0000 
     39 O          30.3170   50.5140    7.4860 O.2       7 ALL1        0.0000 
     40 CA         26.1280   46.4032    4.0070 C.3       3 GLC5        0.0000 
     41 CA         25.9280   45.9250    5.9240 C.3       9 GLL5        0.0000 
     42 CA         26.9690   46.8430    2.3710 C.3       6 GLP5        0.0000 
     43 CA         25.7218   47.3295    3.7145 C.3       3 GLC5        0.0000 
     44 CA         24.8460   48.4030    5.1450 C.3       9 GLL5        0.0000 
     45 CA         26.6822   47.2793    4.1383 C.3       3 GLC5        0.0000 
     46 CA         26.1671   46.9162    7.7710 C.3       3 GLC5        0.0000 
     47 CA         26.1250   46.4120    9.6820 C.3       6 GLP5        0.0000 
     48 CA         27.5012   47.4567    8.5925 C.3       3 GLC5        0.0000 
     49 CA         28.8440   48.2600    6.7740 C.3       9 GLL5        0.0000 
     50 CA         32.7442   48.4355    7.2082 C.3       3 GLC5        0.0000 
     51 CA         31.4420   48.8250    8.6290 C.3       9 GLL5        0.0000 
     52 CA         33.4970   47.5720    5.5650 C.3       6 GLP5        0.0000 
@<TRIPOS>BOND
@<TRIPOS>SUBSTRUCTURE
     1 ALC1        1 GROUP        1 X    ALC  0     ROOT ALC X 1
     2 SEC2        4 GROUP        1 X    SEC  0     **** SEC X 2
     3 GLC5       11 GROUP        1 X    GLC  0     **** GLC X 6
     4 ALP1        3 GROUP        1 Y    ALP  0     ROOT ALP Y 8
     5 SEP2        6 GROUP        1 Y    SEP  0     **** SEP Y 9
     6 GLP5       13 GROUP        1 Y    GLP  0     **** GLP Y 13
     7 ALL1        2 GROUP        1 Z    ALL  0     ROOT ALL Z 15
     8 SEL2        5 GROUP        1 Z    SEL  0     **** SEL Z 16
     9 GLL5       12 GROUP        1 Z    GLL  0     **** GLL Z 20
@<TRIPOS>SET

