#    Name: 2iyg_FMN_2_ligand
#    Modification time : Tue Mar 25 19:00:37 2014

@<TRIPOS>MOLECULE
2iyg_FMN_2_ligand
   50    52     1     0     0
SMALL
NO_CHARGES


@<TRIPOS>ATOM
      1 N1         29.7550   45.7870    7.5830 N.2       1 FMN1122     0.0000 
      2 C2         30.2990   44.5840    7.9670 C.2       1 FMN1122     0.0000 
      3 O2         31.4260   44.5160    8.4430 O.2       1 FMN1122     0.0000 
      4 N3         29.5670   43.4350    7.8070 N.am      1 FMN1122     0.0000 
      5 C4         28.3050   43.4440    7.2630 C.2       1 FMN1122     0.0000 
      6 O4         27.6980   42.3840    7.2330 O.2       1 FMN1122     0.0000 
      7 C4A        27.7320   44.6470    6.8560 C.2       1 FMN1122     0.0000 
      8 N5         26.4570   44.6970    6.2960 N.2       1 FMN1122     0.0000 
      9 C5A        25.9280   45.9250    5.9240 C.ar      1 FMN1122     0.0000 
     10 C6         24.6460   46.0020    5.3620 C.ar      1 FMN1122     0.0000 
     11 C7         24.1030   47.2290    4.9710 C.ar      1 FMN1122     0.0000 
     12 C7M        22.7260   47.2690    4.3600 C.3       1 FMN1122     0.0000 
     13 C8         24.8460   48.4030    5.1450 C.ar      1 FMN1122     0.0000 
     14 C8M        24.2680   49.7650    4.8090 C.3       1 FMN1122     0.0000 
     15 C9         26.1180   48.3260    5.7050 C.ar      1 FMN1122     0.0000 
     16 C9A        26.6730   47.1050    6.1060 C.ar      1 FMN1122     0.0000 
     17 N10        27.9560   47.0480    6.6480 N.pl3     1 FMN1122     0.0000 
     18 C10        28.4800   45.8250    7.0270 C.2       1 FMN1122     0.0000 
     19 C1'        28.8440   48.2600    6.7740 C.3       1 FMN1122     0.0000 
     20 C2'        28.9110   48.7430    8.2320 C.3       1 FMN1122     0.0000 
     21 O2'        27.7710   49.5130    8.5220 O.3       1 FMN1122     0.0000 
     22 C3'        30.1350   49.6030    8.5380 C.3       1 FMN1122     0.0000 
     23 O3'        30.3170   50.5140    7.4860 O.3       1 FMN1122     0.0000 
     24 C4'        31.4420   48.8250    8.6290 C.3       1 FMN1122     0.0000 
     25 O4'        31.3850   47.7400    9.5410 O.3       1 FMN1122     0.0000 
     26 C5'        32.5410   49.7730    9.0740 C.3       1 FMN1122     0.0000 
     27 O5'        33.3740   50.0420    7.9700 O.3       1 FMN1122     0.0000 
     28 P          34.9160   50.4200    8.2400 P.3       1 FMN1122     0.0000 
     29 O1P        35.0890   51.8880    7.8860 O.co2     1 FMN1122     0.0000 
     30 O2P        35.1730   50.1760    9.7180 O.co2     1 FMN1122     0.0000 
     31 O3P        35.8320   49.5650    7.3800 O.co2     1 FMN1122     0.0000 
     32 H          29.9823   42.5209    8.1088 H         1 FMN1122     0.0000 
     33 H          24.0957   45.1375    5.2357 H         1 FMN1122     0.0000 
     34 H          26.6726   49.1953    5.8300 H         1 FMN1122     0.0000 
     35 H          28.4564   49.0697    6.1549 H         1 FMN1122     0.0000 
     36 H          29.8530   48.0169    6.4395 H         1 FMN1122     0.0000 
     37 H          28.9508   47.8663    8.8751 H         1 FMN1122     0.0000 
     38 H          29.9809   50.1206    9.4680 H         1 FMN1122     0.0000 
     39 H          31.7013   48.4868    7.6273 H         1 FMN1122     0.0000 
     40 H          33.0837   49.2943    9.8952 H         1 FMN1122     0.0000 
     41 H          32.0647   50.6782    9.4636 H         1 FMN1122     0.0000 
     42 H          22.4505   48.2014    4.1260 H         1 FMN1122     0.0000 
     43 H          22.6767   46.7292    3.5197 H         1 FMN1122     0.0000 
     44 H          22.0327   46.9060    4.9826 H         1 FMN1122     0.0000 
     45 H          24.9203   50.5006    4.9918 H         1 FMN1122     0.0000 
     46 H          24.0128   49.8325    3.8445 H         1 FMN1122     0.0000 
     47 H          23.4464   49.9621    5.3440 H         1 FMN1122     0.0000 
     48 H          27.6965   50.1606    7.7637 H         1 FMN1122     0.0000 
     49 H          29.3928   50.7549    7.1896 H         1 FMN1122     0.0000 
     50 H          30.8920   47.0187    9.0545 H         1 FMN1122     0.0000 
@<TRIPOS>BOND
     1    2    1 1    
     2   18    1 2    
     3    3    2 2    
     4    4    2 am   
     5    5    4 am   
     6   32    4 1    
     7    6    5 2    
     8    7    5 1    
     9    8    7 2    
    10   18    7 1    
    11    9    8 1    
    12   10    9 ar   
    13   16    9 ar   
    14   11   10 ar   
    15   33   10 1    
    16   12   11 1    
    17   13   11 ar   
    18   42   12 1    
    19   43   12 1    
    20   44   12 1    
    21   14   13 1    
    22   15   13 ar   
    23   45   14 1    
    24   46   14 1    
    25   47   14 1    
    26   16   15 ar   
    27   34   15 1    
    28   17   16 1    
    29   18   17 1    
    30   19   17 1    
    31   20   19 1    
    32   35   19 1    
    33   36   19 1    
    34   21   20 1    
    35   22   20 1    
    36   37   20 1    
    37   48   21 1    
    38   23   22 1    
    39   24   22 1    
    40   38   22 1    
    41   49   23 1    
    42   25   24 1    
    43   26   24 1    
    44   39   24 1    
    45   50   25 1    
    46   27   26 1    
    47   40   26 1    
    48   41   26 1    
    49   28   27 1    
    50   29   28 ar   
    51   30   28 ar   
    52   31   28 ar   
@<TRIPOS>SUBSTRUCTURE
     1 FMN1122     1 GROUP   
@<TRIPOS>SET

