#    Name: 3bus_SAH_1_INTS_M
#    Modification time : Mon Mar 24 20:05:08 2014

@<TRIPOS>MOLECULE
3bus_SAH_1_INTS_M
   54     0     9     0     0
SMALL
NO_CHARGES


@<TRIPOS>ATOM
      1 O          12.3000   32.5725   27.2765 O.2       1 ALC1        0.0000 
      2 O          12.2780   34.1390   27.6620 O.2       7 ALL1        0.0000 
      3 O          12.3220   31.0060   26.8910 O.2       4 ALP1        0.0000 
      4 O          13.4425   34.4295   27.0980 O.2       1 ALC1        0.0000 
      5 O          14.6070   34.7200   26.5340 O.2       4 ALP1        0.0000 
      6 CA         15.3270   34.6720   28.9795 C.3       3 GLC5        0.0000 
      7 CA         14.0790   32.9430   29.5870 C.3       9 GLL5        0.0000 
      8 CA         16.5750   36.4010   28.3720 C.3       6 GLP5        0.0000 
      9 CA         13.9515   29.2750   28.0795 C.3       3 GLC5        0.0000 
     10 CA         14.5730   29.6780   29.8160 C.3       9 GLL5        0.0000 
     11 CA         13.3300   28.8720   26.3430 C.3       6 GLP5        0.0000 
     12 CA         16.7250   30.0770   30.1175 C.3       3 GLC5        0.0000 
     13 CA         18.8770   30.4760   30.4190 C.3       6 GLP5        0.0000 
     14 N          11.8685   28.1935   31.6660 N.am      2 SEC2        0.0000 
     15 N          12.8190   28.7850   31.0580 N.am      8 SEL2        0.0000 
     16 N          10.9180   27.6020   32.2740 N.am      5 SEP2        0.0000 
     17 O          12.9520   25.8965   30.8190 O.2       1 ALC1        0.0000 
     18 O          14.1700   26.4920   31.5100 O.2       7 ALL1        0.0000 
     19 O          11.7340   25.3010   30.1280 O.2       4 ALP1        0.0000 
     20 CA         14.2020   28.1390   27.9075 C.3       3 GLC5        0.0000 
     21 CA         15.0740   27.4060   29.4720 C.3       9 GLL5        0.0000 
     22 CA         15.5820   25.3150   30.0505 C.3       3 GLC5        0.0000 
     23 CA         16.0900   23.2240   30.6290 C.3       6 GLP5        0.0000 
     24 CA         16.9675   22.9760   27.8630 C.3       3 GLC5        0.0000 
     25 CA         18.0460   24.3910   27.0370 C.3       9 GLL5        0.0000 
     26 CA         15.8890   21.5610   28.6890 C.3       6 GLP5        0.0000 
     27 CA         17.9870   24.4640   24.8540 C.3       3 GLC5        0.0000 
     28 CA         17.9280   24.5370   22.6710 C.3       6 GLP5        0.0000 
     29 N          17.2250   23.1995   24.8350 N.am      2 SEC2        0.0000 
     30 N          17.1370   24.0240   26.0610 N.am      8 SEL2        0.0000 
     31 N          17.3130   22.3750   23.6090 N.am      5 SEP2        0.0000 
     32 CA         14.2775   24.3240   24.8655 C.3       3 GLC5        0.0000 
     33 CA         15.8540   24.5440   26.0800 C.3       9 GLL5        0.0000 
     34 CA         12.7010   24.1040   23.6510 C.3       6 GLP5        0.0000 
     35 CA         13.8985   24.4825   26.9665 C.3       3 GLC5        0.0000 
     36 CA         11.9430   24.4210   27.8530 C.3       6 GLP5        0.0000 
     37 CA         15.8715   23.0525   27.3845 C.3       3 GLC5        0.0000 
     38 CA         16.1330   22.5630   25.5195 C.3       3 GLC5        0.0000 
     39 CA         16.4120   20.5820   24.9590 C.3       6 GLP5        0.0000 
     40 CA         16.8910   24.5405   24.3755 C.3       3 GLC5        0.0000 
     41 CA         17.3895   25.8795   25.6710 C.3       3 GLC5        0.0000 
     42 CA         18.9250   27.2150   25.2620 C.3       6 GLP5        0.0000 
     43 CA         11.0175   31.9540   29.9750 C.3       3 GLC5        0.0000 
     44 CA         12.7540   33.5250   30.0450 C.3       9 GLL5        0.0000 
     45 CA          9.8050   30.3230   30.4540 C.3       6 GLP5        0.0000 
     46 CA         17.0750   31.0087   30.4587 C.3       3 GLC5        0.0000 
     47 CA         14.9890   32.2520   30.9850 C.3       9 GLL5        0.0000 
     48 CA         15.8430   30.6752   28.0760 C.3       3 GLC5        0.0000 
     49 CA         15.5570   30.8310   30.0120 C.3       9 GLL5        0.0000 
     50 CA         16.6210   31.0960   26.2380 C.3       6 GLP5        0.0000 
     51 CA         16.5602   24.3863   29.3313 C.3       3 GLC5        0.0000 
     52 CA         16.3830   25.8060   28.0340 C.3       9 GLL5        0.0000 
     53 CA         18.0237   26.2692   26.5232 C.3       3 GLC5        0.0000 
     54 CA         17.6780   25.2910   28.0330 C.3       9 GLL5        0.0000 
@<TRIPOS>BOND
@<TRIPOS>SUBSTRUCTURE
     1 ALC1        1 GROUP        1 X    ALC  0     ROOT ALC X 1
     2 SEC2       14 GROUP        1 X    SEC  0     **** SEC X 2
     3 GLC5        6 GROUP        1 X    GLC  0     **** GLC X 6
     4 ALP1        3 GROUP        1 Y    ALP  0     ROOT ALP Y 8
     5 SEP2       16 GROUP        1 Y    SEP  0     **** SEP Y 9
     6 GLP5        8 GROUP        1 Y    GLP  0     **** GLP Y 13
     7 ALL1        2 GROUP        1 Z    ALL  0     ROOT ALL Z 15
     8 SEL2       15 GROUP        1 Z    SEL  0     **** SEL Z 16
     9 GLL5        7 GROUP        1 Z    GLL  0     **** GLL Z 20
@<TRIPOS>SET

