#    Name: 3bus_SAH_1_ligand
#    Modification time : Mon Mar 24 20:05:08 2014

@<TRIPOS>MOLECULE
3bus_SAH_1_ligand
   46    48     1     0     0
SMALL
NO_CHARGES


@<TRIPOS>ATOM
      1 N          12.2780   34.1390   27.6620 N.4       1 SAH274      0.0000 
      2 CA         11.7060   33.6450   28.9470 C.3       1 SAH274      0.0000 
      3 CB         12.7540   33.5250   30.0450 C.3       1 SAH274      0.0000 
      4 CG         14.0790   32.9430   29.5870 C.3       1 SAH274      0.0000 
      5 SD         14.9890   32.2520   30.9850 S.3       1 SAH274      0.0000 
      6 C          10.5980   34.5810   29.3990 C.2       1 SAH274      0.0000 
      7 O           9.4530   34.1640   29.5680 O.co2     1 SAH274      0.0000 
      8 OXT        10.8320   35.7750   29.6000 O.co2     1 SAH274      0.0000 
      9 C5'        15.5570   30.8310   30.0120 C.3       1 SAH274      0.0000 
     10 C4'        14.5730   29.6780   29.8160 C.3       1 SAH274      0.0000 
     11 O4'        15.1530   28.7200   28.9490 O.3       1 SAH274      0.0000 
     12 C3'        14.2170   28.9290   31.0860 C.3       1 SAH274      0.0000 
     13 O3'        12.8190   28.7850   31.0580 O.3       1 SAH274      0.0000 
     14 C2'        14.9060   27.5700   30.9710 C.3       1 SAH274      0.0000 
     15 O2'        14.1700   26.4920   31.5100 O.3       1 SAH274      0.0000 
     16 C1'        15.0740   27.4060   29.4720 C.3       1 SAH274      0.0000 
     17 N9         16.2870   26.6470   29.1110 N.pl3     1 SAH274      0.0000 
     18 C8         17.5080   26.6470   29.7460 C.2       1 SAH274      0.0000 
     19 N7         18.3460   25.8160   29.0850 N.2       1 SAH274      0.0000 
     20 C5         17.6780   25.2910   28.0330 C.ar      1 SAH274      0.0000 
     21 C6         18.0460   24.3910   27.0370 C.ar      1 SAH274      0.0000 
     22 N6         19.2760   23.8920   27.0220 N.pl3     1 SAH274      0.0000 
     23 N1         17.1370   24.0240   26.0610 N.ar      1 SAH274      0.0000 
     24 C2         15.8540   24.5440   26.0800 C.ar      1 SAH274      0.0000 
     25 N3         15.4870   25.4390   27.0750 N.ar      1 SAH274      0.0000 
     26 C4         16.3830   25.8060   28.0340 C.ar      1 SAH274      0.0000 
     27 H          11.2625   32.6629   28.7885 H         1 SAH274      0.0000 
     28 H          12.3471   32.8971   30.8596 H         1 SAH274      0.0000 
     29 H          12.9315   34.5263   30.4799 H         1 SAH274      0.0000 
     30 H          14.7594   33.6701   29.2066 H         1 SAH274      0.0000 
     31 H          13.9784   32.1020   28.9398 H         1 SAH274      0.0000 
     32 H          16.4627   30.5338   30.5484 H         1 SAH274      0.0000 
     33 H          15.8561   31.3025   29.0715 H         1 SAH274      0.0000 
     34 H          13.6613   30.0669   29.3818 H         1 SAH274      0.0000 
     35 H          14.5841   29.4517   31.9070 H         1 SAH274      0.0000 
     36 H          15.8932   27.6712   31.3868 H         1 SAH274      0.0000 
     37 H          14.1941   26.9064   29.0940 H         1 SAH274      0.0000 
     38 H          17.7183   27.1605   30.5331 H         1 SAH274      0.0000 
     39 H          19.9543   24.4091   26.4999 H         1 SAH274      0.0000 
     40 H          19.4132   23.0442   27.5341 H         1 SAH274      0.0000 
     41 H          15.1738   24.2687   25.3594 H         1 SAH274      0.0000 
     42 H          11.8505   34.9944   27.3697 H         1 SAH274      0.0000 
     43 H          13.2602   34.3121   27.7348 H         1 SAH274      0.0000 
     44 H          12.1508   33.4796   26.9211 H         1 SAH274      0.0000 
     45 H          12.4612   29.6861   31.3028 H         1 SAH274      0.0000 
     46 H          13.4535   26.3061   30.8376 H         1 SAH274      0.0000 
@<TRIPOS>BOND
     1    2    1 1    
     2   42    1 1    
     3   43    1 1    
     4   44    1 1    
     5    3    2 1    
     6    6    2 1    
     7   27    2 1    
     8    4    3 1    
     9   28    3 1    
    10   29    3 1    
    11    5    4 1    
    12   30    4 1    
    13   31    4 1    
    14    9    5 1    
    15    7    6 ar   
    16    8    6 ar   
    17   10    9 1    
    18   32    9 1    
    19   33    9 1    
    20   11   10 1    
    21   12   10 1    
    22   34   10 1    
    23   16   11 1    
    24   13   12 1    
    25   14   12 1    
    26   35   12 1    
    27   45   13 1    
    28   15   14 1    
    29   16   14 1    
    30   36   14 1    
    31   46   15 1    
    32   17   16 1    
    33   37   16 1    
    34   18   17 1    
    35   26   17 1    
    36   19   18 2    
    37   38   18 1    
    38   20   19 1    
    39   21   20 ar   
    40   26   20 ar   
    41   22   21 1    
    42   23   21 ar   
    43   39   22 1    
    44   40   22 1    
    45   24   23 ar   
    46   25   24 ar   
    47   41   24 1    
    48   26   25 ar   
@<TRIPOS>SUBSTRUCTURE
     1 SAH274      1 GROUP   
@<TRIPOS>SET

