#    Name: 1aqb_RTL_1_INTS_M
#    Modification time : Mon Mar 24 18:48:11 2014

@<TRIPOS>MOLECULE
1aqb_RTL_1_INTS_M
   71     0     6     0     0
SMALL
NO_CHARGES


@<TRIPOS>ATOM
      1 CA          1.1360    5.8290  -10.4190 C.3       2 GLC5        0.0000 
      2 CA          0.7800    6.0200   -8.2080 C.3       6 GLL5        0.0000 
      3 CA          1.4920    5.6380  -12.6300 C.3       4 GLP5        0.0000 
      4 CA         -0.9985    7.7475   -9.2630 C.3       2 GLC5        0.0000 
      5 CA         -0.0860    7.0220   -7.4650 C.3       6 GLL5        0.0000 
      6 CA         -1.9110    8.4730  -11.0610 C.3       4 GLP5        0.0000 
      7 CA         -1.5015    1.6525   -2.8660 C.3       2 GLC5        0.0000 
      8 CA         -1.5310    1.1750   -5.0430 C.3       6 GLL5        0.0000 
      9 CA         -1.4720    2.1300   -0.6890 C.3       4 GLP5        0.0000 
     10 CA         -6.4685   -5.3020   -3.0565 C.3       2 GLC5        0.0000 
     11 CA         -6.8950   -3.4030   -2.6120 C.3       6 GLL5        0.0000 
     12 CA         -6.0420   -7.2010   -3.5010 C.3       4 GLP5        0.0000 
     13 N          -6.8775   -2.4760   -0.2805 N.am      1 SEC2        0.0000 
     14 N          -7.3160   -3.3270   -1.3150 N.am      5 SEL2        0.0000 
     15 N          -6.4390   -1.6250    0.7540 N.am      3 SEP2        0.0000 
     16 CA          2.2050    4.0590   -5.5600 C.3       2 GLC5        0.0000 
     17 CA          1.9440    4.0310   -7.6900 C.3       6 GLL5        0.0000 
     18 CA          2.4660    4.0870   -3.4300 C.3       4 GLP5        0.0000 
     19 CA          2.8970    2.1115   -7.5555 C.3       2 GLC5        0.0000 
     20 CA          3.8500    0.1920   -7.4210 C.3       4 GLP5        0.0000 
     21 CA          1.5460    2.4985   -9.0165 C.3       2 GLC5        0.0000 
     22 CA          1.1480    0.9660  -10.3430 C.3       4 GLP5        0.0000 
     23 CA         -1.9755    2.5870   -8.7295 C.3       2 GLC5        0.0000 
     24 CA         -0.2740    3.9230   -8.8470 C.3       6 GLL5        0.0000 
     25 CA         -3.6770    1.2510   -8.6120 C.3       4 GLP5        0.0000 
     26 CA          0.4370    2.4445   -9.5950 C.3       2 GLC5        0.0000 
     27 CA         -3.5110    5.0825   -4.2315 C.3       2 GLC5        0.0000 
     28 CA         -1.5160    5.3710   -4.4160 C.3       6 GLL5        0.0000 
     29 CA         -5.5060    4.7940   -4.0470 C.3       4 GLP5        0.0000 
     30 CA         -1.1080    7.0290   -2.9905 C.3       2 GLC5        0.0000 
     31 CA         -0.7000    8.6870   -1.5650 C.3       4 GLP5        0.0000 
     32 CA         -1.1170    4.9515   -2.5455 C.3       2 GLC5        0.0000 
     33 CA         -0.7180    4.5320   -0.6750 C.3       4 GLP5        0.0000 
     34 CA          0.1590   -0.9895   -5.8655 C.3       2 GLC5        0.0000 
     35 CA         -0.2160    0.4850   -4.6850 C.3       6 GLL5        0.0000 
     36 CA          0.5340   -2.4640   -7.0460 C.3       4 GLP5        0.0000 
     37 CA         -0.0585    0.4105   -2.5945 C.3       2 GLC5        0.0000 
     38 CA          0.0990    0.3360   -0.5040 C.3       4 GLP5        0.0000 
     39 CA          1.8925    0.2155   -5.3875 C.3       2 GLC5        0.0000 
     40 CA          4.0010   -0.0540   -6.0900 C.3       4 GLP5        0.0000 
     41 CA         -3.7060   -3.9795   -5.0570 C.3       2 GLC5        0.0000 
     42 CA         -4.2090   -3.0370   -3.3310 C.3       6 GLL5        0.0000 
     43 CA         -3.2030   -4.9220   -6.7830 C.3       4 GLP5        0.0000 
     44 CA         -4.2150   -2.7615   -1.5440 C.3       2 GLC5        0.0000 
     45 CA         -4.2210   -2.4860    0.2430 C.3       4 GLP5        0.0000 
     46 CA          1.3460    8.0945   -8.6502 C.3       2 GLC5        0.0000 
     47 CA          2.3450    9.6680   -9.4640 C.3       4 GLP5        0.0000 
     48 CA         -0.4475    8.9303   -6.5840 C.3       2 GLC5        0.0000 
     49 CA         -0.5110   10.8250   -6.4010 C.3       4 GLP5        0.0000 
     50 CA         -2.3028    6.2916   -7.1063 C.3       2 GLC5        0.0000 
     51 CA         -0.6030    5.5930   -5.6220 C.3       6 GLL5        0.0000 
     52 CA         -4.1120    6.2690   -8.0180 C.3       4 GLP5        0.0000 
     53 CA          1.1245    3.9530   -4.7462 C.3       2 GLC5        0.0000 
     54 CA         -0.1460    4.5000   -6.3200 C.3       6 GLL5        0.0000 
     55 CA         -2.5880    1.5568   -6.9460 C.3       2 GLC5        0.0000 
     56 CA         -1.4670    2.5500   -5.5170 C.3       6 GLL5        0.0000 
     57 CA         -2.0528    0.3922   -2.4863 C.3       2 GLC5        0.0000 
     58 CA         -2.7320    0.6970   -4.5920 C.3       6 GLL5        0.0000 
     59 CA         -1.2040    0.7680   -0.6120 C.3       4 GLP5        0.0000 
     60 CA         -4.0326   -0.2244   -6.2201 C.3       2 GLC5        0.0000 
     61 CA         -4.4050   -0.0340   -8.2400 C.3       4 GLP5        0.0000 
     62 CA         -4.3421    0.9546   -3.1191 C.3       2 GLC5        0.0000 
     63 CA         -5.0240    2.3240   -2.0380 C.3       4 GLP5        0.0000 
     64 CA         -8.3755   -1.7652   -2.4772 C.3       2 GLC5        0.0000 
     65 CA         -6.4850   -2.0940   -3.1470 C.3       6 GLL5        0.0000 
     66 CA        -10.0610   -0.7820   -2.0750 C.3       4 GLP5        0.0000 
     67 CA         -7.1835   -3.5885   -4.5316 C.3       2 GLC5        0.0000 
     68 CA         -7.9840   -4.4520   -6.0370 C.3       4 GLP5        0.0000 
     69 CA         -5.3020   -2.6055   -1.3916 C.3       2 GLC5        0.0000 
     70 CA          0.7699    5.8500   -4.4824 C.3       2 GLC5        0.0000 
     71 CA          2.6190    5.8540   -3.8340 C.3       4 GLP5        0.0000 
@<TRIPOS>BOND
@<TRIPOS>SUBSTRUCTURE
     1 SEC2       13 GROUP        1 X    SEC  0     ROOT SEC X 2
     2 GLC5        1 GROUP        1 X    GLC  0     **** GLC X 6
     3 SEP2       15 GROUP        1 Y    SEP  0     ROOT SEP Y 9
     4 GLP5        3 GROUP        1 Y    GLP  0     **** GLP Y 13
     5 SEL2       14 GROUP        1 Z    SEL  0     ROOT SEL Z 16
     6 GLL5        2 GROUP        1 Z    GLL  0     **** GLL Z 20
@<TRIPOS>SET

