#    Name: 1aqb_RTL_1_ligand
#    Modification time : Mon Mar 24 18:48:11 2014

@<TRIPOS>MOLECULE
1aqb_RTL_1_ligand
   51    51     1     0     0
SMALL
NO_CHARGES


@<TRIPOS>ATOM
      1 C1          0.5070    4.5850   -7.7090 C.3       1 RTL185      0.0000 
      2 C2          0.7800    6.0200   -8.2080 C.3       1 RTL185      0.0000 
      3 C3         -0.0860    7.0220   -7.4650 C.3       1 RTL185      0.0000 
      4 C4         -0.6820    7.0490   -6.0690 C.3       1 RTL185      0.0000 
      5 C5         -0.6030    5.5930   -5.6220 C.2       1 RTL185      0.0000 
      6 C6         -0.1460    4.5000   -6.3200 C.2       1 RTL185      0.0000 
      7 C7         -0.2880    3.1380   -5.8050 C.2       1 RTL185      0.0000 
      8 C8         -1.4670    2.5500   -5.5170 C.2       1 RTL185      0.0000 
      9 C9         -1.5310    1.1750   -5.0430 C.2       1 RTL185      0.0000 
     10 C10        -2.7320    0.6970   -4.5920 C.2       1 RTL185      0.0000 
     11 C11        -3.0710   -0.6640   -4.1290 C.2       1 RTL185      0.0000 
     12 C12        -4.4190   -0.8460   -4.0400 C.2       1 RTL185      0.0000 
     13 C13        -5.2570   -2.0000   -3.7340 C.2       1 RTL185      0.0000 
     14 C14        -6.4850   -2.0940   -3.1470 C.2       1 RTL185      0.0000 
     15 C15        -6.8950   -3.4030   -2.6120 C.3       1 RTL185      0.0000 
     16 O1         -7.3160   -3.3270   -1.3150 O.3       1 RTL185      0.0000 
     17 C16         1.9440    4.0310   -7.6900 C.3       1 RTL185      0.0000 
     18 C17        -0.2740    3.9230   -8.8470 C.3       1 RTL185      0.0000 
     19 C18        -1.5160    5.3710   -4.4160 C.3       1 RTL185      0.0000 
     20 C19        -0.2160    0.4850   -4.6850 C.3       1 RTL185      0.0000 
     21 C20        -4.2090   -3.0370   -3.3310 C.3       1 RTL185      0.0000 
     22 H           0.5644    6.0666   -9.2732 H         1 RTL185      0.0000 
     23 H           1.8305    6.2520   -8.0474 H         1 RTL185      0.0000 
     24 H          -0.9951    7.2729   -8.2072 H         1 RTL185      0.0000 
     25 H           0.4605    8.0818   -7.6014 H         1 RTL185      0.0000 
     26 H          -1.6959    7.3559   -6.1127 H         1 RTL185      0.0000 
     27 H          -0.0871    7.6523   -5.4316 H         1 RTL185      0.0000 
     28 H           0.6207    2.6178   -5.6649 H         1 RTL185      0.0000 
     29 H          -2.3691    3.0465   -5.6196 H         1 RTL185      0.0000 
     30 H          -3.5715    1.3797   -4.5552 H         1 RTL185      0.0000 
     31 H          -2.3790   -1.3020   -3.9296 H         1 RTL185      0.0000 
     32 H          -5.0403    0.0653   -4.2386 H         1 RTL185      0.0000 
     33 H          -7.1258   -1.3244   -3.0579 H         1 RTL185      0.0000 
     34 H          -6.0313   -4.1069   -2.7327 H         1 RTL185      0.0000 
     35 H          -7.6886   -3.8147   -3.2878 H         1 RTL185      0.0000 
     36 H           2.3005    3.8916   -8.6138 H         1 RTL185      0.0000 
     37 H           2.5748    4.6506   -7.2228 H         1 RTL185      0.0000 
     38 H           1.9962    3.1501   -7.2196 H         1 RTL185      0.0000 
     39 H           0.2518    3.9059   -9.6975 H         1 RTL185      0.0000 
     40 H          -0.5136    2.9764   -8.6315 H         1 RTL185      0.0000 
     41 H          -1.1286    4.4049   -9.0404 H         1 RTL185      0.0000 
     42 H          -1.4894    4.4227   -4.0996 H         1 RTL185      0.0000 
     43 H          -1.2539    5.9460   -3.6410 H         1 RTL185      0.0000 
     44 H          -2.4700    5.5825   -4.6285 H         1 RTL185      0.0000 
     45 H           0.4045    0.4391   -5.4679 H         1 RTL185      0.0000 
     46 H           0.2689    0.9659   -3.9545 H         1 RTL185      0.0000 
     47 H          -0.3622   -0.4532   -4.3715 H         1 RTL185      0.0000 
     48 H          -3.5617   -3.2179   -4.0714 H         1 RTL185      0.0000 
     49 H          -3.6743   -2.7370   -2.5410 H         1 RTL185      0.0000 
     50 H          -4.6271   -3.9120   -3.0868 H         1 RTL185      0.0000 
     51 H          -7.5631   -4.2640   -1.0679 H         1 RTL185      0.0000 
@<TRIPOS>BOND
     1    2    1 1    
     2    6    1 1    
     3   17    1 1    
     4   18    1 1    
     5    3    2 1    
     6   22    2 1    
     7   23    2 1    
     8    4    3 1    
     9   24    3 1    
    10   25    3 1    
    11    5    4 1    
    12   26    4 1    
    13   27    4 1    
    14    6    5 2    
    15   19    5 1    
    16    7    6 1    
    17    8    7 2    
    18   28    7 1    
    19    9    8 1    
    20   29    8 1    
    21   10    9 2    
    22   20    9 1    
    23   11   10 1    
    24   30   10 1    
    25   12   11 2    
    26   31   11 1    
    27   13   12 1    
    28   32   12 1    
    29   14   13 2    
    30   21   13 1    
    31   15   14 1    
    32   33   14 1    
    33   16   15 1    
    34   34   15 1    
    35   35   15 1    
    36   51   16 1    
    37   36   17 1    
    38   37   17 1    
    39   38   17 1    
    40   39   18 1    
    41   40   18 1    
    42   41   18 1    
    43   42   19 1    
    44   43   19 1    
    45   44   19 1    
    46   45   20 1    
    47   46   20 1    
    48   47   20 1    
    49   48   21 1    
    50   49   21 1    
    51   50   21 1    
@<TRIPOS>SUBSTRUCTURE
     1 RTL185      1 GROUP   
@<TRIPOS>SET

