#    Name: 3eq9_X97_1_INTS_M
#    Modification time : Tue Mar 25 02:21:15 2014

@<TRIPOS>MOLECULE
3eq9_X97_1_INTS_M
   69     0     9     0     0
SMALL
NO_CHARGES


@<TRIPOS>ATOM
      1 N           7.1625   37.6425   28.3440 N.am      2 SEC2        0.0000 
      2 N           7.1820   38.0560   29.5730 N.am      8 SEL2        0.0000 
      3 N           7.1430   37.2290   27.1150 N.am      5 SEP2        0.0000 
      4 CA          7.3155   36.3470   31.4680 C.3       3 GLC5        0.0000 
      5 CA          7.6940   38.2630   31.8950 C.3       9 GLL5        0.0000 
      6 CA          6.9370   34.4310   31.0410 C.3       6 GLP5        0.0000 
      7 CA          9.7575   40.3180   31.7025 C.3       3 GLC5        0.0000 
      8 CA          9.0810   38.5680   31.3660 C.3       9 GLL5        0.0000 
      9 CA         10.4340   42.0680   32.0390 C.3       6 GLP5        0.0000 
     10 CA         10.5910   40.2285   32.8560 C.3       3 GLC5        0.0000 
     11 CA         10.1520   38.6190   32.4500 C.3       9 GLL5        0.0000 
     12 CA         11.0300   41.8380   33.2620 C.3       6 GLP5        0.0000 
     13 CA         12.1600   38.2180   33.2935 C.3       3 GLC5        0.0000 
     14 CA         14.1680   37.8170   34.1370 C.3       6 GLP5        0.0000 
     15 O          10.0560   33.8500   33.6350 O.2       1 ALC1        0.0000 
     16 O          10.4010   35.3480   34.0980 O.2       7 ALL1        0.0000 
     17 O           9.7110   32.3520   33.1720 O.2       4 ALP1        0.0000 
     18 CA         12.1795   33.7435   36.7045 C.3       3 GLC5        0.0000 
     19 CA         11.9640   35.5490   36.4560 C.3       9 GLL5        0.0000 
     20 CA         12.3950   31.9380   36.9530 C.3       6 GLP5        0.0000 
     21 CA          5.6740   36.1035   30.5095 C.3       3 GLC5        0.0000 
     22 CA          4.4110   37.7760   29.9780 C.3       9 GLL5        0.0000 
     23 CA          3.7785   35.6505   29.7545 C.3       3 GLC5        0.0000 
     24 CA          3.1460   33.5250   29.5310 C.3       6 GLP5        0.0000 
     25 CA          5.6620   36.8245   28.5505 C.3       3 GLC5        0.0000 
     26 CA          6.9130   35.8730   27.1230 C.3       6 GLP5        0.0000 
     27 N           5.1605   41.0560   30.0745 N.am      2 SEC2        0.0000 
     28 N           4.5910   40.0650   29.2680 N.am      8 SEL2        0.0000 
     29 N           5.7300   42.0470   30.8810 N.am      5 SEP2        0.0000 
     30 CA          2.4815   35.7825   30.2315 C.3       3 GLC5        0.0000 
     31 CA          3.1210   37.5880   30.7850 C.3       9 GLL5        0.0000 
     32 CA          1.8420   33.9770   29.6780 C.3       6 GLP5        0.0000 
     33 CA          5.8980   36.2585   31.7000 C.3       3 GLC5        0.0000 
     34 CA          4.8590   38.0860   32.3590 C.3       9 GLL5        0.0000 
     35 CA          1.8020   40.6010   26.3965 C.3       3 GLC5        0.0000 
     36 CA          3.7540   39.6040   26.6560 C.3       9 GLL5        0.0000 
     37 CA         -0.1500   41.5980   26.1370 C.3       6 GLP5        0.0000 
     38 CA          5.0010   41.2160   27.1230 C.3       3 GLC5        0.0000 
     39 CA          6.2480   42.8280   27.5900 C.3       6 GLP5        0.0000 
     40 CA          5.1765   36.5705   27.1980 C.3       3 GLC5        0.0000 
     41 CA          3.4400   37.2680   27.2730 C.3       9 GLL5        0.0000 
     42 CA          0.9245   37.2180   25.9540 C.3       3 GLC5        0.0000 
     43 CA          2.8640   37.5470   25.8790 C.3       9 GLL5        0.0000 
     44 CA         -1.0150   36.8890   26.0290 C.3       6 GLP5        0.0000 
     45 CA          4.7775   37.0670   25.4460 C.3       3 GLC5        0.0000 
     46 CA          6.6910   36.5870   25.0130 C.3       6 GLP5        0.0000 
     47 CA         10.7838   38.5662   30.3605 C.3       3 GLC5        0.0000 
     48 CA         11.9510   38.5390   28.8130 C.3       6 GLP5        0.0000 
     49 CA          9.0095   33.1420   37.1295 C.3       3 GLC5        0.0000 
     50 CA          8.2880   34.1110   35.8350 C.3       9 GLL5        0.0000 
     51 CA         10.3610   32.4520   38.3020 C.3       6 GLP5        0.0000 
     52 CA          6.9055   33.0990   34.2710 C.3       3 GLC5        0.0000 
     53 CA          7.0410   32.1030   32.5420 C.3       6 GLP5        0.0000 
     54 CA         14.0120   35.4453   36.2295 C.3       3 GLC5        0.0000 
     55 CA         15.6670   35.3490   35.4230 C.3       6 GLP5        0.0000 
     56 CA         12.1635   33.9380   38.2858 C.3       3 GLC5        0.0000 
     57 CA         12.7500   35.5340   37.6160 C.3       9 GLL5        0.0000 
     58 CA         11.8320   32.0940   38.3530 C.3       6 GLP5        0.0000 
     59 CA         10.5146   34.4406   38.1416 C.3       3 GLC5        0.0000 
     60 CA         10.9370   36.5450   38.8630 C.3       9 GLL5        0.0000 
     61 CA          5.4115   39.0793   25.6802 C.3       3 GLC5        0.0000 
     62 CA          7.1520   38.9730   25.3250 C.3       6 GLP5        0.0000 
     63 CA          4.0135   40.4788   25.0222 C.3       3 GLC5        0.0000 
     64 CA          3.5880   38.7670   25.4150 C.3       9 GLL5        0.0000 
     65 CA          4.3560   41.7720   24.0090 C.3       6 GLP5        0.0000 
     66 CA          2.4675   35.9292   26.9470 C.3       3 GLC5        0.0000 
     67 CA          1.7830   34.4510   27.3180 C.3       6 GLP5        0.0000 
     68 CA          2.7155   38.1685   23.7680 C.3       3 GLC5        0.0000 
     69 CA          2.2050   38.1800   21.8890 C.3       6 GLP5        0.0000 
@<TRIPOS>BOND
@<TRIPOS>SUBSTRUCTURE
     1 ALC1       15 GROUP        1 X    ALC  0     ROOT ALC X 1
     2 SEC2        1 GROUP        1 X    SEC  0     **** SEC X 2
     3 GLC5        4 GROUP        1 X    GLC  0     **** GLC X 6
     4 ALP1       17 GROUP        1 Y    ALP  0     ROOT ALP Y 8
     5 SEP2        3 GROUP        1 Y    SEP  0     **** SEP Y 9
     6 GLP5        6 GROUP        1 Y    GLP  0     **** GLP Y 13
     7 ALL1       16 GROUP        1 Z    ALL  0     ROOT ALL Z 15
     8 SEL2        2 GROUP        1 Z    SEL  0     **** SEL Z 16
     9 GLL5        5 GROUP        1 Z    GLL  0     **** GLL Z 20
@<TRIPOS>SET

