#    Name: 3eq9_X97_1_ligand
#    Modification time : Tue Mar 25 02:21:15 2014

@<TRIPOS>MOLECULE
3eq9_X97_1_ligand
   68    72     1     0     0
SMALL
NO_CHARGES


@<TRIPOS>ATOM
      1 C           6.7440   38.1680   30.7220 C.2       1 X97711      0.0000 
      2 O           7.1820   38.0560   29.5730 O.2       1 X97711      0.0000 
      3 C1          7.6940   38.2630   31.8950 C.3       1 X97711      0.0000 
      4 C2          9.0810   38.5680   31.3660 C.3       1 X97711      0.0000 
      5 C3         10.1520   38.6190   32.4500 C.3       1 X97711      0.0000 
      6 N4         10.1560   37.5050   33.3370 N.am      1 X97711      0.0000 
      7 C5         10.6020   36.1990   32.9980 C.2       1 X97711      0.0000 
      8 N6         10.4010   35.3480   34.0980 N.am      1 X97711      0.0000 
      9 C7          9.7930   36.0700   35.2320 C.3       1 X97711      0.0000 
     10 C8          9.6680   37.5380   34.6350 C.2       1 X97711      0.0000 
     11 O9         11.0640   35.8510   31.9010 O.2       1 X97711      0.0000 
     12 O10         9.2620   38.5580   35.1950 O.2       1 X97711      0.0000 
     13 C11         8.4160   35.4860   35.5500 C.ar      1 X97711      0.0000 
     14 C12         8.2880   34.1110   35.8350 C.ar      1 X97711      0.0000 
     15 C13         7.0280   33.5530   36.0790 C.ar      1 X97711      0.0000 
     16 C14         5.8820   34.3580   36.0430 C.ar      1 X97711      0.0000 
     17 C15         5.9990   35.7250   35.7640 C.ar      1 X97711      0.0000 
     18 C16         7.2580   36.2900   35.5190 C.ar      1 X97711      0.0000 
     19 C17        10.6540   36.0640   36.4920 C.ar      1 X97711      0.0000 
     20 C18        11.9640   35.5490   36.4560 C.ar      1 X97711      0.0000 
     21 C19        12.7500   35.5340   37.6160 C.ar      1 X97711      0.0000 
     22 C20        12.2400   36.0300   38.8210 C.ar      1 X97711      0.0000 
     23 C21        10.9370   36.5450   38.8630 C.ar      1 X97711      0.0000 
     24 C22        10.1450   36.5630   37.7070 C.ar      1 X97711      0.0000 
     25 N           5.4360   38.0270   31.0040 N.am      1 X97711      0.0000 
     26 CA          4.4110   37.7760   29.9780 C.3       1 X97711      0.0000 
     27 C4          4.2940   38.9110   28.9610 C.2       1 X97711      0.0000 
     28 O1          4.5910   40.0650   29.2680 O.2       1 X97711      0.0000 
     29 CB          3.1210   37.5880   30.7850 C.3       1 X97711      0.0000 
     30 CG          3.3940   38.2390   32.1010 C.3       1 X97711      0.0000 
     31 CD          4.8590   38.0860   32.3590 C.3       1 X97711      0.0000 
     32 N1          3.8410   38.6000   27.7360 N.am      1 X97711      0.0000 
     33 CD1         3.7540   39.6040   26.6560 C.3       1 X97711      0.0000 
     34 CA1         3.4400   37.2680   27.2730 C.3       1 X97711      0.0000 
     35 CB1         2.8640   37.5470   25.8790 C.3       1 X97711      0.0000 
     36 CG1         3.5880   38.7670   25.4150 C.3       1 X97711      0.0000 
     37 H           7.7091   37.3218   32.4285 H         1 X97711      0.0000 
     38 H           7.3765   39.0575   32.5572 H         1 X97711      0.0000 
     39 H           9.0628   39.5359   30.8379 H         1 X97711      0.0000 
     40 H           9.3623   37.8026   30.6236 H         1 X97711      0.0000 
     41 H          10.0127   39.5784   33.0074 H         1 X97711      0.0000 
     42 H          11.1386   38.7285   31.9350 H         1 X97711      0.0000 
     43 H          10.6159   34.4227   34.1430 H         1 X97711      0.0000 
     44 H           9.1265   33.5199   35.8626 H         1 X97711      0.0000 
     45 H           6.9425   32.5511   36.2850 H         1 X97711      0.0000 
     46 H           4.9610   33.9472   36.2204 H         1 X97711      0.0000 
     47 H           5.1601   36.3161   35.7386 H         1 X97711      0.0000 
     48 H           7.3413   37.2913   35.3161 H         1 X97711      0.0000 
     49 H          12.3420   35.1838   35.5751 H         1 X97711      0.0000 
     50 H          13.7049   35.1570   37.5807 H         1 X97711      0.0000 
     51 H          12.8140   36.0173   39.6671 H         1 X97711      0.0000 
     52 H          10.5608   36.9111   39.7458 H         1 X97711      0.0000 
     53 H           9.1926   36.9395   37.7424 H         1 X97711      0.0000 
     54 H           4.6188   36.8490   29.4779 H         1 X97711      0.0000 
     55 H           2.9374   36.5437   30.9113 H         1 X97711      0.0000 
     56 H           2.3186   38.0794   30.2800 H         1 X97711      0.0000 
     57 H           2.8309   37.7475   32.8792 H         1 X97711      0.0000 
     58 H           3.1368   39.2859   32.0548 H         1 X97711      0.0000 
     59 H           5.2247   38.9382   32.8888 H         1 X97711      0.0000 
     60 H           5.0409   37.1758   32.8873 H         1 X97711      0.0000 
     61 H           4.6572   40.1681   26.5893 H         1 X97711      0.0000 
     62 H           2.8971   40.2264   26.7854 H         1 X97711      0.0000 
     63 H           2.6723   36.8568   27.8841 H         1 X97711      0.0000 
     64 H           4.2782   36.6204   27.1733 H         1 X97711      0.0000 
     65 H           1.8187   37.7379   25.9657 H         1 X97711      0.0000 
     66 H           3.0743   36.7178   25.2427 H         1 X97711      0.0000 
     67 H           4.5487   38.5032   25.0252 H         1 X97711      0.0000 
     68 H           2.9992   39.2977   24.6966 H         1 X97711      0.0000 
@<TRIPOS>BOND
     1    2    1 2    
     2    3    1 1    
     3   25    1 am   
     4    4    3 1    
     5   37    3 1    
     6   38    3 1    
     7    5    4 1    
     8   39    4 1    
     9   40    4 1    
    10    6    5 1    
    11   41    5 1    
    12   42    5 1    
    13    7    6 am   
    14   10    6 am   
    15    8    7 am   
    16   11    7 2    
    17    9    8 1    
    18   43    8 1    
    19   10    9 1    
    20   13    9 1    
    21   19    9 1    
    22   12   10 2    
    23   14   13 ar   
    24   18   13 ar   
    25   15   14 ar   
    26   44   14 1    
    27   16   15 ar   
    28   45   15 1    
    29   17   16 ar   
    30   46   16 1    
    31   18   17 ar   
    32   47   17 1    
    33   48   18 1    
    34   20   19 ar   
    35   24   19 ar   
    36   21   20 ar   
    37   49   20 1    
    38   22   21 ar   
    39   50   21 1    
    40   23   22 ar   
    41   51   22 1    
    42   24   23 ar   
    43   52   23 1    
    44   53   24 1    
    45   26   25 1    
    46   31   25 1    
    47   27   26 1    
    48   29   26 1    
    49   54   26 1    
    50   28   27 2    
    51   32   27 am   
    52   30   29 1    
    53   55   29 1    
    54   56   29 1    
    55   31   30 1    
    56   57   30 1    
    57   58   30 1    
    58   59   31 1    
    59   60   31 1    
    60   33   32 1    
    61   34   32 1    
    62   36   33 1    
    63   61   33 1    
    64   62   33 1    
    65   35   34 1    
    66   63   34 1    
    67   64   34 1    
    68   36   35 1    
    69   65   35 1    
    70   66   35 1    
    71   67   36 1    
    72   68   36 1    
@<TRIPOS>SUBSTRUCTURE
     1 X97711      1 GROUP   
@<TRIPOS>SET

