#    Name: 1n6i_GDP_1_INTS_M
#    Modification time : Mon Mar 24 17:45:22 2014

@<TRIPOS>MOLECULE
1n6i_GDP_1_INTS_M
   65     0    12     0     0
SMALL
NO_CHARGES


@<TRIPOS>ATOM
      1 N           2.0125   -2.8535   43.3310 N.am      2 SEC2        0.0000 
      2 N           3.1600   -2.0060   42.9470 N.am     10 SEL2        0.0000 
      3 N           0.8650   -3.7010   43.7150 N.am      6 SEP2        0.0000 
      4 N           4.1145   -3.4835   40.3400 N.am      2 SEC2        0.0000 
      5 N           3.5710   -2.0200   40.4570 N.am     10 SEL2        0.0000 
      6 N           4.6580   -4.9470   40.2230 N.am      6 SEP2        0.0000 
      7 N           4.9460   -2.5555   40.0145 N.am      2 SEC2        0.0000 
      8 N           6.3210   -3.0910   39.5720 N.am      6 SEP2        0.0000 
      9 N           4.4570   -1.3450   39.5245 N.am      2 SEC2        0.0000 
     10 N           5.3430   -0.6700   38.5920 N.am      6 SEP2        0.0000 
     11 Zn          3.0735    0.8050   42.1635 Zn        3 ZIC7        0.0000 
     12 Zn          3.6640    0.1300   41.7140 Zn       11 ZIL7        0.0000 
     13 Zn          2.4830    1.4800   42.6130 Zn        7 ZIP7        0.0000 
     14 N           4.3215    1.0465   40.7405 N.am      2 SEC2        0.0000 
     15 N           3.6640    0.1300   41.7140 N.am     10 SEL2        0.0000 
     16 N           4.9790    1.9630   39.7670 N.am      6 SEP2        0.0000 
     17 N           5.8830   -2.4035   40.8460 N.am      2 SEC2        0.0000 
     18 N           5.4450   -1.7160   42.1200 N.am     10 SEL2        0.0000 
     19 N           7.3215    1.4520   41.0995 N.am      2 SEC2        0.0000 
     20 N           7.0230    0.4020   41.9570 N.am     10 SEL2        0.0000 
     21 N           7.6200    2.5020   40.2420 N.am      6 SEP2        0.0000 
     22 N           8.3495    0.7370   41.8795 N.am      2 SEC2        0.0000 
     23 N           9.6760    1.0720   41.8020 N.am      6 SEP2        0.0000 
     24 CA          5.9620   -4.0780   43.6785 C.3       4 GLC5        0.0000 
     25 CA          7.4480   -2.9420   43.7650 C.3      12 GLL5        0.0000 
     26 CA          4.4760   -5.2140   43.5920 C.3       8 GLP5        0.0000 
     27 CA          7.3455   -2.4545   41.5880 C.3       4 GLC5        0.0000 
     28 CA          7.2430   -1.9670   39.4110 C.3       8 GLP5        0.0000 
     29 N           9.6255   -5.2800   42.4240 N.am      2 SEC2        0.0000 
     30 N           9.7500   -3.8750   43.1830 N.am     10 SEL2        0.0000 
     31 N           9.5010   -6.6850   41.6650 N.am      6 SEP2        0.0000 
     32 CA          8.8510   -0.4890   45.6415 C.3       4 GLC5        0.0000 
     33 CA          9.7160   -2.3440   44.9840 C.3      12 GLL5        0.0000 
     34 CA          7.9860    1.3660   46.2990 C.3       8 GLP5        0.0000 
     35 O          11.3510   -2.3350   46.8210 O.2       1 ALC1        0.0000 
     36 O          10.3840   -3.0570   46.0520 O.2       9 ALL1        0.0000 
     37 O          12.3180   -1.6130   47.5900 O.2       5 ALP1        0.0000 
     38 O          12.0805   -0.0660   44.9870 O.2       1 ALC1        0.0000 
     39 O          11.9530   -1.3920   44.4850 O.2       9 ALL1        0.0000 
     40 O          12.2080    1.2600   45.4890 O.2       5 ALP1        0.0000 
     41 CA         10.2385   -4.5135   41.7000 C.3       4 GLC5        0.0000 
     42 CA         10.8780   -3.0600   43.0540 C.3      12 GLL5        0.0000 
     43 CA          9.5990   -5.9670   40.3460 C.3       8 GLP5        0.0000 
     44 N          10.2410   -2.1800   38.1730 N.am      2 SEC2        0.0000 
     45 N          10.9890   -1.8490   39.5710 N.am     10 SEL2        0.0000 
     46 N           9.4930   -2.5110   36.7750 N.am      6 SEP2        0.0000 
     47 CA         11.4730   -4.2900   38.9070 C.3       4 GLC5        0.0000 
     48 CA         12.0770   -2.6980   39.6380 C.3      12 GLL5        0.0000 
     49 CA         10.8690   -5.8820   38.1760 C.3       8 GLP5        0.0000 
     50 CA         12.0790   -0.8055   38.6760 C.3       4 GLC5        0.0000 
     51 CA         12.0810    1.0870   37.7140 C.3       8 GLP5        0.0000 
     52 N          14.0965   -1.3720   37.8445 N.am      2 SEC2        0.0000 
     53 N          13.1120   -2.6750   37.5200 N.am     10 SEL2        0.0000 
     54 N          15.0810   -0.0690   38.1690 N.am      6 SEP2        0.0000 
     55 O          14.9225   -4.3770   38.2140 O.2       1 ALC1        0.0000 
     56 O          14.0250   -4.0110   39.1670 O.2       9 ALL1        0.0000 
     57 O          15.8200   -4.7430   37.2610 O.2       5 ALP1        0.0000 
     58 O          15.5715   -4.7865   38.9995 O.2       1 ALC1        0.0000 
     59 O          17.1180   -5.5620   38.8320 O.2       5 ALP1        0.0000 
     60 O          16.0775   -5.4805   39.7975 O.2       1 ALC1        0.0000 
     61 O          15.0370   -5.3990   40.7630 O.2       9 ALL1        0.0000 
     62 CA         10.8950   -4.6160   40.6290 C.3       4 GLC5        0.0000 
     63 CA         12.1910   -3.2650   40.9120 C.3      12 GLL5        0.0000 
     64 CA         12.5460   -1.5277   43.0375 C.3       4 GLC5        0.0000 
     65 CA         14.2940   -0.5940   42.5730 C.3       8 GLP5        0.0000 
@<TRIPOS>BOND
@<TRIPOS>SUBSTRUCTURE
     1 ALC1       35 GROUP        1 X    ALC  0     ROOT ALC X 1
     2 SEC2        1 GROUP        1 X    SEC  0     **** SEC X 2
     3 ZIC7       11 GROUP        1 X    ZIC  0     **** ZIC X 5
     4 GLC5       24 GROUP        1 X    GLC  0     **** GLC X 6
     5 ALP1       37 GROUP        1 Y    ALP  0     ROOT ALP Y 8
     6 SEP2        3 GROUP        1 Y    SEP  0     **** SEP Y 9
     7 ZIP7       13 GROUP        1 Y    ZIP  0     **** ZIP Y 12
     8 GLP5       26 GROUP        1 Y    GLP  0     **** GLP Y 13
     9 ALL1       36 GROUP        1 Z    ALL  0     ROOT ALL Z 15
    10 SEL2        2 GROUP        1 Z    SEL  0     **** SEL Z 16
    11 ZIL7       12 GROUP        1 Z    ZIL  0     **** ZIL Z 19
    12 GLL5       25 GROUP        1 Z    GLL  0     **** GLL Z 20
@<TRIPOS>SET

