#    Name: 1n6i_GDP_1_ligand
#    Modification time : Mon Mar 24 17:45:22 2014

@<TRIPOS>MOLECULE
1n6i_GDP_1_ligand
   40    42     1     0     0
SMALL
NO_CHARGES


@<TRIPOS>ATOM
      1 PB          3.8360   -1.3590   41.7880 P.3       1 GDP200      0.0000 
      2 O1B         3.1600   -2.0060   42.9470 O.co2     1 GDP200      0.0000 
      3 O2B         3.5710   -2.0200   40.4570 O.co2     1 GDP200      0.0000 
      4 O3B         3.6640    0.1300   41.7140 O.co2     1 GDP200      0.0000 
      5 O3A         5.4450   -1.7160   42.1200 O.3       1 GDP200      0.0000 
      6 PA          6.5000   -0.6820   42.8620 P.3       1 GDP200      0.0000 
      7 O1A         7.0230    0.4020   41.9570 O.co2     1 GDP200      0.0000 
      8 O2A         5.9240   -0.1560   44.1370 O.co2     1 GDP200      0.0000 
      9 O5'         7.6010   -1.7800   42.9920 O.3       1 GDP200      0.0000 
     10 C5'         7.4480   -2.9420   43.7650 C.3       1 GDP200      0.0000 
     11 C4'         8.8100   -3.3910   44.2270 C.3       1 GDP200      0.0000 
     12 O4'         9.7500   -3.8750   43.1830 O.3       1 GDP200      0.0000 
     13 C3'         9.7160   -2.3440   44.9840 C.3       1 GDP200      0.0000 
     14 O3'        10.3840   -3.0570   46.0520 O.3       1 GDP200      0.0000 
     15 C2'        10.7180   -1.8630   43.9500 C.3       1 GDP200      0.0000 
     16 O2'        11.9530   -1.3920   44.4850 O.3       1 GDP200      0.0000 
     17 C1'        10.8780   -3.0600   43.0540 C.3       1 GDP200      0.0000 
     18 N9         11.1230   -2.7120   41.6240 N.pl3     1 GDP200      0.0000 
     19 C8         10.4610   -1.8970   40.7700 C.2       1 GDP200      0.0000 
     20 N7         10.9890   -1.8490   39.5710 N.2       1 GDP200      0.0000 
     21 C5         12.0770   -2.6980   39.6380 C.2       1 GDP200      0.0000 
     22 C6         13.0520   -3.0720   38.6660 C.2       1 GDP200      0.0000 
     23 O6         13.1120   -2.6750   37.5200 O.2       1 GDP200      0.0000 
     24 N1         14.0250   -4.0110   39.1670 N.am      1 GDP200      0.0000 
     25 C2         14.0580   -4.5340   40.4730 C.2       1 GDP200      0.0000 
     26 N2         15.0370   -5.3990   40.7630 N.pl3     1 GDP200      0.0000 
     27 N3         13.1320   -4.1690   41.4120 N.2       1 GDP200      0.0000 
     28 C4         12.1910   -3.2650   40.9120 C.2       1 GDP200      0.0000 
     29 H           6.9965   -3.7619   43.1945 H         1 GDP200      0.0000 
     30 H           6.8289   -2.7696   44.6530 H         1 GDP200      0.0000 
     31 H           8.7082   -4.2314   44.9600 H         1 GDP200      0.0000 
     32 H           9.1093   -1.5668   45.3057 H         1 GDP200      0.0000 
     33 H          10.2057   -1.0980   43.3557 H         1 GDP200      0.0000 
     34 H          11.7705   -3.6146   43.4204 H         1 GDP200      0.0000 
     35 H           9.6414   -1.3848   41.0508 H         1 GDP200      0.0000 
     36 H          14.7700   -4.3244   38.4861 H         1 GDP200      0.0000 
     37 H          15.6524   -5.6353   40.0111 H         1 GDP200      0.0000 
     38 H          15.0654   -5.7315   41.7057 H         1 GDP200      0.0000 
     39 H          11.2908   -2.6400   46.1139 H         1 GDP200      0.0000 
     40 H          11.7819   -0.4374   44.7290 H         1 GDP200      0.0000 
@<TRIPOS>BOND
     1    2    1 ar   
     2    3    1 ar   
     3    4    1 ar   
     4    5    1 1    
     5    6    5 1    
     6    7    6 ar   
     7    8    6 ar   
     8    9    6 1    
     9   10    9 1    
    10   11   10 1    
    11   29   10 1    
    12   30   10 1    
    13   12   11 1    
    14   13   11 1    
    15   31   11 1    
    16   17   12 1    
    17   14   13 1    
    18   15   13 1    
    19   32   13 1    
    20   39   14 1    
    21   16   15 1    
    22   17   15 1    
    23   33   15 1    
    24   40   16 1    
    25   18   17 1    
    26   34   17 1    
    27   19   18 1    
    28   28   18 1    
    29   20   19 2    
    30   35   19 1    
    31   21   20 1    
    32   22   21 1    
    33   28   21 2    
    34   23   22 2    
    35   24   22 am   
    36   25   24 1    
    37   36   24 1    
    38   26   25 1    
    39   27   25 2    
    40   37   26 1    
    41   38   26 1    
    42   28   27 1    
@<TRIPOS>SUBSTRUCTURE
     1 GDP200      1 GROUP   
@<TRIPOS>SET

