#    Name: 3ii4_3II_1_INTS_M
#    Modification time : Tue Mar 25 16:34:56 2014

@<TRIPOS>MOLECULE
3ii4_3II_1_INTS_M
   80     0     6     0     0
SMALL
NO_CHARGES


@<TRIPOS>ATOM
      1 CA        -20.9460    7.0480   36.2150 C.3       2 GLC5        0.0000 
      2 CA        -21.9180    5.0430   36.1550 C.3       6 GLL5        0.0000 
      3 CA        -19.9740    9.0530   36.2750 C.3       4 GLP5        0.0000 
      4 CA        -21.2205    4.0680   37.9315 C.3       2 GLC5        0.0000 
      5 CA        -20.5230    3.0930   39.7080 C.3       4 GLP5        0.0000 
      6 CA        -20.1765    5.3125   36.6925 C.3       2 GLC5        0.0000 
      7 CA        -18.4350    5.5820   37.2300 C.3       4 GLP5        0.0000 
      8 CA        -24.3665   -0.9360   32.2325 C.3       2 GLC5        0.0000 
      9 CA        -25.8340   -1.9080   33.2460 C.3       6 GLL5        0.0000 
     10 CA        -22.8990    0.0360   31.2190 C.3       4 GLP5        0.0000 
     11 CA        -27.1775   -0.1725   31.0775 C.3       2 GLC5        0.0000 
     12 CA        -26.4140   -0.4600   33.0870 C.3       6 GLL5        0.0000 
     13 CA        -27.9410    0.1150   29.0680 C.3       4 GLP5        0.0000 
     14 CA        -24.8390    0.3705   32.6110 C.3       2 GLC5        0.0000 
     15 CA        -23.2640    1.2010   32.1350 C.3       4 GLP5        0.0000 
     16 CA        -23.9905    1.2230   37.6485 C.3       2 GLC5        0.0000 
     17 CA        -22.9550   -0.3970   36.7140 C.3       6 GLL5        0.0000 
     18 CA        -25.0260    2.8430   38.5830 C.3       4 GLP5        0.0000 
     19 CA        -21.6480   -1.3630   35.8895 C.3       2 GLC5        0.0000 
     20 CA        -20.3410   -2.3290   35.0650 C.3       4 GLP5        0.0000 
     21 N         -27.2685   -2.2045   30.1590 N.am      1 SEC2        0.0000 
     22 N         -28.1070   -2.6220   31.3540 N.am      5 SEL2        0.0000 
     23 N         -26.4300   -1.7870   28.9640 N.am      3 SEP2        0.0000 
     24 CA        -25.3495   -4.5975   32.1810 C.3       2 GLC5        0.0000 
     25 CA        -26.8870   -5.4700   33.1430 C.3       6 GLL5        0.0000 
     26 CA        -23.8120   -3.7250   31.2190 C.3       4 GLP5        0.0000 
     27 CA        -24.6195   -4.1455   33.1815 C.3       2 GLC5        0.0000 
     28 CA        -25.4270   -4.5660   35.1440 C.3       6 GLL5        0.0000 
     29 CA        -27.0540   -4.7990   30.0355 C.3       2 GLC5        0.0000 
     30 CA        -28.6000   -5.5730   31.2880 C.3       6 GLL5        0.0000 
     31 CA        -25.5080   -4.0250   28.7830 C.3       4 GLP5        0.0000 
     32 CA        -31.3065   -3.7285   27.7205 C.3       2 GLC5        0.0000 
     33 CA        -32.2790   -3.7230   29.4810 C.3       6 GLL5        0.0000 
     34 CA        -30.3340   -3.7340   25.9600 C.3       4 GLP5        0.0000 
     35 CA        -38.9695   -1.0755   30.4225 C.3       2 GLC5        0.0000 
     36 CA        -38.3550   -2.3360   29.1380 C.3       6 GLL5        0.0000 
     37 CA        -39.5840    0.1850   31.7070 C.3       4 GLP5        0.0000 
     38 CA        -38.0060   -0.5955   28.3465 C.3       2 GLC5        0.0000 
     39 CA        -37.6570    1.1450   27.5550 C.3       4 GLP5        0.0000 
     40 CA        -34.0300   -3.2875   26.0330 C.3       2 GLC5        0.0000 
     41 CA        -34.0850   -5.1010   27.1490 C.3       6 GLL5        0.0000 
     42 CA        -33.9750   -1.4740   24.9170 C.3       4 GLP5        0.0000 
     43 CA        -35.6115   -6.2260   27.2320 C.3       2 GLC5        0.0000 
     44 CA        -37.1380   -7.3510   27.3150 C.3       4 GLP5        0.0000 
     45 CA        -34.1875   -5.0660   25.4070 C.3       2 GLC5        0.0000 
     46 CA        -34.2900   -5.0310   23.6650 C.3       4 GLP5        0.0000 
     47 CA        -32.2095   -4.4175   26.5545 C.3       2 GLC5        0.0000 
     48 CA        -25.4320    2.6095   36.7115 C.3       2 GLC5        0.0000 
     49 CA        -25.7410    1.7220   35.1450 C.3       6 GLL5        0.0000 
     50 CA        -26.5875    4.6892   35.0445 C.3       2 GLC5        0.0000 
     51 CA        -25.9350    3.0300   34.5350 C.3       6 GLL5        0.0000 
     52 CA        -27.7930    5.9000   35.6180 C.3       4 GLP5        0.0000 
     53 CA        -24.5510    1.7885   33.4875 C.3       2 GLC5        0.0000 
     54 CA        -24.4603    2.3010   37.0715 C.3       2 GLC5        0.0000 
     55 CA        -24.4310    1.2770   35.6420 C.3       6 GLL5        0.0000 
     56 CA        -23.5793    1.4800   33.8475 C.3       2 GLC5        0.0000 
     57 CA        -25.1032   -3.0873   32.3043 C.3       2 GLC5        0.0000 
     58 CA        -24.5978    3.2917   36.6130 C.3       2 GLC5        0.0000 
     59 CA        -23.5100    3.5540   34.8790 C.3       6 GLL5        0.0000 
     60 CA        -23.7168    2.4707   33.3890 C.3       2 GLC5        0.0000 
     61 CA        -23.6388    4.7443   33.0585 C.3       2 GLC5        0.0000 
     62 CA        -23.1080    5.7480   31.4740 C.3       4 GLP5        0.0000 
     63 CA        -26.1372   -5.2700   36.9007 C.3       2 GLC5        0.0000 
     64 CA        -27.1530   -5.3090   38.5440 C.3       4 GLP5        0.0000 
     65 CA        -25.8907   -4.5003   37.6325 C.3       2 GLC5        0.0000 
     66 CA        -25.0630   -3.5550   36.1620 C.3       6 GLL5        0.0000 
     67 CA        -25.4710   -5.4815   37.7570 C.3       2 GLC5        0.0000 
     68 CA        -23.6340   -5.1360   37.4470 C.3       6 GLL5        0.0000 
     69 CA        -22.1600   -5.0450   36.3091 C.3       2 GLC5        0.0000 
     70 CA        -23.9440   -6.1720   36.4930 C.3       6 GLL5        0.0000 
     71 CA        -20.3910   -4.7630   35.6900 C.3       4 GLP5        0.0000 
     72 CA        -34.6425   -2.3293   27.3625 C.3       2 GLC5        0.0000 
     73 CA        -33.7960   -3.3840   29.3910 C.3       6 GLL5        0.0000 
     74 CA        -35.0520   -0.9750   25.8570 C.3       4 GLP5        0.0000 
     75 CA        -36.1983   -0.6772   28.6852 C.3       2 GLC5        0.0000 
     76 CA        -36.6780   -2.7300   29.2250 C.3       6 GLL5        0.0000 
     77 CA        -36.1320    1.0780   27.6320 C.3       4 GLP5        0.0000 
     78 CA        -35.7175   -2.0830   27.3038 C.3       2 GLC5        0.0000 
     79 CA        -36.2585   -5.5842   27.8128 C.3       2 GLC5        0.0000 
     80 CA        -36.0880   -3.6520   28.2760 C.3       6 GLL5        0.0000 
@<TRIPOS>BOND
@<TRIPOS>SUBSTRUCTURE
     1 SEC2       21 GROUP        1 X    SEC  0     ROOT SEC X 2
     2 GLC5        1 GROUP        1 X    GLC  0     **** GLC X 6
     3 SEP2       23 GROUP        1 Y    SEP  0     ROOT SEP Y 9
     4 GLP5        3 GROUP        1 Y    GLP  0     **** GLP Y 13
     5 SEL2       22 GROUP        1 Z    SEL  0     ROOT SEL Z 16
     6 GLL5        2 GROUP        1 Z    GLL  0     **** GLL Z 20
@<TRIPOS>SET

