#    Name: 3ii4_3II_1_ligand
#    Modification time : Tue Mar 25 16:34:57 2014

@<TRIPOS>MOLECULE
3ii4_3II_1_ligand
   77    81     1     0     0
SMALL
NO_CHARGES


@<TRIPOS>ATOM
      1 C1        -25.9350    3.0300   34.5350 C.ar      1 3II465      0.0000 
      2 C2        -25.7410    1.7220   35.1450 C.ar      1 3II465      0.0000 
      3 C3        -26.9760    0.8000   35.2660 C.2       1 3II465      0.0000 
      4 C4        -24.4310    1.2770   35.6420 C.ar      1 3II465      0.0000 
      5 O5        -22.4250    4.3400   34.8040 O.3       1 3II465      0.0000 
      6 C6        -21.9180    5.0430   36.1550 C.3       1 3II465      0.0000 
      7 O7        -27.7120    0.9690   36.2460 O.2       1 3II465      0.0000 
      8 N8        -27.2460   -0.1740   34.3080 N.am      1 3II465      0.0000 
      9 C9        -25.8340   -1.9080   33.2460 C.3       1 3II465      0.0000 
     10 C10       -26.4140   -0.4600   33.0870 C.3       1 3II465      0.0000 
     11 C11       -28.4550   -1.0490   34.4410 C.3       1 3II465      0.0000 
     12 C12       -26.9550   -2.9910   33.5330 C.3       1 3II465      0.0000 
     13 C13       -27.9910   -2.5200   34.6460 C.3       1 3II465      0.0000 
     14 C14       -27.6450   -3.3820   32.2020 C.2       1 3II465      0.0000 
     15 C15       -23.3580    2.2410   35.4780 C.ar      1 3II465      0.0000 
     16 C16       -23.5100    3.5540   34.8790 C.ar      1 3II465      0.0000 
     17 O17       -24.2640    0.0300   36.2220 O.3       1 3II465      0.0000 
     18 C18       -22.9550   -0.3970   36.7140 C.3       1 3II465      0.0000 
     19 C19       -24.8290    3.9270   34.4070 C.ar      1 3II465      0.0000 
     20 N20       -26.3200   -4.3540   33.9670 N.3       1 3II465      0.0000 
     21 N21       -27.6240   -4.7720   32.0750 N.am      1 3II465      0.0000 
     22 O22       -28.1070   -2.6220   31.3540 O.2       1 3II465      0.0000 
     23 C23       -26.8870   -5.4700   33.1430 C.3       1 3II465      0.0000 
     24 C24       -25.4270   -4.5660   35.1440 C.ar      1 3II465      0.0000 
     25 C25       -28.6000   -5.5730   31.2880 C.3       1 3II465      0.0000 
     26 C26       -24.8160   -5.8960   35.3710 C.ar      1 3II465      0.0000 
     27 C27       -25.0630   -3.5550   36.1620 C.ar      1 3II465      0.0000 
     28 C28       -24.1940   -3.8280   37.2800 C.ar      1 3II465      0.0000 
     29 C29       -29.9020   -5.4970   31.6750 C.2       1 3II465      0.0000 
     30 C30       -23.6340   -5.1360   37.4470 C.ar      1 3II465      0.0000 
     31 C31       -23.9440   -6.1720   36.4930 C.ar      1 3II465      0.0000 
     32 O32       -30.2440   -5.5730   32.8420 O.2       1 3II465      0.0000 
     33 N33       -30.7980   -5.3430   30.7490 N.am      1 3II465      0.0000 
     34 C34       -31.6820   -4.2820   30.7920 C.3       1 3II465      0.0000 
     35 C35       -32.2790   -3.7230   29.4810 C.3       1 3II465      0.0000 
     36 C36       -33.7960   -3.3840   29.3910 C.ar      1 3II465      0.0000 
     37 C37       -34.4420   -2.4580   30.3280 C.ar      1 3II465      0.0000 
     38 C38       -35.8510   -2.1350   30.2520 C.ar      1 3II465      0.0000 
     39 C39       -36.6780   -2.7300   29.2250 C.ar      1 3II465      0.0000 
     40 CL40      -38.3550   -2.3360   29.1380 Cl        1 3II465      0.0000 
     41 C41       -36.0880   -3.6520   28.2760 C.ar      1 3II465      0.0000 
     42 C42       -34.6700   -3.9830   28.3450 C.ar      1 3II465      0.0000 
     43 CL43      -34.0850   -5.1010   27.1490 Cl        1 3II465      0.0000 
     44 H         -26.8534    3.2920   34.2067 H         1 3II465      0.0000 
     45 H         -25.1286   -1.9183   34.0727 H         1 3II465      0.0000 
     46 H         -25.3168   -2.1850   32.3311 H         1 3II465      0.0000 
     47 H         -25.5915    0.2250   33.0182 H         1 3II465      0.0000 
     48 H         -27.0181   -0.4361   32.2010 H         1 3II465      0.0000 
     49 H         -29.0570   -1.0051   33.5444 H         1 3II465      0.0000 
     50 H         -29.0440   -0.7564   35.2988 H         1 3II465      0.0000 
     51 H         -28.8522   -3.1800   34.6044 H         1 3II465      0.0000 
     52 H         -27.5102   -2.6159   35.6148 H         1 3II465      0.0000 
     53 H         -22.4088    1.9700   35.8153 H         1 3II465      0.0000 
     54 H         -24.9606    4.8420   33.9799 H         1 3II465      0.0000 
     55 H         -27.5511   -6.0580   33.7399 H         1 3II465      0.0000 
     56 H         -26.0922   -6.0565   32.7341 H         1 3II465      0.0000 
     57 H         -28.2216   -6.6460   31.2920 H         1 3II465      0.0000 
     58 H         -28.4665   -5.2733   30.1986 H         1 3II465      0.0000 
     59 H         -25.0270   -6.6395   34.7009 H         1 3II465      0.0000 
     60 H         -25.4598   -2.6098   36.0524 H         1 3II465      0.0000 
     61 H         -23.9825   -3.0936   37.9436 H         1 3II465      0.0000 
     62 H         -23.0247   -5.3358   38.2276 H         1 3II465      0.0000 
     63 H         -23.5507   -7.0984   36.6065 H         1 3II465      0.0000 
     64 H         -30.8825   -6.0115   29.9428 H         1 3II465      0.0000 
     65 H         -31.2280   -3.3772   31.3273 H         1 3II465      0.0000 
     66 H         -32.5829   -4.5114   31.4606 H         1 3II465      0.0000 
     67 H         -32.0399   -4.4459   28.6504 H         1 3II465      0.0000 
     68 H         -31.7038   -2.7955   29.2011 H         1 3II465      0.0000 
     69 H         -33.8683   -2.0289   31.0594 H         1 3II465      0.0000 
     70 H         -36.2573   -1.4927   30.9177 H         1 3II465      0.0000 
     71 H         -36.6626   -4.0725   27.5567 H         1 3II465      0.0000 
     72 H         -21.6778    4.3712   36.8557 H         1 3II465      0.0000 
     73 H         -21.1067    5.6063   35.9987 H         1 3II465      0.0000 
     74 H         -22.6176    5.6394   36.5484 H         1 3II465      0.0000 
     75 H         -22.2722   -0.4170   35.9837 H         1 3II465      0.0000 
     76 H         -22.6071    0.2155   37.4238 H         1 3II465      0.0000 
     77 H         -22.9882   -1.3149   37.1095 H         1 3II465      0.0000 
@<TRIPOS>BOND
     1    2    1 ar   
     2   19    1 ar   
     3   44    1 1    
     4    3    2 1    
     5    4    2 ar   
     6    7    3 2    
     7    8    3 am   
     8   15    4 ar   
     9   17    4 1    
    10    6    5 1    
    11   16    5 1    
    12   72    6 1    
    13   73    6 1    
    14   74    6 1    
    15   10    8 1    
    16   11    8 1    
    17   10    9 1    
    18   12    9 1    
    19   45    9 1    
    20   46    9 1    
    21   47   10 1    
    22   48   10 1    
    23   13   11 1    
    24   49   11 1    
    25   50   11 1    
    26   13   12 1    
    27   14   12 1    
    28   20   12 1    
    29   51   13 1    
    30   52   13 1    
    31   21   14 am   
    32   22   14 2    
    33   16   15 ar   
    34   53   15 1    
    35   19   16 ar   
    36   18   17 1    
    37   75   18 1    
    38   76   18 1    
    39   77   18 1    
    40   54   19 1    
    41   23   20 1    
    42   24   20 1    
    43   23   21 1    
    44   25   21 1    
    45   55   23 1    
    46   56   23 1    
    47   26   24 ar   
    48   27   24 ar   
    49   29   25 1    
    50   57   25 1    
    51   58   25 1    
    52   31   26 ar   
    53   59   26 1    
    54   28   27 ar   
    55   60   27 1    
    56   30   28 ar   
    57   61   28 1    
    58   32   29 2    
    59   33   29 am   
    60   31   30 ar   
    61   62   30 1    
    62   63   31 1    
    63   34   33 1    
    64   64   33 1    
    65   35   34 1    
    66   65   34 1    
    67   66   34 1    
    68   36   35 1    
    69   67   35 1    
    70   68   35 1    
    71   37   36 ar   
    72   42   36 ar   
    73   38   37 ar   
    74   69   37 1    
    75   39   38 ar   
    76   70   38 1    
    77   40   39 1    
    78   41   39 ar   
    79   42   41 ar   
    80   71   41 1    
    81   43   42 1    
@<TRIPOS>SUBSTRUCTURE
     1 3II465      1 GROUP   
@<TRIPOS>SET

