#    Name: 1q6s_214_1_INTS_M
#    Modification time : Mon Mar 24 23:10:48 2014

@<TRIPOS>MOLECULE
1q6s_214_1_INTS_M
  114     0     9     0     0
SMALL
NO_CHARGES


@<TRIPOS>ATOM
      1 CA         36.5870   47.6080   56.0555 C.3       3 GLC5        0.0000 
      2 CA         36.8250   48.1320   54.0150 C.3       9 GLL5        0.0000 
      3 CA         36.3490   47.0840   58.0960 C.3       6 GLP5        0.0000 
      4 CA         36.8665   46.0720   48.1360 C.3       3 GLC5        0.0000 
      5 CA         36.9200   47.2810   49.6020 C.3       9 GLL5        0.0000 
      6 CA         36.8130   44.8630   46.6700 C.3       6 GLP5        0.0000 
      7 CA         36.0920   46.9675   47.3285 C.3       3 GLC5        0.0000 
      8 CA         35.9390   47.9980   48.9350 C.3       9 GLL5        0.0000 
      9 CA         36.2450   45.9370   45.7220 C.3       6 GLP5        0.0000 
     10 CA         34.4195   47.0300   48.4485 C.3       3 GLC5        0.0000 
     11 CA         32.9000   46.0620   47.9620 C.3       6 GLP5        0.0000 
     12 CA         40.5020   47.9320   51.0695 C.3       3 GLC5        0.0000 
     13 CA         38.8610   47.1530   51.2860 C.3       9 GLL5        0.0000 
     14 CA         42.1430   48.7110   50.8530 C.3       6 GLP5        0.0000 
     15 CA         43.7640   44.1840   54.9670 C.3       3 GLC5        0.0000 
     16 CA         41.8050   44.4020   55.8190 C.3       9 GLL5        0.0000 
     17 CA         45.7230   43.9660   54.1150 C.3       6 GLP5        0.0000 
     18 CA         41.5440   43.2150   53.4190 C.3       3 GLC5        0.0000 
     19 CA         41.2280   44.8830   54.6630 C.3       9 GLL5        0.0000 
     20 CA         41.8600   41.5470   52.1750 C.3       6 GLP5        0.0000 
     21 N          42.6395   44.0335   52.6265 N.am      1 SEC2        0.0000 
     22 N          41.5840   44.9300   53.3390 N.am      7 SEL2        0.0000 
     23 N          43.6950   43.1370   51.9140 N.am      4 SEP2        0.0000 
     24 CA         33.7695   52.6385   49.8680 C.3       3 GLC5        0.0000 
     25 CA         34.2760   51.1810   49.0980 C.3       9 GLL5        0.0000 
     26 CA         33.2630   54.0960   50.6380 C.3       6 GLP5        0.0000 
     27 CA         33.6815   48.7790   50.0960 C.3       3 GLC5        0.0000 
     28 CA         33.6550   49.2170   48.3140 C.3       9 GLL5        0.0000 
     29 CA         33.7080   48.3410   51.8780 C.3       6 GLP5        0.0000 
     30 N          36.2825   48.6750   44.7100 N.am      1 SEC2        0.0000 
     31 N          35.7220   49.3790   45.9240 N.am      7 SEL2        0.0000 
     32 N          36.8430   47.9710   43.4960 N.am      4 SEP2        0.0000 
     33 N          34.9360   48.6040   45.2705 N.am      1 SEC2        0.0000 
     34 N          34.1500   47.8290   44.6170 N.am      4 SEP2        0.0000 
     35 NZ         35.6720   52.9250   47.0965 N.4       2 LYC4        0.0000 
     36 NZ         36.3200   51.5660   46.8170 N.4       8 LYL4        0.0000 
     37 NZ         33.9090   54.6870   46.7820 N.4       5 LYP4        0.0000 
     38 N          37.1585   52.5720   46.1490 N.am      1 SEC2        0.0000 
     39 N          36.3200   51.5660   46.8170 N.am      7 SEL2        0.0000 
     40 N          37.9970   53.5780   45.4810 N.am      4 SEP2        0.0000 
     41 N          37.6825   51.3355   46.6620 N.am      1 SEC2        0.0000 
     42 N          39.0450   51.1050   46.5070 N.am      4 SEP2        0.0000 
     43 N          35.6720   52.9250   47.0965 N.am      1 SEC2        0.0000 
     44 N          35.0240   54.2840   47.3760 N.am      4 SEP2        0.0000 
     45 NZ         34.5110   52.7470   46.7190 N.4       2 LYC4        0.0000 
     46 NZ         33.9980   51.2100   46.0620 N.4       8 LYL4        0.0000 
     47 N          33.1725   50.7160   44.9660 N.am      1 SEC2        0.0000 
     48 N          33.9980   51.2100   46.0620 N.am      7 SEL2        0.0000 
     49 N          32.3470   50.2220   43.8700 N.am      4 SEP2        0.0000 
     50 N          33.6175   52.5325   46.0290 N.am      1 SEC2        0.0000 
     51 N          33.2370   53.8550   45.9960 N.am      4 SEP2        0.0000 
     52 N          34.5110   52.7470   46.7190 N.am      1 SEC2        0.0000 
     53 CA         41.0100   37.9800   46.5745 C.3       3 GLC5        0.0000 
     54 CA         40.0030   36.9200   47.4640 C.3       9 GLL5        0.0000 
     55 CA         42.0170   39.0400   45.6850 C.3       6 GLP5        0.0000 
     56 CA         39.1520   33.6315   45.0675 C.3       3 GLC5        0.0000 
     57 CA         38.7790   35.0630   46.3870 C.3       9 GLL5        0.0000 
     58 CA         39.5250   32.2000   43.7480 C.3       6 GLP5        0.0000 
     59 CA         38.2090   38.8130   46.3490 C.3       3 GLC5        0.0000 
     60 CA         37.5320   38.1310   48.2440 C.3       9 GLL5        0.0000 
     61 CA         38.8860   39.4950   44.4540 C.3       6 GLP5        0.0000 
     62 CA         38.8180   37.9220   45.8085 C.3       3 GLC5        0.0000 
     63 CA         38.7500   36.3490   47.1630 C.3       9 GLL5        0.0000 
     64 NZ         33.4105   37.2965   50.2435 N.4       2 LYC4        0.0000 
     65 NZ         34.4720   36.9860   49.4580 N.4       8 LYL4        0.0000 
     66 NZ         31.0480   37.8060   51.1940 N.4       5 LYP4        0.0000 
     67 N          33.4105   37.2965   50.2435 N.am      1 SEC2        0.0000 
     68 N          34.4720   36.9860   49.4580 N.am      7 SEL2        0.0000 
     69 N          32.3490   37.6070   51.0290 N.am      4 SEP2        0.0000 
     70 NZ         33.0615   38.7175   46.6675 N.4       2 LYC4        0.0000 
     71 NZ         33.5580   38.7690   48.0350 N.4       8 LYL4        0.0000 
     72 NZ         32.1060   39.7120   44.6190 N.4       5 LYP4        0.0000 
     73 N          32.9535   38.1880   49.5320 N.am      1 SEC2        0.0000 
     74 N          33.5580   38.7690   48.0350 N.am      7 SEL2        0.0000 
     75 N          33.0615   38.7175   46.6675 N.am      1 SEC2        0.0000 
     76 N          32.5650   38.6660   45.3000 N.am      4 SEP2        0.0000 
     77 CA         34.6715   48.2010   55.0080 C.3       3 GLC5        0.0000 
     78 CA         36.4770   49.2680   54.7850 C.3       9 GLL5        0.0000 
     79 CA         32.6920   47.7020   55.6160 C.3       6 GLP5        0.0000 
     80 CA         37.2526   48.9993   56.6213 C.3       3 GLC5        0.0000 
     81 CA         37.1820   48.3480   58.3450 C.3       6 GLP5        0.0000 
     82 CA         38.0237   49.2463   48.8390 C.3       3 GLC5        0.0000 
     83 CA         37.6500   49.3180   50.7100 C.3       9 GLL5        0.0000 
     84 CA         38.8940   48.7980   47.3020 C.3       6 GLP5        0.0000 
     85 CA         37.3792   48.7482   48.1702 C.3       3 GLC5        0.0000 
     86 CA         35.7900   49.3990   49.1420 C.3       9 GLL5        0.0000 
     87 CA         40.0892   42.1220   51.9660 C.3       3 GLC5        0.0000 
     88 CA         38.3160   43.2940   52.1410 C.3       9 GLL5        0.0000 
     89 CA         39.0415   44.3368   50.3738 C.3       3 GLC5        0.0000 
     90 CA         40.2440   44.8670   48.7260 C.3       6 GLP5        0.0000 
     91 CA         38.3342   44.1875   49.6025 C.3       3 GLC5        0.0000 
     92 CA         36.4180   44.1010   50.8580 C.3       9 GLL5        0.0000 
     93 CA         36.6187   44.1855   48.5745 C.3       3 GLC5        0.0000 
     94 CA         39.0470   43.4317   49.7920 C.3       3 GLC5        0.0000 
     95 CA         37.3790   41.8930   50.3430 C.3       9 GLL5        0.0000 
     96 CA         38.1045   42.6266   53.7311 C.3       3 GLC5        0.0000 
     97 CA         38.3210   42.1000   51.3730 C.3       9 GLL5        0.0000 
     98 CA         38.1290   42.3000   55.7650 C.3       6 GLP5        0.0000 
     99 CA         39.1762   46.1197   49.6980 C.3       3 GLC5        0.0000 
    100 CA         38.5012   48.0853   48.9860 C.3       3 GLC5        0.0000 
    101 CA         39.7960   43.3865   56.1010 C.3       3 GLC5        0.0000 
    102 CA         39.3582   43.7597   55.2190 C.3       3 GLC5        0.0000 
    103 CA         37.9535   46.2610   57.3042 C.3       3 GLC5        0.0000 
    104 CA         39.2630   45.6850   55.9180 C.3       9 GLL5        0.0000 
    105 CA         38.8435   43.8690   56.1388 C.3       3 GLC5        0.0000 
    106 CA         34.1003   50.1562   50.4982 C.3       3 GLC5        0.0000 
    107 CA         34.6930   50.0860   48.4190 C.3       9 GLL5        0.0000 
    108 CA         33.7160   49.6790   52.2380 C.3       6 GLP5        0.0000 
    109 CA         33.4680   48.8802   46.6478 C.3       3 GLC5        0.0000 
    110 CA         32.7620   48.1090   44.9290 C.3       6 GLP5        0.0000 
    111 CA         33.5370   47.8567   48.1643 C.3       3 GLC5        0.0000 
    112 CA         40.1246   39.6086   47.3784 C.3       3 GLC5        0.0000 
    113 CA         40.0190   38.1380   48.1740 C.3       9 GLL5        0.0000 
    114 CA         40.8550   40.4420   46.2080 C.3       6 GLP5        0.0000 
@<TRIPOS>BOND
@<TRIPOS>SUBSTRUCTURE
     1 SEC2       21 GROUP        1 X    SEC  0     ROOT SEC X 2
     2 LYC4       35 GROUP        1 X    LYC  0     **** LYC X 4
     3 GLC5        1 GROUP        1 X    GLC  0     **** GLC X 6
     4 SEP2       23 GROUP        1 Y    SEP  0     ROOT SEP Y 9
     5 LYP4       37 GROUP        1 Y    LYP  0     **** LYP Y 11
     6 GLP5        3 GROUP        1 Y    GLP  0     **** GLP Y 13
     7 SEL2       22 GROUP        1 Z    SEL  0     ROOT SEL Z 16
     8 LYL4       36 GROUP        1 Z    LYL  0     **** LYL Z 18
     9 GLL5        2 GROUP        1 Z    GLL  0     **** GLL Z 20
@<TRIPOS>SET

