#    Name: 1q6s_214_1_ligand
#    Modification time : Mon Mar 24 23:10:48 2014

@<TRIPOS>MOLECULE
1q6s_214_1_ligand
   80    86     1     0     0
SMALL
NO_CHARGES


@<TRIPOS>ATOM
      1 C1         37.4960   50.1540   55.1850 C.ar      1 214801      0.0000 
      2 C2         38.8430   49.9120   54.8350 C.ar      1 214801      0.0000 
      3 C3         39.1990   48.7860   54.0700 C.ar      1 214801      0.0000 
      4 C4         38.1990   47.8570   53.6340 C.ar      1 214801      0.0000 
      5 C5         36.8250   48.1320   54.0150 C.ar      1 214801      0.0000 
      6 C6         36.4770   49.2680   54.7850 C.ar      1 214801      0.0000 
      7 C10        36.9200   47.2810   49.6020 C.ar      1 214801      0.0000 
      8 C11        37.7920   47.9030   50.5060 C.ar      1 214801      0.0000 
      9 C12        37.6500   49.3180   50.7100 C.ar      1 214801      0.0000 
     10 C13        36.6570   50.0710   50.0420 C.ar      1 214801      0.0000 
     11 C14        35.7900   49.3990   49.1420 C.ar      1 214801      0.0000 
     12 C15        35.9390   47.9980   48.9350 C.ar      1 214801      0.0000 
     13 C20        38.3160   43.2940   52.1410 C.ar      1 214801      0.0000 
     14 C21        37.3620   44.3190   51.9020 C.ar      1 214801      0.0000 
     15 C22        36.4180   44.1010   50.8580 C.ar      1 214801      0.0000 
     16 C23        36.4310   42.9150   50.1000 C.ar      1 214801      0.0000 
     17 C24        37.3790   41.8930   50.3430 C.ar      1 214801      0.0000 
     18 C25        38.3210   42.1000   51.3730 C.ar      1 214801      0.0000 
     19 C30        38.5530   46.6010   52.7380 C.3       1 214801      0.0000 
     20 N31        39.7430   45.8830   53.3160 N.pl3     1 214801      0.0000 
     21 C32        37.3170   45.6190   52.7100 C.3       1 214801      0.0000 
     22 C35        38.8610   47.1530   51.2860 C.3       1 214801      0.0000 
     23 C40        41.1210   44.5440   57.0550 C.ar      1 214801      0.0000 
     24 C41        41.8050   44.4020   55.8190 C.ar      1 214801      0.0000 
     25 C42        41.2280   44.8830   54.6630 C.ar      1 214801      0.0000 
     26 C43        39.9470   45.5560   54.6830 C.ar      1 214801      0.0000 
     27 C44        39.2630   45.6850   55.9180 C.ar      1 214801      0.0000 
     28 C45        39.8530   45.1910   57.1070 C.ar      1 214801      0.0000 
     29 N46        41.5840   44.9300   53.3390 N.2       1 214801      0.0000 
     30 N47        40.7490   45.5070   52.4800 N.2       1 214801      0.0000 
     31 C52        34.6930   50.0860   48.4190 C.3       1 214801      0.0000 
     32 F53        34.2760   51.1810   49.0980 F         1 214801      0.0000 
     33 F54        33.6550   49.2170   48.3140 F         1 214801      0.0000 
     34 P55        35.2360   50.6020   46.7170 P.3       1 214801      0.0000 
     35 O56        35.7220   49.3790   45.9240 O.co2     1 214801      0.0000 
     36 O57        36.3200   51.5660   46.8170 O.co2     1 214801      0.0000 
     37 O58        33.9980   51.2100   46.0620 O.co2     1 214801      0.0000 
     38 C61        38.7510   40.0340   49.2760 C.ar      1 214801      0.0000 
     39 C62        40.0030   36.9200   47.4640 C.ar      1 214801      0.0000 
     40 C71        38.7790   35.0630   46.3870 C.3       1 214801      0.0000 
     41 C63        40.0190   38.1380   48.1740 C.ar      1 214801      0.0000 
     42 C64        38.7880   38.7910   48.5710 C.ar      1 214801      0.0000 
     43 C65        37.5320   38.1310   48.2440 C.ar      1 214801      0.0000 
     44 N66        37.5880   36.9430   47.5480 N.ar      1 214801      0.0000 
     45 C67        38.7500   36.3490   47.1630 C.ar      1 214801      0.0000 
     46 C68        37.4910   40.6050   49.6290 C.ar      1 214801      0.0000 
     47 C69        36.2580   39.9340   49.3030 C.ar      1 214801      0.0000 
     48 C70        36.2820   38.6940   48.6060 C.ar      1 214801      0.0000 
     49 P79        34.7410   37.8130   48.2180 P.3       1 214801      0.0000 
     50 O80        34.4720   36.9860   49.4580 O.co2     1 214801      0.0000 
     51 O81        34.8820   36.9220   47.0610 O.co2     1 214801      0.0000 
     52 O82        33.5580   38.7690   48.0350 O.co2     1 214801      0.0000 
     53 H          37.2588   50.9866   55.7379 H         1 214801      0.0000 
     54 H          39.5710   50.5686   55.1444 H         1 214801      0.0000 
     55 H          40.1754   48.6194   53.8175 H         1 214801      0.0000 
     56 H          36.0967   47.4751   53.7100 H         1 214801      0.0000 
     57 H          35.5123   49.4373   55.0416 H         1 214801      0.0000 
     58 H          37.0162   46.2623   49.4331 H         1 214801      0.0000 
     59 H          38.2935   49.7877   51.3623 H         1 214801      0.0000 
     60 H          36.5652   51.0630   50.2000 H         1 214801      0.0000 
     61 H          35.3015   47.5266   48.2779 H         1 214801      0.0000 
     62 H          39.0149   43.4193   52.8832 H         1 214801      0.0000 
     63 H          35.7175   44.8272   50.6601 H         1 214801      0.0000 
     64 H          35.7348   42.7849   49.3494 H         1 214801      0.0000 
     65 H          39.0234   41.3772   51.5733 H         1 214801      0.0000 
     66 H          37.0720   45.3694   53.7838 H         1 214801      0.0000 
     67 H          36.4250   46.2240   52.3728 H         1 214801      0.0000 
     68 H          39.7773   47.8034   51.3743 H         1 214801      0.0000 
     69 H          39.2160   46.2753   50.6744 H         1 214801      0.0000 
     70 H          41.5386   44.1810   57.9127 H         1 214801      0.0000 
     71 H          42.7187   43.9432   55.8057 H         1 214801      0.0000 
     72 H          38.3483   46.1326   55.9496 H         1 214801      0.0000 
     73 H          39.3746   45.2963   57.9990 H         1 214801      0.0000 
     74 H          39.6121   40.5051   49.5227 H         1 214801      0.0000 
     75 H          40.8595   36.4725   47.1811 H         1 214801      0.0000 
     76 H          40.9077   38.5824   48.4214 H         1 214801      0.0000 
     77 H          35.3742   40.3539   49.5750 H         1 214801      0.0000 
     78 H          39.2231   35.1755   45.4981 H         1 214801      0.0000 
     79 H          39.2771   34.3461   46.8748 H         1 214801      0.0000 
     80 H          37.8584   34.7136   46.2126 H         1 214801      0.0000 
@<TRIPOS>BOND
     1    2    1 ar   
     2    6    1 ar   
     3   53    1 1    
     4    3    2 ar   
     5   54    2 1    
     6    4    3 ar   
     7   55    3 1    
     8    5    4 ar   
     9   19    4 1    
    10    6    5 ar   
    11   56    5 1    
    12   57    6 1    
    13    8    7 ar   
    14   12    7 ar   
    15   58    7 1    
    16    9    8 ar   
    17   22    8 1    
    18   10    9 ar   
    19   59    9 1    
    20   11   10 ar   
    21   60   10 1    
    22   12   11 ar   
    23   31   11 1    
    24   61   12 1    
    25   14   13 ar   
    26   18   13 ar   
    27   62   13 1    
    28   15   14 ar   
    29   21   14 1    
    30   16   15 ar   
    31   63   15 1    
    32   17   16 ar   
    33   64   16 1    
    34   18   17 ar   
    35   46   17 1    
    36   65   18 1    
    37   20   19 1    
    38   21   19 1    
    39   22   19 1    
    40   26   20 1    
    41   30   20 1    
    42   66   21 1    
    43   67   21 1    
    44   68   22 1    
    45   69   22 1    
    46   24   23 ar   
    47   28   23 ar   
    48   70   23 1    
    49   25   24 ar   
    50   71   24 1    
    51   26   25 ar   
    52   29   25 1    
    53   27   26 ar   
    54   28   27 ar   
    55   72   27 1    
    56   73   28 1    
    57   30   29 2    
    58   32   31 1    
    59   33   31 1    
    60   34   31 1    
    61   35   34 ar   
    62   36   34 ar   
    63   37   34 ar   
    64   42   38 ar   
    65   46   38 ar   
    66   74   38 1    
    67   41   39 ar   
    68   45   39 ar   
    69   75   39 1    
    70   45   40 1    
    71   78   40 1    
    72   79   40 1    
    73   80   40 1    
    74   42   41 ar   
    75   76   41 1    
    76   43   42 ar   
    77   44   43 ar   
    78   48   43 ar   
    79   45   44 ar   
    80   47   46 ar   
    81   48   47 ar   
    82   77   47 1    
    83   49   48 1    
    84   50   49 ar   
    85   51   49 ar   
    86   52   49 ar   
@<TRIPOS>SUBSTRUCTURE
     1 214801      1 GROUP   
@<TRIPOS>SET

