#    Name: 3pfi_ADP_1_INTS_M
#    Modification time : Tue Mar 25 06:30:29 2014

@<TRIPOS>MOLECULE
3pfi_ADP_1_INTS_M
   70     0    12     0     0
SMALL
NO_CHARGES


@<TRIPOS>ATOM
      1 N          31.5385    9.4040  153.3010 N.am      2 SEC2        0.0000 
      2 N          31.0710    8.2470  152.8530 N.am     10 SEL2        0.0000 
      3 N          32.0060   10.5610  153.7490 N.am      6 SEP2        0.0000 
      4 N          30.8660    8.4300  154.1520 N.am      2 SEC2        0.0000 
      5 N          30.6610    8.6130  155.4510 N.am      6 SEP2        0.0000 
      6 NZ         30.8720    4.2000  151.9940 N.4       3 LYC4        0.0000 
      7 NZ         30.3710    5.9680  152.0440 N.4      11 LYL4        0.0000 
      8 NZ         31.3730    2.4320  151.9440 N.4       7 LYP4        0.0000 
      9 N          30.3920    5.4805  150.5150 N.am      2 SEC2        0.0000 
     10 N          30.3710    5.9680  152.0440 N.am     10 SEL2        0.0000 
     11 N          30.4130    4.9930  148.9860 N.am      6 SEP2        0.0000 
     12 NZ         29.4680    8.2355  149.8075 N.4       3 LYC4        0.0000 
     13 NZ         30.6820    7.8450  150.3730 N.4      11 LYL4        0.0000 
     14 NZ         28.2540    8.6260  149.2420 N.4       7 LYP4        0.0000 
     15 N          31.4660    7.3290  149.1100 N.am      2 SEC2        0.0000 
     16 N          30.6820    7.8450  150.3730 N.am     10 SEL2        0.0000 
     17 N          32.2500    6.8130  147.8470 N.am      6 SEP2        0.0000 
     18 N          32.1950    8.2150  149.8190 N.am      2 SEC2        0.0000 
     19 N          33.7080    8.5850  149.2650 N.am      6 SEP2        0.0000 
     20 N          31.6230    9.2265  150.6975 N.am      2 SEC2        0.0000 
     21 N          32.5640   10.6080  151.0220 N.am      6 SEP2        0.0000 
     22 N          29.4680    8.2355  149.8075 N.am      2 SEC2        0.0000 
     23 N          28.2540    8.6260  149.2420 N.am      6 SEP2        0.0000 
     24 N          34.3035    9.3915  153.8340 N.am      2 SEC2        0.0000 
     25 N          34.0930    8.1890  153.1060 N.am     10 SEL2        0.0000 
     26 N          34.5140   10.5940  154.5620 N.am      6 SEP2        0.0000 
     27 N          35.3995    8.5570  153.3695 N.am      2 SEC2        0.0000 
     28 N          36.7060    8.9250  153.6330 N.am      6 SEP2        0.0000 
     29 N          32.3335    4.6495  153.2775 N.am      2 SEC2        0.0000 
     30 N          33.1790    5.8470  153.7680 N.am     10 SEL2        0.0000 
     31 N          31.4880    3.4520  152.7870 N.am      6 SEP2        0.0000 
     32 N          33.1650    7.7260  150.3840 N.am      2 SEC2        0.0000 
     33 N          32.6220    6.8670  151.5030 N.am     10 SEL2        0.0000 
     34 CA         33.4060    4.7085  150.2750 C.3       4 GLC5        0.0000 
     35 CA         34.9790    4.7500  151.6210 C.3      12 GLL5        0.0000 
     36 CA         31.8330    4.6670  148.9290 C.3       8 GLP5        0.0000 
     37 CA         34.6360    3.0915  150.4400 C.3       4 GLC5        0.0000 
     38 CA         34.2930    1.4330  149.2590 C.3       8 GLP5        0.0000 
     39 CA         36.0600    2.7430  150.1895 C.3       4 GLC5        0.0000 
     40 CA         36.4130    4.2270  151.6500 C.3      12 GLL5        0.0000 
     41 CA         35.7070    1.2590  148.7290 C.3       8 GLP5        0.0000 
     42 CA         37.9275    5.2570  149.1005 C.3       4 GLC5        0.0000 
     43 CA         38.2120    5.5620  150.9230 C.3      12 GLL5        0.0000 
     44 CA         37.6430    4.9520  147.2780 C.3       8 GLP5        0.0000 
     45 CA         38.0600    7.3365  147.7305 C.3       4 GLC5        0.0000 
     46 CA         38.8520    8.6500  149.1480 C.3      12 GLL5        0.0000 
     47 CA         37.2680    6.0230  146.3130 C.3       8 GLP5        0.0000 
     48 CA         40.7755    9.7450  150.6415 C.3       4 GLC5        0.0000 
     49 CA         39.7870    9.5490  148.6760 C.3      12 GLL5        0.0000 
     50 CA         41.7640    9.9410  152.6070 C.3       8 GLP5        0.0000 
     51 O          40.1400   11.2320  147.0175 O.2       1 ALC1        0.0000 
     52 O          39.3800   10.6470  148.0050 O.2       9 ALL1        0.0000 
     53 O          40.9000   11.8170  146.0300 O.2       5 ALP1        0.0000 
     54 O          38.1360   10.4965  147.1895 O.2       1 ALC1        0.0000 
     55 O          36.8920   10.3460  146.3740 O.2       5 ALP1        0.0000 
     56 CA         41.6315    9.0840  151.0835 C.3       4 GLC5        0.0000 
     57 CA         41.4990    8.2270  149.5600 C.3      12 GLL5        0.0000 
     58 CA         41.4055    7.6965  147.7675 C.3       4 GLC5        0.0000 
     59 CA         41.3120    7.1660  145.9750 C.3       8 GLP5        0.0000 
     60 CA         40.5825    8.0530  151.5075 C.3       4 GLC5        0.0000 
     61 CA         39.2860    7.5320  149.8310 C.3      12 GLL5        0.0000 
     62 CA         41.8790    8.5740  153.1840 C.3       8 GLP5        0.0000 
     63 CA         38.4645    6.2420  148.5545 C.3       4 GLC5        0.0000 
     64 CA         38.7740    6.1175  154.1065 C.3       4 GLC5        0.0000 
     65 CA         37.1670    4.6890  152.8890 C.3      12 GLL5        0.0000 
     66 CA         39.9460    6.9770  155.5670 C.3       8 GLP5        0.0000 
     67 CA         40.3074    7.7409  147.6732 C.3       4 GLC5        0.0000 
     68 CA         38.6256    3.7466  151.3396 C.3       4 GLC5        0.0000 
     69 CA         38.0370    5.8270  152.4030 C.3      12 GLL5        0.0000 
     70 CA         39.7940    2.4170  150.7130 C.3       8 GLP5        0.0000 
@<TRIPOS>BOND
@<TRIPOS>SUBSTRUCTURE
     1 ALC1       51 GROUP        1 X    ALC  0     ROOT ALC X 1
     2 SEC2        1 GROUP        1 X    SEC  0     **** SEC X 2
     3 LYC4        6 GROUP        1 X    LYC  0     **** LYC X 4
     4 GLC5       34 GROUP        1 X    GLC  0     **** GLC X 6
     5 ALP1       53 GROUP        1 Y    ALP  0     ROOT ALP Y 8
     6 SEP2        3 GROUP        1 Y    SEP  0     **** SEP Y 9
     7 LYP4        8 GROUP        1 Y    LYP  0     **** LYP Y 11
     8 GLP5       36 GROUP        1 Y    GLP  0     **** GLP Y 13
     9 ALL1       52 GROUP        1 Z    ALL  0     ROOT ALL Z 15
    10 SEL2        2 GROUP        1 Z    SEL  0     **** SEL Z 16
    11 LYL4        7 GROUP        1 Z    LYL  0     **** LYL Z 18
    12 GLL5       35 GROUP        1 Z    GLL  0     **** GLL Z 20
@<TRIPOS>SET

