#    Name: 3pfi_ADP_1_ligand
#    Modification time : Tue Mar 25 06:30:30 2014

@<TRIPOS>MOLECULE
3pfi_ADP_1_ligand
   39    41     1     0     0
SMALL
NO_CHARGES


@<TRIPOS>ATOM
      1 PB         31.0690    7.2650  151.7160 P.3       1 ADP336      0.0000 
      2 O1B        31.0710    8.2470  152.8530 O.co2     1 ADP336      0.0000 
      3 O2B        30.3710    5.9680  152.0440 O.co2     1 ADP336      0.0000 
      4 O3B        30.6820    7.8450  150.3730 O.co2     1 ADP336      0.0000 
      5 PA         33.6880    6.7920  152.7070 P.3       1 ADP336      0.0000 
      6 O1A        34.0930    8.1890  153.1060 O.co2     1 ADP336      0.0000 
      7 O2A        33.1790    5.8470  153.7680 O.co2     1 ADP336      0.0000 
      8 O3A        32.6220    6.8670  151.5030 O.3       1 ADP336      0.0000 
      9 O5'        34.9640    6.1200  152.0060 O.3       1 ADP336      0.0000 
     10 C5'        34.9790    4.7500  151.6210 C.3       1 ADP336      0.0000 
     11 C4'        36.4130    4.2270  151.6500 C.3       1 ADP336      0.0000 
     12 O4'        37.1320    4.7180  150.5150 O.3       1 ADP336      0.0000 
     13 C3'        37.1670    4.6890  152.8890 C.3       1 ADP336      0.0000 
     14 O3'        37.9770    3.6320  153.4140 O.3       1 ADP336      0.0000 
     15 C2'        38.0370    5.8270  152.4030 C.3       1 ADP336      0.0000 
     16 O2'        39.3050    5.8400  153.0500 O.3       1 ADP336      0.0000 
     17 C1'        38.2120    5.5620  150.9230 C.3       1 ADP336      0.0000 
     18 N9         38.2030    6.8360  150.1770 N.pl3     1 ADP336      0.0000 
     19 C8         37.1160    7.4780  149.7340 C.2       1 ADP336      0.0000 
     20 N7         37.5080    8.6010  149.0950 N.2       1 ADP336      0.0000 
     21 C5         38.8520    8.6500  149.1480 C.ar      1 ADP336      0.0000 
     22 C6         39.7870    9.5490  148.6760 C.ar      1 ADP336      0.0000 
     23 N6         39.3800   10.6470  148.0050 N.pl3     1 ADP336      0.0000 
     24 N1         41.0980    9.3180  148.8950 N.ar      1 ADP336      0.0000 
     25 C2         41.4990    8.2270  149.5600 C.ar      1 ADP336      0.0000 
     26 N3         40.6130    7.3380  150.0250 N.ar      1 ADP336      0.0000 
     27 C4         39.2860    7.5320  149.8310 C.ar      1 ADP336      0.0000 
     28 H          34.5919    4.6064  150.6057 H         1 ADP336      0.0000 
     29 H          34.3833    4.1282  152.2991 H         1 ADP336      0.0000 
     30 H          36.3921    3.1501  151.6485 H         1 ADP336      0.0000 
     31 H          36.4670    5.0693  153.5881 H         1 ADP336      0.0000 
     32 H          37.4975    6.7391  152.5146 H         1 ADP336      0.0000 
     33 H          39.1579    5.0628  150.7882 H         1 ADP336      0.0000 
     34 H          36.1974    7.1908  149.8489 H         1 ADP336      0.0000 
     35 H          38.3933   10.7414  147.8729 H         1 ADP336      0.0000 
     36 H          40.1013   11.2686  147.6996 H         1 ADP336      0.0000 
     37 H          42.5268    8.0663  149.7193 H         1 ADP336      0.0000 
     38 H          38.8945    4.0224  153.4899 H         1 ADP336      0.0000 
     39 H          39.9347    6.2285  152.3773 H         1 ADP336      0.0000 
@<TRIPOS>BOND
     1    2    1 ar   
     2    3    1 ar   
     3    4    1 ar   
     4    8    1 1    
     5    6    5 ar   
     6    7    5 ar   
     7    8    5 1    
     8    9    5 1    
     9   10    9 1    
    10   11   10 1    
    11   28   10 1    
    12   29   10 1    
    13   12   11 1    
    14   13   11 1    
    15   30   11 1    
    16   17   12 1    
    17   14   13 1    
    18   15   13 1    
    19   31   13 1    
    20   38   14 1    
    21   16   15 1    
    22   17   15 1    
    23   32   15 1    
    24   39   16 1    
    25   18   17 1    
    26   33   17 1    
    27   19   18 1    
    28   27   18 1    
    29   20   19 2    
    30   34   19 1    
    31   21   20 1    
    32   22   21 ar   
    33   27   21 ar   
    34   23   22 1    
    35   24   22 ar   
    36   35   23 1    
    37   36   23 1    
    38   25   24 ar   
    39   26   25 ar   
    40   37   25 1    
    41   27   26 ar   
@<TRIPOS>SUBSTRUCTURE
     1 ADP336      1 GROUP   
@<TRIPOS>SET

