#    Name: 1wnt_NAP_3_INTS_M
#    Modification time : Tue Mar 25 09:11:32 2014

@<TRIPOS>MOLECULE
1wnt_NAP_3_INTS_M
   88     0     9     0     0
SMALL
NO_CHARGES


@<TRIPOS>ATOM
      1 CA         31.3955   37.8360   37.4990 C.3       3 GLC5        0.0000 
      2 CA         31.4980   35.9240   38.0910 C.3       9 GLL5        0.0000 
      3 CA         31.2930   39.7480   36.9070 C.3       6 GLP5        0.0000 
      4 CA         31.8775   33.9110   35.9265 C.3       3 GLC5        0.0000 
      5 CA         32.3970   35.0710   37.2220 C.3       9 GLL5        0.0000 
      6 CA         31.3580   32.7510   34.6310 C.3       6 GLP5        0.0000 
      7 CA         32.4085   38.4155   37.3865 C.3       3 GLC5        0.0000 
      8 CA         33.5240   37.0830   37.8660 C.3       9 GLL5        0.0000 
      9 CA         39.2670   40.4895   38.1380 C.3       3 GLC5        0.0000 
     10 CA         37.5310   39.5300   39.1620 C.3       9 GLL5        0.0000 
     11 CA         41.0030   41.4490   37.1140 C.3       6 GLP5        0.0000 
     12 CA         37.4630   41.6400   39.2455 C.3       3 GLC5        0.0000 
     13 CA         37.3950   43.7500   39.3290 C.3       6 GLP5        0.0000 
     14 N          38.4790   41.5200   38.2500 N.am      2 SEC2        0.0000 
     15 N          37.5410   40.3330   38.0590 N.am      8 SEL2        0.0000 
     16 N          39.4170   42.7070   38.4410 N.am      5 SEP2        0.0000 
     17 CA         35.5980   40.1670   35.3515 C.3       3 GLC5        0.0000 
     18 CA         36.5980   40.2640   37.0930 C.3       9 GLL5        0.0000 
     19 CA         34.5980   40.0700   33.6100 C.3       6 GLP5        0.0000 
     20 CA         37.3815   38.9820   36.3455 C.3       3 GLC5        0.0000 
     21 CA         38.1650   37.7000   35.5980 C.3       6 GLP5        0.0000 
     22 CA         36.6215   42.1385   37.5555 C.3       3 GLC5        0.0000 
     23 CA         36.6450   44.0130   38.0180 C.3       6 GLP5        0.0000 
     24 CA         36.8380   38.1150   36.9260 C.3       3 GLC5        0.0000 
     25 CA         35.5110   38.5300   38.2540 C.3       9 GLL5        0.0000 
     26 N          27.1195   31.4870   41.4860 N.am      2 SEC2        0.0000 
     27 N          27.0500   32.6880   41.7350 N.am      8 SEL2        0.0000 
     28 N          27.1890   30.2860   41.2370 N.am      5 SEP2        0.0000 
     29 N          26.2315   34.8705   38.9380 N.am      2 SEC2        0.0000 
     30 N          27.3740   34.5020   39.9390 N.am      8 SEL2        0.0000 
     31 N          25.0890   35.2390   37.9370 N.am      5 SEP2        0.0000 
     32 CA         28.8725   34.6805   42.8280 C.3       3 GLC5        0.0000 
     33 CA         27.9870   36.3730   41.8610 C.3       9 GLL5        0.0000 
     34 CA         29.7580   32.9880   43.7950 C.3       6 GLP5        0.0000 
     35 N          28.9270   38.8125   46.0640 N.am      2 SEC2        0.0000 
     36 N          28.5200   38.7870   44.6760 N.am      8 SEL2        0.0000 
     37 N          29.3340   38.8380   47.4520 N.am      5 SEP2        0.0000 
     38 CA         28.7075   37.2715   46.8570 C.3       3 GLC5        0.0000 
     39 CA         28.4340   36.2960   44.9430 C.3       9 GLL5        0.0000 
     40 CA         28.9810   38.2470   48.7710 C.3       6 GLP5        0.0000 
     41 N          29.1825   37.7790   46.8110 N.am      2 SEC2        0.0000 
     42 N          29.0310   36.7200   46.1700 N.am      8 SEL2        0.0000 
     43 O          28.8600   35.8385   47.1840 O.2       1 ALC1        0.0000 
     44 O          29.0310   36.7200   46.1700 O.2       7 ALL1        0.0000 
     45 O          28.6890   34.9570   48.1980 O.2       4 ALP1        0.0000 
     46 CA         25.8590   37.9290   44.5285 C.3       3 GLC5        0.0000 
     47 CA         26.9180   36.1510   45.0060 C.3       9 GLL5        0.0000 
     48 CA         24.8000   39.7070   44.0510 C.3       6 GLP5        0.0000 
     49 CA         25.3015   34.3440   43.1325 C.3       3 GLC5        0.0000 
     50 CA         26.5860   33.6980   44.7910 C.3       9 GLL5        0.0000 
     51 CA         24.0170   34.9900   41.4740 C.3       6 GLP5        0.0000 
     52 N          24.2275   30.1750   44.9925 N.am      2 SEC2        0.0000 
     53 N          25.6910   30.1310   44.8760 N.am      8 SEL2        0.0000 
     54 N          22.7640   30.2190   45.1090 N.am      5 SEP2        0.0000 
     55 CA         25.6225   35.8475   48.4745 C.3       3 GLC5        0.0000 
     56 CA         25.4280   34.8200   46.6400 C.3       9 GLL5        0.0000 
     57 CA         25.8170   36.8750   50.3090 C.3       6 GLP5        0.0000 
     58 CA         23.5405   35.9335   46.3660 C.3       3 GLC5        0.0000 
     59 CA         21.6530   37.0470   46.0920 C.3       6 GLP5        0.0000 
     60 N          38.3845   35.3845   36.9825 N.am      2 SEC2        0.0000 
     61 N          36.9660   35.0780   36.3100 N.am      8 SEL2        0.0000 
     62 N          39.8030   35.6910   37.6550 N.am      5 SEP2        0.0000 
     63 N          37.3260   34.3760   34.8205 N.am      2 SEC2        0.0000 
     64 N          37.6860   33.6740   33.3310 N.am      5 SEP2        0.0000 
     65 N          36.5660   33.7835   34.0375 N.am      2 SEC2        0.0000 
     66 N          35.4460   33.8930   34.7440 N.am      8 SEL2        0.0000 
     67 CA         38.4190   38.0965   38.2903 C.3       3 GLC5        0.0000 
     68 CA         36.4790   38.6020   39.2550 C.3       9 GLL5        0.0000 
     69 CA         39.8330   37.1270   37.3720 C.3       6 GLP5        0.0000 
     70 CA         34.5095   39.9005   39.4928 C.3       3 GLC5        0.0000 
     71 CA         33.0240   41.2350   40.2310 C.3       6 GLP5        0.0000 
     72 CA         36.7735   39.5860   41.2503 C.3       3 GLC5        0.0000 
     73 CA         36.5420   40.1060   43.2920 C.3       6 GLP5        0.0000 
     74 CA         25.8745   35.9000   41.9513 C.3       3 GLC5        0.0000 
     75 CA         26.3990   38.5468   43.7925 C.3       3 GLC5        0.0000 
     76 CA         27.4770   37.2470   42.9960 C.3       9 GLL5        0.0000 
     77 CA         30.1208   37.5980   44.6758 C.3       3 GLC5        0.0000 
     78 CA         28.5190   37.5260   44.0720 C.3       9 GLL5        0.0000 
     79 CA         31.7650   38.2850   44.8440 C.3       6 GLP5        0.0000 
     80 CA         29.0606   35.1105   45.0294 C.3       3 GLC5        0.0000 
     81 CA         30.4240   33.6900   45.3020 C.3       6 GLP5        0.0000 
     82 CA         28.0300   33.0413   44.3997 C.3       3 GLC5        0.0000 
     83 CA         23.8735   31.4830   47.1058 C.3       3 GLC5        0.0000 
     84 CA         25.1790   32.5180   46.3480 C.3       9 GLL5        0.0000 
     85 CA         22.7250   29.8800   47.4970 C.3       6 GLP5        0.0000 
     86 CA         23.7814   32.8101   45.0530 C.3       3 GLC5        0.0000 
     87 CA         24.8650   33.6540   47.0810 C.3       9 GLL5        0.0000 
     88 CA         22.3310   32.5410   43.6740 C.3       6 GLP5        0.0000 
@<TRIPOS>BOND
@<TRIPOS>SUBSTRUCTURE
     1 ALC1       43 GROUP        1 X    ALC  0     ROOT ALC X 1
     2 SEC2       14 GROUP        1 X    SEC  0     **** SEC X 2
     3 GLC5        1 GROUP        1 X    GLC  0     **** GLC X 6
     4 ALP1       45 GROUP        1 Y    ALP  0     ROOT ALP Y 8
     5 SEP2       16 GROUP        1 Y    SEP  0     **** SEP Y 9
     6 GLP5        3 GROUP        1 Y    GLP  0     **** GLP Y 13
     7 ALL1       44 GROUP        1 Z    ALL  0     ROOT ALL Z 15
     8 SEL2       15 GROUP        1 Z    SEL  0     **** SEL Z 16
     9 GLL5        2 GROUP        1 Z    GLL  0     **** GLL Z 20
@<TRIPOS>SET

