#    Name: 1wnt_NAP_3_ligand
#    Modification time : Tue Mar 25 09:11:32 2014

@<TRIPOS>MOLECULE
1wnt_NAP_3_ligand
   73    77     1     0     0
SMALL
NO_CHARGES


@<TRIPOS>ATOM
      1 PA         30.1930   32.6430   39.6190 P.3       1 NAP2245     0.0000 
      2 O1A        31.5430   32.3470   40.1660 O.co2     1 NAP2245     0.0000 
      3 O2A        29.4490   31.5470   38.9540 O.co2     1 NAP2245     0.0000 
      4 O5B        30.3340   33.9410   38.6900 O.3       1 NAP2245     0.0000 
      5 C5B        30.8200   35.1870   39.2220 C.3       1 NAP2245     0.0000 
      6 C4B        31.4980   35.9240   38.0910 C.3       1 NAP2245     0.0000 
      7 O4B        32.3140   37.0110   38.6180 O.3       1 NAP2245     0.0000 
      8 C3B        32.3970   35.0710   37.2220 C.3       1 NAP2245     0.0000 
      9 O3B        32.0360   35.1860   35.8340 O.3       1 NAP2245     0.0000 
     10 C2B        33.7750   35.6350   37.4680 C.3       1 NAP2245     0.0000 
     11 O2B        34.6270   35.5830   36.3160 O.3       1 NAP2245     0.0000 
     12 C1B        33.5240   37.0830   37.8660 C.3       1 NAP2245     0.0000 
     13 N9A        34.7080   37.5440   38.6250 N.pl3     1 NAP2245     0.0000 
     14 C8A        35.1690   37.0840   39.8070 C.2       1 NAP2245     0.0000 
     15 N7A        36.2830   37.6960   40.2040 N.2       1 NAP2245     0.0000 
     16 C5A        36.4790   38.6020   39.2550 C.ar      1 NAP2245     0.0000 
     17 C6A        37.5310   39.5300   39.1620 C.ar      1 NAP2245     0.0000 
     18 N6A        38.4980   39.6640   40.0710 N.pl3     1 NAP2245     0.0000 
     19 N1A        37.5410   40.3330   38.0590 N.ar      1 NAP2245     0.0000 
     20 C2A        36.5980   40.2640   37.0930 C.ar      1 NAP2245     0.0000 
     21 N3A        35.5940   39.3760   37.1890 N.ar      1 NAP2245     0.0000 
     22 C4A        35.5110   38.5300   38.2540 C.ar      1 NAP2245     0.0000 
     23 O3         29.3200   33.2370   40.8390 O.3       1 NAP2245     0.0000 
     24 PN         27.8480   33.8030   41.1600 P.3       1 NAP2245     0.0000 
     25 O1N        27.0500   32.6880   41.7350 O.co2     1 NAP2245     0.0000 
     26 O2N        27.3740   34.5020   39.9390 O.co2     1 NAP2245     0.0000 
     27 O5D        28.1150   34.9820   42.2410 O.3       1 NAP2245     0.0000 
     28 C5D        27.9870   36.3730   41.8610 C.3       1 NAP2245     0.0000 
     29 C4D        27.4770   37.2470   42.9960 C.3       1 NAP2245     0.0000 
     30 O4D        26.4460   36.5000   43.7020 O.3       1 NAP2245     0.0000 
     31 C3D        28.5190   37.5260   44.0720 C.3       1 NAP2245     0.0000 
     32 O3D        28.5200   38.7870   44.6760 O.3       1 NAP2245     0.0000 
     33 C2D        28.4340   36.2960   44.9430 C.3       1 NAP2245     0.0000 
     34 O2D        29.0310   36.7200   46.1700 O.3       1 NAP2245     0.0000 
     35 C1D        26.9180   36.1510   45.0060 C.3       1 NAP2245     0.0000 
     36 N1N        26.3020   34.8880   45.4910 N.pl3     1 NAP2245     0.0000 
     37 C2N        26.5860   33.6980   44.7910 C.ar      1 NAP2245     0.0000 
     38 C3N        26.0180   32.4910   45.2180 C.ar      1 NAP2245     0.0000 
     39 C7N        26.2700   31.1610   44.5210 C.2       1 NAP2245     0.0000 
     40 O7N        25.6910   30.1310   44.8760 O.2       1 NAP2245     0.0000 
     41 N7N        27.2860   31.1230   43.6660 N.am      1 NAP2245     0.0000 
     42 C4N        25.1790   32.5180   46.3480 C.ar      1 NAP2245     0.0000 
     43 C5N        24.8650   33.6540   47.0810 C.ar      1 NAP2245     0.0000 
     44 C6N        25.4280   34.8200   46.6400 C.ar      1 NAP2245     0.0000 
     45 P2B        35.6790   34.3660   36.1270 P.3       1 NAP2245     0.0000 
     46 O1X        35.3540   33.3700   37.1820 O.co2     1 NAP2245     0.0000 
     47 O2X        36.9660   35.0780   36.3100 O.co2     1 NAP2245     0.0000 
     48 O3X        35.4460   33.8930   34.7440 O.co2     1 NAP2245     0.0000 
     49 H          31.5455   35.0256   40.0144 H         1 NAP2245     0.0000 
     50 H          30.0081   35.8026   39.5990 H         1 NAP2245     0.0000 
     51 H          30.7252   36.3599   37.4447 H         1 NAP2245     0.0000 
     52 H          32.3683   34.0734   37.5811 H         1 NAP2245     0.0000 
     53 H          34.1991   35.1397   38.3203 H         1 NAP2245     0.0000 
     54 H          33.4019   37.6352   36.9640 H         1 NAP2245     0.0000 
     55 H          34.7151   36.3597   40.3228 H         1 NAP2245     0.0000 
     56 H          39.1872   40.3631   39.8805 H         1 NAP2245     0.0000 
     57 H          38.4468   39.0533   40.8612 H         1 NAP2245     0.0000 
     58 H          36.6531   40.9048   36.2703 H         1 NAP2245     0.0000 
     59 H          27.2928   36.4853   41.0062 H         1 NAP2245     0.0000 
     60 H          28.9603   36.7812   41.5276 H         1 NAP2245     0.0000 
     61 H          27.0878   38.1544   42.6311 H         1 NAP2245     0.0000 
     62 H          29.5133   37.3640   43.4976 H         1 NAP2245     0.0000 
     63 H          28.8678   35.5154   44.4657 H         1 NAP2245     0.0000 
     64 H          26.5689   36.9909   45.6903 H         1 NAP2245     0.0000 
     65 H          27.2027   33.7199   43.9778 H         1 NAP2245     0.0000 
     66 H          27.4196   30.2596   43.1795 H         1 NAP2245     0.0000 
     67 H          27.8255   31.9612   43.5861 H         1 NAP2245     0.0000 
     68 H          24.7575   31.5937   46.6574 H         1 NAP2245     0.0000 
     69 H          24.2623   33.6122   47.8820 H         1 NAP2245     0.0000 
     70 H          25.2370   35.7205   47.1351 H         1 NAP2245     0.0000 
     71 H          32.8142   35.6410   35.4012 H         1 NAP2245     0.0000 
     72 H          27.6100   39.1607   44.4962 H         1 NAP2245     0.0000 
     73 H          28.8110   35.9993   46.8274 H         1 NAP2245     0.0000 
@<TRIPOS>BOND
     1    2    1 ar   
     2    3    1 ar   
     3    4    1 1    
     4   23    1 1    
     5    5    4 1    
     6    6    5 1    
     7   49    5 1    
     8   50    5 1    
     9    7    6 1    
    10    8    6 1    
    11   51    6 1    
    12   12    7 1    
    13    9    8 1    
    14   10    8 1    
    15   52    8 1    
    16   71    9 1    
    17   11   10 1    
    18   12   10 1    
    19   53   10 1    
    20   45   11 1    
    21   13   12 1    
    22   54   12 1    
    23   14   13 1    
    24   22   13 1    
    25   15   14 2    
    26   55   14 1    
    27   16   15 1    
    28   17   16 ar   
    29   22   16 ar   
    30   18   17 1    
    31   19   17 ar   
    32   56   18 1    
    33   57   18 1    
    34   20   19 ar   
    35   21   20 ar   
    36   58   20 1    
    37   22   21 ar   
    38   24   23 1    
    39   25   24 ar   
    40   26   24 ar   
    41   27   24 1    
    42   28   27 1    
    43   29   28 1    
    44   59   28 1    
    45   60   28 1    
    46   30   29 1    
    47   31   29 1    
    48   61   29 1    
    49   35   30 1    
    50   32   31 1    
    51   33   31 1    
    52   62   31 1    
    53   72   32 1    
    54   34   33 1    
    55   35   33 1    
    56   63   33 1    
    57   73   34 1    
    58   36   35 1    
    59   64   35 1    
    60   37   36 ar   
    61   44   36 ar   
    62   38   37 ar   
    63   65   37 1    
    64   39   38 1    
    65   42   38 ar   
    66   40   39 2    
    67   41   39 am   
    68   66   41 1    
    69   67   41 1    
    70   43   42 ar   
    71   68   42 1    
    72   44   43 ar   
    73   69   43 1    
    74   70   44 1    
    75   46   45 ar   
    76   47   45 ar   
    77   48   45 ar   
@<TRIPOS>SUBSTRUCTURE
     1 NAP2245     1 GROUP   
@<TRIPOS>SET

