#    Name: 2vp2_DGT_1_INTS_M
#    Modification time : Tue Mar 25 02:19:43 2014

@<TRIPOS>MOLECULE
2vp2_DGT_1_INTS_M
   86     0    12     0     0
SMALL
NO_CHARGES


@<TRIPOS>ATOM
      1 N          -9.1560   22.8320   14.1390 N.am      2 SEC2        0.0000 
      2 N          -8.5340   22.5530   12.7530 N.am     10 SEL2        0.0000 
      3 N          -9.7780   23.1110   15.5250 N.am      6 SEP2        0.0000 
      4 N          -8.0475   23.6940   13.7400 N.am      2 SEC2        0.0000 
      5 N          -7.5610   24.8350   14.7270 N.am      6 SEP2        0.0000 
      6 NZ         -8.7670   22.3840    9.3590 N.4       3 LYC4        0.0000 
      7 NZ         -9.1980   21.7180   10.4290 N.4      11 LYL4        0.0000 
      8 NZ         -7.7930   23.1300    7.0740 N.4       7 LYP4        0.0000 
      9 N          -8.7670   22.3840    9.3590 N.am      2 SEC2        0.0000 
     10 N          -9.1980   21.7180   10.4290 N.am     10 SEL2        0.0000 
     11 N          -8.3360   23.0500    8.2890 N.am      6 SEP2        0.0000 
     12 NZ         -8.4540   19.3140   12.6560 N.4       3 LYC4        0.0000 
     13 NZ         -9.4910   20.2030   12.4840 N.4      11 LYL4        0.0000 
     14 NZ         -7.4170   18.4250   12.8280 N.4       7 LYP4        0.0000 
     15 N         -10.9130   20.0925   12.2720 N.am      2 SEC2        0.0000 
     16 N          -9.4910   20.2030   12.4840 N.am     10 SEL2        0.0000 
     17 N         -12.3350   19.9820   12.0600 N.am      6 SEP2        0.0000 
     18 N         -10.2740   20.4365   13.5215 N.am      2 SEC2        0.0000 
     19 N         -11.0570   20.6700   14.5590 N.am      6 SEP2        0.0000 
     20 N          -8.4540   19.3140   12.6560 N.am      2 SEC2        0.0000 
     21 N          -7.4170   18.4250   12.8280 N.am      6 SEP2        0.0000 
     22 NZ         -5.8190   24.0130   10.1450 N.4       3 LYC4        0.0000 
     23 NZ         -6.1530   22.9790   11.0820 N.4      11 LYL4        0.0000 
     24 NZ         -4.9130   24.7200    8.0570 N.4       7 LYP4        0.0000 
     25 N          -5.8190   24.0130   10.1450 N.am      2 SEC2        0.0000 
     26 N          -6.1530   22.9790   11.0820 N.am     10 SEL2        0.0000 
     27 N          -5.4850   25.0470    9.2080 N.am      6 SEP2        0.0000 
     28 NZ         -6.6675   21.5815    7.9325 N.4       3 LYC4        0.0000 
     29 NZ         -6.1430   21.0950    9.3250 N.4      11 LYL4        0.0000 
     30 N          -7.5200   20.0965    8.9320 N.am      2 SEC2        0.0000 
     31 N          -6.1430   21.0950    9.3250 N.am     10 SEL2        0.0000 
     32 N          -8.8970   19.0980    8.5390 N.am      6 SEP2        0.0000 
     33 N          -7.2395   22.0725    8.8070 N.am      2 SEC2        0.0000 
     34 N          -6.6675   21.5815    7.9325 N.am      2 SEC2        0.0000 
     35 N          -7.1920   22.0680    6.5400 N.am      6 SEP2        0.0000 
     36 N          -5.4035   22.2665    8.5570 N.am      2 SEC2        0.0000 
     37 N          -4.6640   23.4380    7.7890 N.am      6 SEP2        0.0000 
     38 NZ         -6.4165   18.4165   11.9150 N.4       3 LYC4        0.0000 
     39 NZ         -5.4160   18.4080   11.0020 N.4      11 LYL4        0.0000 
     40 NZ         -5.1155   17.0915   11.5365 N.4       3 LYC4        0.0000 
     41 NZ         -4.3900   15.6840   13.3380 N.4       7 LYP4        0.0000 
     42 N          -6.4165   18.4165   11.9150 N.am      2 SEC2        0.0000 
     43 N          -5.4160   18.4080   11.0020 N.am     10 SEL2        0.0000 
     44 N          -5.1155   17.0915   11.5365 N.am      2 SEC2        0.0000 
     45 N          -4.8150   15.7750   12.0710 N.am      6 SEP2        0.0000 
     46 NZ         -3.5825   17.9235   13.1490 N.4       3 LYC4        0.0000 
     47 NZ         -3.3540   19.1310   12.3650 N.4      11 LYL4        0.0000 
     48 N          -3.5825   17.9235   13.1490 N.am      2 SEC2        0.0000 
     49 N          -3.3540   19.1310   12.3650 N.am     10 SEL2        0.0000 
     50 N          -3.8110   16.7160   13.9330 N.am      6 SEP2        0.0000 
     51 CA         -0.8155   20.6040   10.9220 C.3       4 GLC5        0.0000 
     52 CA         -2.5710   20.6320    9.6690 C.3      12 GLL5        0.0000 
     53 CA          0.9400   20.5760   12.1750 C.3       8 GLP5        0.0000 
     54 CA          0.0065   20.9505    7.4970 C.3       4 GLC5        0.0000 
     55 CA         -1.6790   20.3860    8.4550 C.3      12 GLL5        0.0000 
     56 CA          1.6920   21.5150    6.5390 C.3       8 GLP5        0.0000 
     57 CA         -3.6730   18.0420    7.5380 C.3       4 GLC5        0.0000 
     58 CA         -2.3200   19.4160    7.4660 C.3      12 GLL5        0.0000 
     59 CA         -5.0260   16.6680    7.6100 C.3       8 GLP5        0.0000 
     60 N          -1.5510   19.0260    5.1235 N.am      2 SEC2        0.0000 
     61 N          -1.9600   19.8410    6.1500 N.am     10 SEL2        0.0000 
     62 N          -1.1420   18.2110    4.0970 N.am      6 SEP2        0.0000 
     63 O          -2.7610   21.0095    5.8730 O.2       1 ALC1        0.0000 
     64 O          -1.9600   19.8410    6.1500 O.2       9 ALL1        0.0000 
     65 O          -3.5620   22.1780    5.5960 O.2       5 ALP1        0.0000 
     66 CA         -2.9975   17.1585    7.0335 C.3       4 GLC5        0.0000 
     67 CA         -1.6570   18.0770    7.7400 C.3      12 GLL5        0.0000 
     68 CA         -4.3380   16.2400    6.3270 C.3       8 GLP5        0.0000 
     69 CA          0.7145   20.0540    7.2880 C.3       4 GLC5        0.0000 
     70 CA         -0.2630   18.5930    8.0370 C.3      12 GLL5        0.0000 
     71 CA          1.8465   19.0525    8.3770 C.3       4 GLC5        0.0000 
     72 CA          3.9560   19.5120    8.7170 C.3       8 GLP5        0.0000 
     73 N           3.5680   15.1920    9.4410 N.am      2 SEC2        0.0000 
     74 N           2.2570   16.0760    8.8560 N.am     10 SEL2        0.0000 
     75 N           4.8790   14.3080   10.0260 N.am      6 SEP2        0.0000 
     76 CA          3.2405   17.4095   11.1375 C.3       4 GLC5        0.0000 
     77 CA          1.6720   16.2200   10.0600 C.3      12 GLL5        0.0000 
     78 CA          4.8090   18.5990   12.2150 C.3       8 GLP5        0.0000 
     79 CA          1.5380   14.2910   10.0935 C.3       4 GLC5        0.0000 
     80 CA          1.4040   12.3620   10.1270 C.3       8 GLP5        0.0000 
     81 N           3.8200   14.5490   10.8030 N.am      2 SEC2        0.0000 
     82 N           2.7610   14.7900   11.5800 N.am     10 SEL2        0.0000 
     83 CA         -1.6340   22.1195    9.4085 C.3       4 GLC5        0.0000 
     84 CA         -1.1430   23.7300    9.7550 C.3       8 GLP5        0.0000 
     85 CA         -1.1895   16.4125    8.3443 C.3       4 GLC5        0.0000 
     86 CA         -1.4190   14.4900    8.8000 C.3       8 GLP5        0.0000 
@<TRIPOS>BOND
@<TRIPOS>SUBSTRUCTURE
     1 ALC1       63 GROUP        1 X    ALC  0     ROOT ALC X 1
     2 SEC2        1 GROUP        1 X    SEC  0     **** SEC X 2
     3 LYC4        6 GROUP        1 X    LYC  0     **** LYC X 4
     4 GLC5       51 GROUP        1 X    GLC  0     **** GLC X 6
     5 ALP1       65 GROUP        1 Y    ALP  0     ROOT ALP Y 8
     6 SEP2        3 GROUP        1 Y    SEP  0     **** SEP Y 9
     7 LYP4        8 GROUP        1 Y    LYP  0     **** LYP Y 11
     8 GLP5       53 GROUP        1 Y    GLP  0     **** GLP Y 13
     9 ALL1       64 GROUP        1 Z    ALL  0     ROOT ALL Z 15
    10 SEL2        2 GROUP        1 Z    SEL  0     **** SEL Z 16
    11 LYL4        7 GROUP        1 Z    LYL  0     **** LYL Z 18
    12 GLL5       52 GROUP        1 Z    GLL  0     **** GLL Z 20
@<TRIPOS>SET

