#    Name: 2vp2_DGT_1_ligand
#    Modification time : Tue Mar 25 02:19:43 2014

@<TRIPOS>MOLECULE
2vp2_DGT_1_ligand
   43    45     1     0     0
SMALL
NO_CHARGES


@<TRIPOS>ATOM
      1 PG         -8.7520   21.3580   11.8310 P.3       1 DGT1210     0.0000 
      2 O1G        -8.5340   22.5530   12.7530 O.co2     1 DGT1210     0.0000 
      3 O2G        -9.1980   21.7180   10.4290 O.co2     1 DGT1210     0.0000 
      4 O3G        -9.4910   20.2030   12.4840 O.co2     1 DGT1210     0.0000 
      5 O3B        -7.2720   20.7550   11.5680 O.3       1 DGT1210     0.0000 
      6 PB         -6.1270   21.5150   10.7490 P.3       1 DGT1210     0.0000 
      7 O1B        -6.1530   22.9790   11.0820 O.co2     1 DGT1210     0.0000 
      8 O2B        -6.1430   21.0950    9.3250 O.co2     1 DGT1210     0.0000 
      9 O3A        -4.8330   20.8960   11.4530 O.3       1 DGT1210     0.0000 
     10 PA         -4.2970   19.3970   11.2210 P.3       1 DGT1210     0.0000 
     11 O1A        -5.4160   18.4080   11.0020 O.co2     1 DGT1210     0.0000 
     12 O2A        -3.3540   19.1310   12.3650 O.co2     1 DGT1210     0.0000 
     13 O5'        -3.4650   19.5340    9.8620 O.3       1 DGT1210     0.0000 
     14 C5'        -2.5710   20.6320    9.6690 C.3       1 DGT1210     0.0000 
     15 C4'        -1.6790   20.3860    8.4550 C.3       1 DGT1210     0.0000 
     16 O4'        -0.4610   19.7550    8.8620 O.3       1 DGT1210     0.0000 
     17 C3'        -2.3200   19.4160    7.4660 C.3       1 DGT1210     0.0000 
     18 O3'        -1.9600   19.8410    6.1500 O.3       1 DGT1210     0.0000 
     19 C2'        -1.6570   18.0770    7.7400 C.3       1 DGT1210     0.0000 
     20 C1'        -0.2630   18.5930    8.0370 C.3       1 DGT1210     0.0000 
     21 N9          0.6260   17.5860    8.6470 N.pl3     1 DGT1210     0.0000 
     22 C8          1.6030   16.9170    8.0050 C.2       1 DGT1210     0.0000 
     23 N7          2.2570   16.0760    8.8560 N.2       1 DGT1210     0.0000 
     24 C5          1.6720   16.2200   10.0600 C.2       1 DGT1210     0.0000 
     25 C6          1.8640   15.6360   11.4000 C.2       1 DGT1210     0.0000 
     26 O6          2.7610   14.7900   11.5800 O.2       1 DGT1210     0.0000 
     27 N1          1.0540   16.0320   12.4040 N.am      1 DGT1210     0.0000 
     28 C2          0.0890   16.9600   12.2020 C.2       1 DGT1210     0.0000 
     29 N2         -0.6830   17.3170   13.2730 N.pl3     1 DGT1210     0.0000 
     30 N3         -0.1440   17.5370   10.9850 N.2       1 DGT1210     0.0000 
     31 C4          0.6000   17.2050    9.9190 C.2       1 DGT1210     0.0000 
     32 H          -1.9175   20.7807   10.5400 H         1 DGT1210     0.0000 
     33 H          -3.1142   21.5724    9.5002 H         1 DGT1210     0.0000 
     34 H          -1.4872   21.3056    7.9532 H         1 DGT1210     0.0000 
     35 H          -3.3370   19.3584    7.6359 H         1 DGT1210     0.0000 
     36 H          -1.6498   17.4977    6.8753 H         1 DGT1210     0.0000 
     37 H          -2.0686   17.6415    8.5911 H         1 DGT1210     0.0000 
     38 H           0.1565   18.9199    7.0710 H         1 DGT1210     0.0000 
     39 H           1.8214   17.0149    7.0552 H         1 DGT1210     0.0000 
     40 H           1.1726   15.6143   13.3594 H         1 DGT1210     0.0000 
     41 H          -0.5077   16.8244   14.1254 H         1 DGT1210     0.0000 
     42 H          -1.3550   18.0393   13.1097 H         1 DGT1210     0.0000 
     43 H          -2.5423   20.6328    5.9655 H         1 DGT1210     0.0000 
@<TRIPOS>BOND
     1    2    1 ar   
     2    3    1 ar   
     3    4    1 ar   
     4    5    1 1    
     5    6    5 1    
     6    7    6 ar   
     7    8    6 ar   
     8    9    6 1    
     9   10    9 1    
    10   11   10 ar   
    11   12   10 ar   
    12   13   10 1    
    13   14   13 1    
    14   15   14 1    
    15   32   14 1    
    16   33   14 1    
    17   16   15 1    
    18   17   15 1    
    19   34   15 1    
    20   20   16 1    
    21   18   17 1    
    22   19   17 1    
    23   35   17 1    
    24   43   18 1    
    25   20   19 1    
    26   36   19 1    
    27   37   19 1    
    28   21   20 1    
    29   38   20 1    
    30   22   21 1    
    31   31   21 1    
    32   23   22 2    
    33   39   22 1    
    34   24   23 1    
    35   25   24 1    
    36   31   24 2    
    37   26   25 2    
    38   27   25 am   
    39   28   27 1    
    40   40   27 1    
    41   29   28 1    
    42   30   28 2    
    43   41   29 1    
    44   42   29 1    
    45   31   30 1    
@<TRIPOS>SUBSTRUCTURE
     1 DGT1210     1 GROUP   
@<TRIPOS>SET

