#    Name: 2cx8_SAH_2_INTS_M
#    Modification time : Tue Mar 25 01:21:16 2014

@<TRIPOS>MOLECULE
2cx8_SAH_2_INTS_M
   64     0     9     0     0
SMALL
NO_CHARGES


@<TRIPOS>ATOM
      1 O           8.2650    4.9105   -1.9995 O.2       1 ALC1        0.0000 
      2 O           8.3010    3.8520   -0.8680 O.2       7 ALL1        0.0000 
      3 O           8.2290    5.9690   -3.1310 O.2       4 ALP1        0.0000 
      4 CA         10.2570    7.8220    0.4040 C.3       3 GLC5        0.0000 
      5 CA          9.4420    5.9330    0.8160 C.3       9 GLL5        0.0000 
      6 CA         11.0720    9.7110   -0.0080 C.3       6 GLP5        0.0000 
      7 CA         11.4020    5.1610   -0.5870 C.3       3 GLC5        0.0000 
      8 CA         12.0710    5.3590    1.4260 C.3       9 GLL5        0.0000 
      9 CA         10.7330    4.9630   -2.6000 C.3       6 GLP5        0.0000 
     10 CA         13.4785    6.8360    1.9260 C.3       3 GLC5        0.0000 
     11 CA         14.8860    8.3130    2.4260 C.3       6 GLP5        0.0000 
     12 CA         15.1000    4.3695    1.4845 C.3       3 GLC5        0.0000 
     13 CA         12.9910    4.1400    1.5120 C.3       9 GLL5        0.0000 
     14 CA         17.2090    4.5990    1.4570 C.3       6 GLP5        0.0000 
     15 CA         14.1420    4.5315   -0.3655 C.3       3 GLC5        0.0000 
     16 CA         15.2930    4.9230   -2.2430 C.3       6 GLP5        0.0000 
     17 CA         11.5500    3.9080   -0.8135 C.3       3 GLC5        0.0000 
     18 CA         12.3670    2.8530    0.9730 C.3       9 GLL5        0.0000 
     19 N          15.3205    3.0480   -0.2720 N.am      2 SEC2        0.0000 
     20 N          14.6480    2.0630    0.7960 N.am      8 SEL2        0.0000 
     21 N          15.9930    4.0330   -1.3400 N.am      5 SEP2        0.0000 
     22 O          14.4790    0.5645    0.5010 O.2       1 ALC1        0.0000 
     23 O          14.6480    2.0630    0.7960 O.2       7 ALL1        0.0000 
     24 O          14.3100   -0.9340    0.2060 O.2       4 ALP1        0.0000 
     25 CA         14.5845    2.9855    4.1175 C.3       3 GLC5        0.0000 
     26 CA         13.5730    2.3980    2.9370 C.3       9 GLL5        0.0000 
     27 CA         15.5960    3.5730    5.2980 C.3       6 GLP5        0.0000 
     28 N          10.4490    3.0360    6.4560 N.am      2 SEC2        0.0000 
     29 N          10.9460    1.8420    5.3470 N.am      8 SEL2        0.0000 
     30 N           9.9520    4.2300    7.5650 N.am      5 SEP2        0.0000 
     31 CA         10.0380   -1.6325    4.0635 C.3       3 GLC5        0.0000 
     32 CA         11.0040   -0.6390    5.7210 C.3       9 GLL5        0.0000 
     33 CA          9.0720   -2.6260    2.4060 C.3       6 GLP5        0.0000 
     34 O           9.5950   -1.7495    7.6430 O.2       1 ALC1        0.0000 
     35 O          10.0850   -0.7080    6.6800 O.2       7 ALL1        0.0000 
     36 O           9.1050   -2.7910    8.6060 O.2       4 ALP1        0.0000 
     37 O           9.4015    0.2295    7.6840 O.2       1 ALC1        0.0000 
     38 O           8.7180    1.1670    8.6880 O.2       4 ALP1        0.0000 
     39 N          12.4380   -2.7800    6.2245 N.am      2 SEC2        0.0000 
     40 N          11.6360   -1.7480    5.3070 N.am      8 SEL2        0.0000 
     41 N          13.2400   -3.8120    7.1420 N.am      5 SEP2        0.0000 
     42 CA         14.2875   -1.1740    3.5130 C.3       3 GLC5        0.0000 
     43 CA         12.5850   -1.6920    4.3880 C.3       9 GLL5        0.0000 
     44 CA         15.9900   -0.6560    2.6380 C.3       6 GLP5        0.0000 
     45 CA         12.4870   -2.2975    2.4695 C.3       3 GLC5        0.0000 
     46 CA         12.3890   -2.9030    0.5510 C.3       6 GLP5        0.0000 
     47 CA         10.8285   -2.1590    3.3970 C.3       3 GLC5        0.0000 
     48 CA         12.9345   -3.7685    5.1040 C.3       3 GLC5        0.0000 
     49 CA         13.2840   -5.8450    5.8200 C.3       6 GLP5        0.0000 
     50 CA         13.3345   -1.6055    5.9535 C.3       3 GLC5        0.0000 
     51 CA         14.0840   -1.5190    7.5190 C.3       6 GLP5        0.0000 
     52 CA         14.1725   -0.0235    3.4225 C.3       3 GLC5        0.0000 
     53 CA         12.3550    0.6090    4.2070 C.3       9 GLL5        0.0000 
     54 CA         14.0630    0.2865    5.3640 C.3       3 GLC5        0.0000 
     55 CA         15.7710   -0.0360    6.5210 C.3       6 GLP5        0.0000 
     56 CA          8.7460    7.0030   -0.9138 C.3       3 GLC5        0.0000 
     57 CA          8.8000    8.2240   -2.6290 C.3       6 GLP5        0.0000 
     58 CA          9.6749    5.1910   -0.9470 C.3       3 GLC5        0.0000 
     59 CA         14.7428    0.7415    2.4292 C.3       3 GLC5        0.0000 
     60 CA         13.4180    1.8800    1.5040 C.3       9 GLL5        0.0000 
     61 CA         10.2197    0.2012    3.3293 C.3       3 GLC5        0.0000 
     62 CA          8.5870   -0.1960    1.9720 C.3       6 GLP5        0.0000 
     63 CA         12.6305   -0.7722    6.4813 C.3       3 GLC5        0.0000 
     64 CA         11.3500    0.5880    5.1660 C.3       9 GLL5        0.0000 
@<TRIPOS>BOND
@<TRIPOS>SUBSTRUCTURE
     1 ALC1        1 GROUP        1 X    ALC  0     ROOT ALC X 1
     2 SEC2       19 GROUP        1 X    SEC  0     **** SEC X 2
     3 GLC5        4 GROUP        1 X    GLC  0     **** GLC X 6
     4 ALP1        3 GROUP        1 Y    ALP  0     ROOT ALP Y 8
     5 SEP2       21 GROUP        1 Y    SEP  0     **** SEP Y 9
     6 GLP5        6 GROUP        1 Y    GLP  0     **** GLP Y 13
     7 ALL1        2 GROUP        1 Z    ALL  0     ROOT ALL Z 15
     8 SEL2       20 GROUP        1 Z    SEL  0     **** SEL Z 16
     9 GLL5        5 GROUP        1 Z    GLL  0     **** GLL Z 20
@<TRIPOS>SET

