#    Name: 2cx8_SAH_2_ligand
#    Modification time : Tue Mar 25 01:21:16 2014

@<TRIPOS>MOLECULE
2cx8_SAH_2_ligand
   46    48     1     0     0
SMALL
NO_CHARGES


@<TRIPOS>ATOM
      1 N           8.3010    3.8520   -0.8680 N.4       1 SAH400      0.0000 
      2 CA          7.6410    4.1790    0.4050 C.3       1 SAH400      0.0000 
      3 CB          7.9420    5.6310    0.7870 C.3       1 SAH400      0.0000 
      4 CG          9.4420    5.9330    0.8160 C.3       1 SAH400      0.0000 
      5 SD         10.4000    5.0770    2.1200 S.3       1 SAH400      0.0000 
      6 C           6.1300    3.9850    0.2510 C.2       1 SAH400      0.0000 
      7 O           5.7390    3.4070   -0.7860 O.co2     1 SAH400      0.0000 
      8 OXT         5.3940    4.4180    1.1650 O.co2     1 SAH400      0.0000 
      9 C5'        12.0710    5.3590    1.4260 C.3       1 SAH400      0.0000 
     10 C4'        12.9910    4.1400    1.5120 C.3       1 SAH400      0.0000 
     11 O4'        13.3850    3.8230    2.8580 O.3       1 SAH400      0.0000 
     12 C3'        12.3670    2.8530    0.9730 C.3       1 SAH400      0.0000 
     13 O3'        12.4100    2.8790   -0.4560 O.3       1 SAH400      0.0000 
     14 C2'        13.4180    1.8800    1.5040 C.3       1 SAH400      0.0000 
     15 O2'        14.6480    2.0630    0.7960 O.3       1 SAH400      0.0000 
     16 C1'        13.5730    2.3980    2.9370 C.3       1 SAH400      0.0000 
     17 N9         12.5300    1.8800    3.8540 N.pl3     1 SAH400      0.0000 
     18 C8         11.6680    2.6220    4.5450 C.2       1 SAH400      0.0000 
     19 N7         10.9460    1.8420    5.3470 N.2       1 SAH400      0.0000 
     20 C5         11.3500    0.5880    5.1660 C.ar      1 SAH400      0.0000 
     21 C6         11.0040   -0.6390    5.7210 C.ar      1 SAH400      0.0000 
     22 N6         10.0850   -0.7080    6.6800 N.pl3     1 SAH400      0.0000 
     23 N1         11.6360   -1.7480    5.3070 N.ar      1 SAH400      0.0000 
     24 C2         12.5850   -1.6920    4.3880 C.ar      1 SAH400      0.0000 
     25 N3         12.9440   -0.5410    3.8450 N.ar      1 SAH400      0.0000 
     26 C4         12.3550    0.6090    4.2070 C.ar      1 SAH400      0.0000 
     27 H           7.9910    3.5362    1.1867 H         1 SAH400      0.0000 
     28 H           7.5164    5.8360    1.7757 H         1 SAH400      0.0000 
     29 H           7.4564    6.2982    0.0661 H         1 SAH400      0.0000 
     30 H           9.6684    6.9743    1.0212 H         1 SAH400      0.0000 
     31 H           9.9623    5.6204   -0.0836 H         1 SAH400      0.0000 
     32 H          12.4131    6.1997    2.0055 H         1 SAH400      0.0000 
     33 H          11.8446    5.6585    0.4168 H         1 SAH400      0.0000 
     34 H          13.8864    4.3306    0.9109 H         1 SAH400      0.0000 
     35 H          11.4757    2.6858    1.4162 H         1 SAH400      0.0000 
     36 H          13.0378    0.9289    1.5193 H         1 SAH400      0.0000 
     37 H          14.5433    2.1683    3.2894 H         1 SAH400      0.0000 
     38 H          11.5778    3.5963    4.4744 H         1 SAH400      0.0000 
     39 H           9.7107    0.1644    6.9944 H         1 SAH400      0.0000 
     40 H           9.8512   -1.6261    7.0002 H         1 SAH400      0.0000 
     41 H          13.0658   -2.5840    4.0816 H         1 SAH400      0.0000 
     42 H           7.6421    3.5758   -1.5677 H         1 SAH400      0.0000 
     43 H           8.8081    4.6320   -1.2345 H         1 SAH400      0.0000 
     44 H           8.9527    3.1004   -0.7661 H         1 SAH400      0.0000 
     45 H          13.2934    2.4764   -0.6956 H         1 SAH400      0.0000 
     46 H          14.8909    1.1530    0.4599 H         1 SAH400      0.0000 
@<TRIPOS>BOND
     1    2    1 1    
     2   42    1 1    
     3   43    1 1    
     4   44    1 1    
     5    3    2 1    
     6    6    2 1    
     7   27    2 1    
     8    4    3 1    
     9   28    3 1    
    10   29    3 1    
    11    5    4 1    
    12   30    4 1    
    13   31    4 1    
    14    9    5 1    
    15    7    6 ar   
    16    8    6 ar   
    17   10    9 1    
    18   32    9 1    
    19   33    9 1    
    20   11   10 1    
    21   12   10 1    
    22   34   10 1    
    23   16   11 1    
    24   13   12 1    
    25   14   12 1    
    26   35   12 1    
    27   45   13 1    
    28   15   14 1    
    29   16   14 1    
    30   36   14 1    
    31   46   15 1    
    32   17   16 1    
    33   37   16 1    
    34   18   17 1    
    35   26   17 1    
    36   19   18 2    
    37   38   18 1    
    38   20   19 1    
    39   21   20 ar   
    40   26   20 ar   
    41   22   21 1    
    42   23   21 ar   
    43   39   22 1    
    44   40   22 1    
    45   24   23 ar   
    46   25   24 ar   
    47   41   24 1    
    48   26   25 ar   
@<TRIPOS>SUBSTRUCTURE
     1 SAH400      1 GROUP   
@<TRIPOS>SET

