#    Name: 3arz_I5I_1_INTS_M
#    Modification time : Mon Mar 24 18:09:41 2014

@<TRIPOS>MOLECULE
3arz_I5I_1_INTS_M
   18     0     3     0     0
SMALL
NO_CHARGES


@<TRIPOS>ATOM
      1 CA         -1.4325  -11.2845    0.4345 C.3       1 GLC5        0.0000 
      2 CA         -1.9430  -13.0270    1.7550 C.3       3 GLL5        0.0000 
      3 CA         -0.9220   -9.5420   -0.8860 C.3       2 GLP5        0.0000 
      4 CA         -5.9440  -13.4915    2.9575 C.3       1 GLC5        0.0000 
      5 CA         -6.7750  -13.4520    1.0420 C.3       3 GLL5        0.0000 
      6 CA         -5.1130  -13.5310    4.8730 C.3       2 GLP5        0.0000 
      7 CA         -6.6360  -13.3210   -0.7280 C.3       1 GLC5        0.0000 
      8 CA         -6.4970  -13.1900   -2.4980 C.3       2 GLP5        0.0000 
      9 CA          1.0300  -16.2145    4.4315 C.3       1 GLC5        0.0000 
     10 CA          2.3170  -16.8890    2.9820 C.3       3 GLL5        0.0000 
     11 CA         -0.2570  -15.5400    5.8810 C.3       2 GLP5        0.0000 
     12 CA          3.9945  -15.6050    2.5540 C.3       1 GLC5        0.0000 
     13 CA          5.6720  -14.3210    2.1260 C.3       2 GLP5        0.0000 
     14 CA         -0.6135  -15.0710    3.7930 C.3       1 GLC5        0.0000 
     15 CA         -1.0570  -15.2870    1.6010 C.3       3 GLL5        0.0000 
     16 CA         -8.7940  -12.7585   -0.7858 C.3       1 GLC5        0.0000 
     17 CA         -8.7270  -12.1260    1.0170 C.3       3 GLL5        0.0000 
     18 CA         -8.6610  -12.6520   -2.5990 C.3       2 GLP5        0.0000 
@<TRIPOS>BOND
@<TRIPOS>SUBSTRUCTURE
     1 GLC5        1 GROUP        1 X    GLC  0     ROOT GLC X 6
     2 GLP5        3 GROUP        1 Y    GLP  0     ROOT GLP Y 13
     3 GLL5        2 GROUP        1 Z    GLL  0     ROOT GLL Z 20
@<TRIPOS>SET

