#    Name: 3arz_I5I_1_ligand
#    Modification time : Mon Mar 24 18:09:41 2014

@<TRIPOS>MOLECULE
3arz_I5I_1_ligand
   27    29     1     0     0
SMALL
NO_CHARGES


@<TRIPOS>ATOM
      1 C1         -1.0570  -15.2870    1.6010 C.ar      1 I5I606      0.0000 
      2 C2         -2.3600  -15.7660    1.3450 C.ar      1 I5I606      0.0000 
      3 C3         -3.4470  -14.8650    1.2950 C.ar      1 I5I606      0.0000 
      4 C4         -3.2160  -13.4990    1.4960 C.ar      1 I5I606      0.0000 
      5 C5         -1.9430  -13.0270    1.7550 C.ar      1 I5I606      0.0000 
      6 C6         -0.8830  -13.9170    1.8090 C.ar      1 I5I606      0.0000 
      7 C7         -4.7790  -15.0140    1.0900 C.2       1 I5I606      0.0000 
      8 C8         -5.3970  -13.8070    1.1530 C.2       1 I5I606      0.0000 
      9 O9         -4.4220  -12.8530    1.4090 O.3       1 I5I606      0.0000 
     10 C10        -6.7750  -13.4520    1.0420 C.2       1 I5I606      0.0000 
     11 N11        -7.2430  -12.1870    1.0750 N.pl3     1 I5I606      0.0000 
     12 C12        -8.7270  -12.1260    1.0170 C.3       1 I5I606      0.0000 
     13 C13        -9.1270  -13.6040    1.0380 C.3       1 I5I606      0.0000 
     14 N14        -7.8210  -14.3080    1.1040 N.pl3     1 I5I606      0.0000 
     15 N15         0.0310  -16.1050    1.6690 N.2       1 I5I606      0.0000 
     16 C16         0.9180  -15.9430    2.6640 C.1       1 I5I606      0.0000 
     17 S17         2.3170  -16.8890    2.9820 S.2       1 I5I606      0.0000 
     18 H          -2.5174  -16.7639    1.1959 H         1 I5I606      0.0000 
     19 H          -1.7828  -12.0237    1.9065 H         1 I5I606      0.0000 
     20 H           0.0744  -13.5586    2.0104 H         1 I5I606      0.0000 
     21 H          -5.2271  -15.8615    0.9222 H         1 I5I606      0.0000 
     22 H          -6.7309  -11.3659    1.1297 H         1 I5I606      0.0000 
     23 H          -9.0541  -11.6900    0.1070 H         1 I5I606      0.0000 
     24 H          -9.1215  -11.6466    1.8771 H         1 I5I606      0.0000 
     25 H          -9.6406  -13.8380    0.1376 H         1 I5I606      0.0000 
     26 H          -9.7068  -13.7950    1.9078 H         1 I5I606      0.0000 
     27 H          -7.7949  -15.2706    1.1821 H         1 I5I606      0.0000 
@<TRIPOS>BOND
     1    2    1 ar   
     2    6    1 ar   
     3   15    1 1    
     4    3    2 ar   
     5   18    2 1    
     6    4    3 ar   
     7    7    3 1    
     8    5    4 ar   
     9    9    4 1    
    10    6    5 ar   
    11   19    5 1    
    12   20    6 1    
    13    8    7 2    
    14   21    7 1    
    15    9    8 1    
    16   10    8 1    
    17   11   10 1    
    18   14   10 2    
    19   12   11 1    
    20   22   11 1    
    21   13   12 1    
    22   23   12 1    
    23   24   12 1    
    24   14   13 1    
    25   25   13 1    
    26   26   13 1    
    27   27   14 1    
    28   16   15 2    
    29   17   16 2    
@<TRIPOS>SUBSTRUCTURE
     1 I5I606      1 GROUP   
@<TRIPOS>SET

