#    Name: 1R0C_1_CAVITY_N1_6.mol2
#    Modification time : Tue Mar 11 04:56:38 2014

@<TRIPOS>MOLECULE
1R0C_1_CAVITY_N1_6.mol2
   70     0     4     0     0
SMALL
NO_CHARGES


@<TRIPOS>ATOM
      1 CA         -9.3821   55.2374   -0.3298 C.3       3 GLY6        0.0000 
      2 CA        -10.2888   54.8495    0.8004 C.3       3 GLY6        0.0000 
      3 O          -5.8805   55.5064   -1.4099 O.2       2 ALA2        0.0000 
      4 N          -6.7872   55.1185   -0.2797 N.2       2 ALA2        0.0000 
      5 CA         -7.6939   54.7306    0.8506 C.3       3 GLY6        0.0000 
      6 CA         -8.6007   54.3427    1.9808 C.3       3 GLY6        0.0000 
      7 OG         -6.6862   56.7526   -1.6286 O.2       1 SER1        0.0000 
      8 N          -7.5930   56.3647   -0.4984 N.2       2 ALA2        0.0000 
      9 CA         -8.4997   55.9768    0.6318 C.3       3 GLY6        0.0000 
     10 DU         -9.4064   55.5889    1.7620 H         4 CUB7        0.0000 
     11 DU        -10.3131   55.2010    2.8923 H         4 CUB7        0.0000 
     12 N          -8.3987   57.6108   -0.7171 N.2       2 ALA2        0.0000 
     13 O          -9.3054   57.2229    0.4131 O.2       2 ALA2        0.0000 
     14 CA        -10.2122   56.8350    1.5433 C.3       3 GLY6        0.0000 
     15 DU        -11.1189   56.4471    2.6735 H         4 CUB7        0.0000 
     16 DU        -12.0256   56.0592    3.8037 H         4 CUB7        0.0000 
     17 O         -11.0179   58.0812    1.3246 O.2       2 ALA2        0.0000 
     18 O         -11.9247   57.6933    2.4548 O.2       2 ALA2        0.0000 
     19 O         -12.8314   57.3054    3.5850 O.2       2 ALA2        0.0000 
     20 N         -12.7304   58.9395    2.2361 N.2       2 ALA2        0.0000 
     21 CA         -5.2244   53.3290    4.3415 C.3       3 GLY6        0.0000 
     22 CA         -3.3100   55.7389    0.7322 C.3       3 GLY6        0.0000 
     23 CA         -6.0301   54.5752    4.1228 C.3       3 GLY6        0.0000 
     24 CA         -6.9369   54.1873    5.2530 C.3       3 GLY6        0.0000 
     25 CA         -7.8436   53.7994    6.3832 C.3       3 GLY6        0.0000 
     26 CA         -4.1157   56.9851    0.5135 C.3       3 GLY6        0.0000 
     27 CA         -5.0224   56.5972    1.6437 C.3       3 GLY6        0.0000 
     28 CA         -5.9292   56.2093    2.7739 C.3       3 GLY6        0.0000 
     29 CA         -6.8359   55.8214    3.9041 C.3       3 GLY6        0.0000 
     30 DU         -7.7426   55.4335    5.0343 H         4 CUB7        0.0000 
     31 OG         -4.9215   58.2312    0.2947 O.2       1 SER1        0.0000 
     32 OG         -5.8282   57.8433    1.4249 O.2       1 SER1        0.0000 
     33 DU         -6.7349   57.4554    2.5551 H         4 CUB7        0.0000 
     34 DU         -7.6416   57.0675    3.6854 H         4 CUB7        0.0000 
     35 O          -7.5407   58.7016    2.3364 O.2       2 ALA2        0.0000 
     36 O          -8.4474   58.3137    3.4666 O.2       2 ALA2        0.0000 
     37 O         -10.9656   60.4181    4.1594 O.2       2 ALA2        0.0000 
     38 CA        -11.8724   60.0302    5.2896 C.3       3 GLY6        0.0000 
     39 CA         -1.5208   56.8662    0.5636 C.3       3 GLY6        0.0000 
     40 CA         -2.4276   56.4783    1.6938 C.3       3 GLY6        0.0000 
     41 O          -6.0545   54.9266    6.2147 O.2       2 ALA2        0.0000 
     42 O          -6.9612   54.5387    7.3449 O.2       2 ALA2        0.0000 
     43 CA         -3.2333   57.7244    1.4751 C.3       3 GLY6        0.0000 
     44 CA         -4.1400   57.3365    2.6053 C.3       3 GLY6        0.0000 
     45 CA         -5.9535   56.5607    4.8657 C.3       3 GLY6        0.0000 
     46 DU         -6.8602   56.1728    5.9959 H         4 CUB7        0.0000 
     47 OG         -4.9458   58.5827    2.3866 O.2       1 SER1        0.0000 
     48 DU         -5.8525   58.1948    3.5168 H         4 CUB7        0.0000 
     49 DU         -6.7593   57.8069    4.6470 H         4 CUB7        0.0000 
     50 O          -6.6583   59.4409    3.2981 O.2       2 ALA2        0.0000 
     51 O          -7.5650   59.0530    4.4283 O.2       2 ALA2        0.0000 
     52 CA         -4.1923   54.9996   -0.2295 C.3       3 GLY6        0.0000 
     53 CA         -6.9125   53.8359    3.1611 C.3       3 GLY6        0.0000 
     54 CA         -4.9981   56.2458   -0.4482 C.3       3 GLY6        0.0000 
     55 CA         -5.9048   55.8578    0.6820 C.3       3 GLY6        0.0000 
     56 CA         -6.8116   55.4699    1.8122 C.3       3 GLY6        0.0000 
     57 DU         -7.7183   55.0820    2.9424 H         4 CUB7        0.0000 
     58 OG         -5.8038   57.4919   -0.6669 O.2       1 SER1        0.0000 
     59 OG         -6.7106   57.1040    0.4633 O.2       1 SER1        0.0000 
     60 DU         -7.6173   56.7161    1.5935 H         4 CUB7        0.0000 
     61 DU         -8.5240   56.3282    2.7237 H         4 CUB7        0.0000 
     62 OG         -7.5163   58.3502    0.2446 O.2       1 SER1        0.0000 
     63 O          -8.4231   57.9623    1.3748 O.2       2 ALA2        0.0000 
     64 O          -9.3298   57.5744    2.5050 O.2       2 ALA2        0.0000 
     65 O         -10.2365   57.1865    3.6352 O.2       2 ALA2        0.0000 
     66 DU        -11.1432   56.7986    4.7654 H         4 CUB7        0.0000 
     67 O         -11.0423   58.4326    3.4165 O.2       2 ALA2        0.0000 
     68 O         -11.9490   58.0447    4.5467 O.2       2 ALA2        0.0000 
     69 O         -11.8480   59.6788    3.1977 O.2       2 ALA2        0.0000 
     70 CA        -12.7547   59.2909    4.3279 C.3       3 GLY6        0.0000 
@<TRIPOS>BOND
@<TRIPOS>SUBSTRUCTURE
     1 SER1        7 GROUP   
     2 ALA2        3 GROUP   
     3 GLY6        1 GROUP   
     4 CUB7       10 GROUP   
@<TRIPOS>SET

