#    Name: 1r0c_NCD_1_INTS_M
#    Modification time : Tue Mar 25 00:13:21 2014

@<TRIPOS>MOLECULE
1r0c_NCD_1_INTS_M
   12     0     6     0     0
SMALL
NO_CHARGES


@<TRIPOS>ATOM
      1 CA         -4.3870   61.4150    2.1385 C.3       2 GLC5        0.0000 
      2 CA         -3.7430   59.5040    2.9440 C.3       6 GLL5        0.0000 
      3 CA         -5.0310   63.3260    1.3330 C.3       4 GLP5        0.0000 
      4 N          -1.7355   60.8105    0.1315 N.am      1 SEC2        0.0000 
      5 N          -1.7970   60.1790    1.6200 N.am      5 SEL2        0.0000 
      6 N          -1.6740   61.4420   -1.3570 N.am      3 SEP2        0.0000 
      7 N          -4.8885   60.4205    0.5100 N.am      1 SEC2        0.0000 
      8 N          -3.5080   59.4450    0.4990 N.am      5 SEL2        0.0000 
      9 N          -6.2690   61.3960    0.5210 N.am      3 SEP2        0.0000 
     10 CA         -3.2360   56.5070    3.4325 C.3       2 GLC5        0.0000 
     11 CA         -3.1100   58.3080    3.6060 C.3       6 GLL5        0.0000 
     12 CA         -3.3620   54.7060    3.2590 C.3       4 GLP5        0.0000 
@<TRIPOS>BOND
@<TRIPOS>SUBSTRUCTURE
     1 SEC2        4 GROUP        1 X    SEC  0     ROOT SEC X 2
     2 GLC5        1 GROUP        1 X    GLC  0     **** GLC X 6
     3 SEP2        6 GROUP        1 Y    SEP  0     ROOT SEP Y 9
     4 GLP5        3 GROUP        1 Y    GLP  0     **** GLP Y 13
     5 SEL2        5 GROUP        1 Z    SEL  0     ROOT SEL Z 16
     6 GLL5        2 GROUP        1 Z    GLL  0     **** GLL Z 20
@<TRIPOS>SET

