#    Name: 1r0c_NCD_1_ligand
#    Modification time : Tue Mar 25 00:13:21 2014

@<TRIPOS>MOLECULE
1r0c_NCD_1_ligand
   18    17     1     0     0
SMALL
NO_CHARGES


@<TRIPOS>ATOM
      1 C6         -3.7430   59.5040    2.9440 C.3       1 NCD2001     0.0000 
      2 C61        -2.9780   59.7200    1.6070 C.2       1 NCD2001     0.0000 
      3 O61        -1.7970   60.1790    1.6200 O.co2     1 NCD2001     0.0000 
      4 O62        -3.5080   59.4450    0.4990 O.co2     1 NCD2001     0.0000 
      5 N1         -5.1620   59.2990    2.6550 N.am      1 NCD2001     0.0000 
      6 C2         -6.2040   59.8530    3.3300 C.2       1 NCD2001     0.0000 
      7 O2         -7.3880   59.5930    2.9810 O.2       1 NCD2001     0.0000 
      8 N3         -6.0370   60.6750    4.3640 N.am      1 NCD2001     0.0000 
      9 C5         -3.1100   58.3080    3.6060 C.3       1 NCD2001     0.0000 
     10 C4         -2.9740   58.4030    5.1060 C.2       1 NCD2001     0.0000 
     11 O4         -1.8210   58.5540    5.6460 O.co2     1 NCD2001     0.0000 
     12 O5         -4.0390   58.3310    5.8210 O.co2     1 NCD2001     0.0000 
     13 H          -3.5804   60.3729    3.5435 H         1 NCD2001     0.0000 
     14 H          -5.3561   58.6492    1.8325 H         1 NCD2001     0.0000 
     15 H          -6.8721   60.9903    4.8148 H         1 NCD2001     0.0000 
     16 H          -5.0915   60.9030    4.5966 H         1 NCD2001     0.0000 
     17 H          -2.1036   58.1408    3.1638 H         1 NCD2001     0.0000 
     18 H          -3.7023   57.4009    3.3556 H         1 NCD2001     0.0000 
@<TRIPOS>BOND
     1    2    1 1    
     2    5    1 1    
     3    9    1 1    
     4   13    1 1    
     5    3    2 ar   
     6    4    2 ar   
     7    6    5 am   
     8   14    5 1    
     9    7    6 2    
    10    8    6 am   
    11   15    8 1    
    12   16    8 1    
    13   10    9 1    
    14   17    9 1    
    15   18    9 1    
    16   11   10 ar   
    17   12   10 ar   
@<TRIPOS>SUBSTRUCTURE
     1 NCD2001     1 GROUP   
@<TRIPOS>SET

