#    Name: 3l0l_HC3_1_INTS_M
#    Modification time : Mon Mar 24 20:45:16 2014

@<TRIPOS>MOLECULE
3l0l_HC3_1_INTS_M
   88     0     6     0     0
SMALL
NO_CHARGES


@<TRIPOS>ATOM
      1 CA        -26.7870   -5.2085    7.6040 C.3       2 GLC5        0.0000 
      2 CA        -24.7130   -4.9120    7.4670 C.3       6 GLL5        0.0000 
      3 CA        -28.8610   -5.5050    7.7410 C.3       4 GLP5        0.0000 
      4 CA        -24.8565   -3.1495    8.4530 C.3       2 GLC5        0.0000 
      5 CA        -25.0000   -1.3870    9.4390 C.3       4 GLP5        0.0000 
      6 CA        -25.9025   -3.6045    6.7625 C.3       2 GLC5        0.0000 
      7 CA        -27.0920   -2.2970    6.0580 C.3       4 GLP5        0.0000 
      8 CA        -25.8695   -7.6040    8.6720 C.3       2 GLC5        0.0000 
      9 CA        -23.7510   -7.6240    8.3390 C.3       6 GLL5        0.0000 
     10 CA        -27.9880   -7.5840    9.0050 C.3       4 GLP5        0.0000 
     11 CA        -25.8725   -8.6360   11.9920 C.3       2 GLC5        0.0000 
     12 CA        -24.4600   -7.5800   11.2760 C.3       6 GLL5        0.0000 
     13 CA        -27.2850   -9.6920   12.7080 C.3       4 GLP5        0.0000 
     14 CA        -26.2240   -7.5820   10.1405 C.3       2 GLC5        0.0000 
     15 CA        -20.9685   -9.6975    9.7265 C.3       2 GLC5        0.0000 
     16 CA        -22.8270   -9.4100   10.6470 C.3       6 GLL5        0.0000 
     17 CA        -19.1100   -9.9850    8.8060 C.3       4 GLP5        0.0000 
     18 CA        -22.0220  -12.0905   12.0580 C.3       2 GLC5        0.0000 
     19 CA        -22.7760  -10.1610   11.9970 C.3       6 GLL5        0.0000 
     20 CA        -21.2680  -14.0200   12.1190 C.3       4 GLP5        0.0000 
     21 O         -20.6400   -9.4725   14.7210 O.2       1 ALC1        0.0000 
     22 O         -21.8710  -10.2030   14.2120 O.2       5 ALL1        0.0000 
     23 O         -19.4090   -8.7420   15.2300 O.2       3 ALP1        0.0000 
     24 CA        -20.5825   -3.5800   10.6505 C.3       2 GLC5        0.0000 
     25 CA        -21.1990   -5.3460   10.3570 C.3       6 GLL5        0.0000 
     26 CA        -19.9660   -1.8140   10.9440 C.3       4 GLP5        0.0000 
     27 CA        -19.1605   -5.0445    9.7385 C.3       2 GLC5        0.0000 
     28 CA        -17.1220   -4.7430    9.1200 C.3       4 GLP5        0.0000 
     29 CA        -20.3605   -5.8990    7.4775 C.3       2 GLC5        0.0000 
     30 CA        -22.2080   -5.1890    8.0190 C.3       6 GLL5        0.0000 
     31 CA        -18.5130   -6.6090    6.9360 C.3       4 GLP5        0.0000 
     32 CA        -20.9445   -2.7580    9.3715 C.3       2 GLC5        0.0000 
     33 CA        -21.9230   -3.7020    7.7990 C.3       6 GLL5        0.0000 
     34 CA        -23.0200   -2.0690    8.3600 C.3       2 GLC5        0.0000 
     35 CA        -24.1170   -0.4360    8.9210 C.3       4 GLP5        0.0000 
     36 CA        -24.9395   -2.9455    5.1685 C.3       2 GLC5        0.0000 
     37 CA        -23.8040   -4.4670    4.6180 C.3       6 GLL5        0.0000 
     38 CA        -26.0750   -1.4240    5.7190 C.3       4 GLP5        0.0000 
     39 CA        -24.4650   -4.8965    2.0280 C.3       2 GLC5        0.0000 
     40 CA        -24.5500   -5.6990    4.0860 C.3       6 GLL5        0.0000 
     41 CA        -24.3800   -4.0940   -0.0300 C.3       4 GLP5        0.0000 
     42 CA        -24.6800   -7.7325    3.3360 C.3       2 GLC5        0.0000 
     43 CA        -24.8100   -9.7660    2.5860 C.3       4 GLP5        0.0000 
     44 CA        -26.6885   -6.0830    3.7820 C.3       2 GLC5        0.0000 
     45 CA        -28.8270   -6.4670    3.4780 C.3       4 GLP5        0.0000 
     46 CA        -24.5715   -2.3280    3.9025 C.3       2 GLC5        0.0000 
     47 CA        -23.1190   -3.7500    3.4180 C.3       6 GLL5        0.0000 
     48 CA        -26.0240   -0.9060    4.3870 C.3       4 GLP5        0.0000 
     49 CA        -20.3810   -6.1130   -1.2510 C.3       2 GLC5        0.0000 
     50 CA        -20.3270   -5.6590    0.5020 C.3       6 GLL5        0.0000 
     51 CA        -20.4350   -6.5670   -3.0040 C.3       4 GLP5        0.0000 
     52 CA        -22.3535   -4.8765    0.2360 C.3       2 GLC5        0.0000 
     53 CA        -21.4995   -6.9975    0.5490 C.3       2 GLC5        0.0000 
     54 CA        -22.6720   -8.3360    0.5960 C.3       4 GLP5        0.0000 
     55 CA        -18.5690   -6.6945   -0.0935 C.3       2 GLC5        0.0000 
     56 CA        -16.8110   -7.7300   -0.6890 C.3       4 GLP5        0.0000 
     57 CA        -18.4900   -2.1190   -0.6765 C.3       2 GLC5        0.0000 
     58 CA        -19.5780   -3.3670   -0.0890 C.3       6 GLL5        0.0000 
     59 CA        -17.4020   -0.8710   -1.2640 C.3       4 GLP5        0.0000 
     60 CA        -20.8710   -2.7320   -1.4785 C.3       2 GLC5        0.0000 
     61 CA        -22.1640   -2.0970   -2.8680 C.3       4 GLP5        0.0000 
     62 CA        -20.0065   -4.9670   -1.5465 C.3       2 GLC5        0.0000 
     63 O         -17.6920   -5.0195    1.3630 O.2       1 ALC1        0.0000 
     64 O         -18.8800   -4.3790    1.9820 O.2       5 ALL1        0.0000 
     65 O         -16.5040   -5.6600    0.7440 O.2       3 ALP1        0.0000 
     66 CA        -24.5592   -8.7505    6.8745 C.3       2 GLC5        0.0000 
     67 CA        -23.4520   -7.0360    6.9330 C.3       6 GLL5        0.0000 
     68 CA        -25.5170  -10.1710    6.1130 C.3       4 GLP5        0.0000 
     69 CA        -23.7993  -11.0252   10.4750 C.3       2 GLC5        0.0000 
     70 CA        -24.7970  -12.2650    9.6280 C.3       4 GLP5        0.0000 
     71 CA        -23.1675   -8.5365   14.5113 C.3       2 GLC5        0.0000 
     72 CA        -21.7010   -9.5880   12.9400 C.3       6 GLL5        0.0000 
     73 CA        -24.5430   -8.2340   15.9560 C.3       4 GLP5        0.0000 
     74 CA        -19.8370   -8.3995   12.5137 C.3       2 GLC5        0.0000 
     75 CA        -21.8830   -8.0900   13.1930 C.3       6 GLL5        0.0000 
     76 CA        -17.8820   -7.9600   11.9610 C.3       4 GLP5        0.0000 
     77 CA        -19.7933   -7.4170   11.8160 C.3       2 GLC5        0.0000 
     78 CA        -22.0450   -7.4160   11.8690 C.3       6 GLL5        0.0000 
     79 CA        -21.2190   -1.9465    6.2105 C.3       2 GLC5        0.0000 
     80 CA        -20.4110   -0.2800    5.3770 C.3       4 GLP5        0.0000 
     81 CA        -20.1050   -4.3635    6.9300 C.3       2 GLC5        0.0000 
     82 CA        -22.1310   -3.5240    6.2890 C.3       6 GLL5        0.0000 
     83 CA        -18.1830   -5.1140    6.8160 C.3       4 GLP5        0.0000 
     84 CA        -22.3053   -2.1605    1.8759 C.3       2 GLC5        0.0000 
     85 CA        -21.8590   -4.4640    2.8870 C.3       6 GLL5        0.0000 
     86 CA        -22.7890   -0.4590    1.2720 C.3       4 GLP5        0.0000 
     87 CA        -23.1007   -3.9780    1.2249 C.3       2 GLC5        0.0000 
     88 CA        -21.1540   -3.6170    1.8070 C.3       6 GLL5        0.0000 
@<TRIPOS>BOND
@<TRIPOS>SUBSTRUCTURE
     1 ALC1       21 GROUP        1 X    ALC  0     ROOT ALC X 1
     2 GLC5        1 GROUP        1 X    GLC  0     **** GLC X 6
     3 ALP1       23 GROUP        1 Y    ALP  0     ROOT ALP Y 8
     4 GLP5        3 GROUP        1 Y    GLP  0     **** GLP Y 13
     5 ALL1       22 GROUP        1 Z    ALL  0     ROOT ALL Z 15
     6 GLL5        2 GROUP        1 Z    GLL  0     **** GLL Z 20
@<TRIPOS>SET

