#    Name: 3l0l_HC3_1_ligand
#    Modification time : Mon Mar 24 20:45:16 2014

@<TRIPOS>MOLECULE
3l0l_HC3_1_ligand
   75    78     1     0     0
SMALL
NO_CHARGES


@<TRIPOS>ATOM
      1 C18       -24.7130   -4.9120    7.4670 C.3       1 HC31001     0.0000 
      2 C13       -23.3550   -5.5010    7.0400 C.3       1 HC31001     0.0000 
      3 C12       -23.4520   -7.0360    6.9330 C.3       1 HC31001     0.0000 
      4 C11       -23.7510   -7.6240    8.3390 C.3       1 HC31001     0.0000 
      5 C9        -22.7040   -7.2370    9.4130 C.3       1 HC31001     0.0000 
      6 C10       -23.0130   -7.8860   10.7810 C.3       1 HC31001     0.0000 
      7 C19       -24.4600   -7.5800   11.2760 C.3       1 HC31001     0.0000 
      8 C1        -22.8270   -9.4100   10.6470 C.3       1 HC31001     0.0000 
      9 C2        -22.7760  -10.1610   11.9970 C.3       1 HC31001     0.0000 
     10 C3        -21.7010   -9.5880   12.9400 C.3       1 HC31001     0.0000 
     11 O1        -21.8710  -10.2030   14.2120 O.3       1 HC31001     0.0000 
     12 C4        -21.8830   -8.0900   13.1930 C.3       1 HC31001     0.0000 
     13 C5        -22.0450   -7.4160   11.8690 C.2       1 HC31001     0.0000 
     14 C6        -21.3640   -6.3320   11.4730 C.2       1 HC31001     0.0000 
     15 C7        -21.1990   -5.3460   10.3570 C.3       1 HC31001     0.0000 
     16 C8        -22.4020   -5.6730    9.4630 C.3       1 HC31001     0.0000 
     17 C14       -22.2080   -5.1890    8.0190 C.3       1 HC31001     0.0000 
     18 C15       -21.9230   -3.7020    7.7990 C.3       1 HC31001     0.0000 
     19 C16       -22.1310   -3.5240    6.2890 C.3       1 HC31001     0.0000 
     20 C17       -22.8350   -4.7990    5.7710 C.3       1 HC31001     0.0000 
     21 C20       -23.8040   -4.4670    4.6180 C.3       1 HC31001     0.0000 
     22 C21       -24.5500   -5.6990    4.0860 C.3       1 HC31001     0.0000 
     23 C22       -23.1190   -3.7500    3.4180 C.3       1 HC31001     0.0000 
     24 C23       -21.8590   -4.4640    2.8870 C.3       1 HC31001     0.0000 
     25 C24       -21.1540   -3.6170    1.8070 C.3       1 HC31001     0.0000 
     26 C25       -19.9830   -4.2850    1.0690 C.3       1 HC31001     0.0000 
     27 C26       -20.3270   -5.6590    0.5020 C.3       1 HC31001     0.0000 
     28 C27       -19.5780   -3.3670   -0.0890 C.3       1 HC31001     0.0000 
     29 O2        -18.8800   -4.3790    1.9820 O.3       1 HC31001     0.0000 
     30 H         -22.5150   -7.4314    6.5789 H         1 HC31001     0.0000 
     31 H         -24.2539   -7.2996    6.2642 H         1 HC31001     0.0000 
     32 H         -23.7918   -8.7170    8.2615 H         1 HC31001     0.0000 
     33 H         -24.7380   -7.2738    8.6639 H         1 HC31001     0.0000 
     34 H         -21.7285   -7.7094    9.0612 H         1 HC31001     0.0000 
     35 H         -21.8949   -9.6078   10.0980 H         1 HC31001     0.0000 
     36 H         -23.6537   -9.8180   10.0475 H         1 HC31001     0.0000 
     37 H         -22.5609  -11.2138   11.8080 H         1 HC31001     0.0000 
     38 H         -23.7514  -10.0865   12.4801 H         1 HC31001     0.0000 
     39 H         -20.7415   -9.7665   12.5433 H         1 HC31001     0.0000 
     40 H         -21.0092   -7.7118   13.7032 H         1 HC31001     0.0000 
     41 H         -22.7635   -7.9415   13.8010 H         1 HC31001     0.0000 
     42 H         -20.5732   -5.9930   12.3102 H         1 HC31001     0.0000 
     43 H         -20.3068   -5.5308    9.8229 H         1 HC31001     0.0000 
     44 H         -21.2891   -4.3565   10.7151 H         1 HC31001     0.0000 
     45 H         -23.2917   -5.2012    9.8631 H         1 HC31001     0.0000 
     46 H         -21.3137   -5.7268    7.5847 H         1 HC31001     0.0000 
     47 H         -20.9182   -3.4876    8.0481 H         1 HC31001     0.0000 
     48 H         -22.6287   -3.1185    8.3272 H         1 HC31001     0.0000 
     49 H         -21.1819   -3.4228    5.8033 H         1 HC31001     0.0000 
     50 H         -22.7595   -2.6758    6.1087 H         1 HC31001     0.0000 
     51 H         -22.0080   -5.4283    5.3700 H         1 HC31001     0.0000 
     52 H         -24.5694   -3.7695    5.0029 H         1 HC31001     0.0000 
     53 H         -22.8485   -2.7313    3.7299 H         1 HC31001     0.0000 
     54 H         -23.8505   -3.6611    2.6024 H         1 HC31001     0.0000 
     55 H         -22.1458   -5.4203    2.4580 H         1 HC31001     0.0000 
     56 H         -21.1715   -4.6331    3.7114 H         1 HC31001     0.0000 
     57 H         -20.7881   -2.6803    2.2793 H         1 HC31001     0.0000 
     58 H         -21.9120   -3.3016    1.0584 H         1 HC31001     0.0000 
     59 H         -25.0097   -5.2673    8.3534 H         1 HC31001     0.0000 
     60 H         -24.6769   -3.9159    7.5477 H         1 HC31001     0.0000 
     61 H         -25.4345   -5.1268    6.8087 H         1 HC31001     0.0000 
     62 H         -24.6477   -8.0061   12.1610 H         1 HC31001     0.0000 
     63 H         -24.6155   -6.5982   11.3846 H         1 HC31001     0.0000 
     64 H         -25.1505   -7.9171   10.6360 H         1 HC31001     0.0000 
     65 H         -23.9200   -6.3919    3.7354 H         1 HC31001     0.0000 
     66 H         -25.1000   -6.1361    4.7976 H         1 HC31001     0.0000 
     67 H         -25.1714   -5.4630    3.3389 H         1 HC31001     0.0000 
     68 H         -19.5495   -6.0694    0.0255 H         1 HC31001     0.0000 
     69 H         -20.6018   -6.2988    1.2198 H         1 HC31001     0.0000 
     70 H         -21.0809   -5.6122   -0.1533 H         1 HC31001     0.0000 
     71 H         -19.2932   -2.4647    0.2345 H         1 HC31001     0.0000 
     72 H         -18.8147   -3.7449   -0.6130 H         1 HC31001     0.0000 
     73 H         -20.3316   -3.2239   -0.7306 H         1 HC31001     0.0000 
     74 H         -21.0057  -10.0521   14.6900 H         1 HC31001     0.0000 
     75 H         -18.0695   -4.4562    1.4014 H         1 HC31001     0.0000 
@<TRIPOS>BOND
     1    2    1 1    
     2   59    1 1    
     3   60    1 1    
     4   61    1 1    
     5    3    2 1    
     6   17    2 1    
     7   20    2 1    
     8    4    3 1    
     9   30    3 1    
    10   31    3 1    
    11    5    4 1    
    12   32    4 1    
    13   33    4 1    
    14    6    5 1    
    15   16    5 1    
    16   34    5 1    
    17    7    6 1    
    18    8    6 1    
    19   13    6 1    
    20   62    7 1    
    21   63    7 1    
    22   64    7 1    
    23    9    8 1    
    24   35    8 1    
    25   36    8 1    
    26   10    9 1    
    27   37    9 1    
    28   38    9 1    
    29   11   10 1    
    30   12   10 1    
    31   39   10 1    
    32   74   11 1    
    33   13   12 1    
    34   40   12 1    
    35   41   12 1    
    36   14   13 2    
    37   15   14 1    
    38   42   14 1    
    39   16   15 1    
    40   43   15 1    
    41   44   15 1    
    42   17   16 1    
    43   45   16 1    
    44   18   17 1    
    45   46   17 1    
    46   19   18 1    
    47   47   18 1    
    48   48   18 1    
    49   20   19 1    
    50   49   19 1    
    51   50   19 1    
    52   21   20 1    
    53   51   20 1    
    54   22   21 1    
    55   23   21 1    
    56   52   21 1    
    57   65   22 1    
    58   66   22 1    
    59   67   22 1    
    60   24   23 1    
    61   53   23 1    
    62   54   23 1    
    63   25   24 1    
    64   55   24 1    
    65   56   24 1    
    66   26   25 1    
    67   57   25 1    
    68   58   25 1    
    69   27   26 1    
    70   28   26 1    
    71   29   26 1    
    72   68   27 1    
    73   69   27 1    
    74   70   27 1    
    75   71   28 1    
    76   72   28 1    
    77   73   28 1    
    78   75   29 1    
@<TRIPOS>SUBSTRUCTURE
     1 HC31001     1 GROUP   
@<TRIPOS>SET

