#    Name: 4neu_Q1A_1_INTS_M
#    Modification time : Tue Mar 25 13:03:45 2014

@<TRIPOS>MOLECULE
4neu_Q1A_1_INTS_M
   96     0     9     0     0
SMALL
NO_CHARGES


@<TRIPOS>ATOM
      1 CA         25.0090   60.3685   54.5395 C.3       3 GLC5        0.0000 
      2 CA         26.9320   60.9870   53.8380 C.3       9 GLL5        0.0000 
      3 CA         23.0860   59.7500   55.2410 C.3       6 GLP5        0.0000 
      4 CA         30.0885   60.7045   51.0630 C.3       3 GLC5        0.0000 
      5 CA         29.4880   61.3650   52.8840 C.3       9 GLL5        0.0000 
      6 CA         30.6890   60.0440   49.2420 C.3       6 GLP5        0.0000 
      7 CA         31.3775   61.8660   52.6725 C.3       3 GLC5        0.0000 
      8 CA         33.2670   62.3670   52.4610 C.3       6 GLP5        0.0000 
      9 CA         33.1150   57.7920   55.0695 C.3       3 GLC5        0.0000 
     10 CA         34.0770   59.3860   54.8050 C.3       9 GLL5        0.0000 
     11 CA         32.1530   56.1980   55.3340 C.3       6 GLP5        0.0000 
     12 CA         35.5400   59.6220   53.1835 C.3       3 GLC5        0.0000 
     13 CA         37.0030   59.8580   51.5620 C.3       6 GLP5        0.0000 
     14 CA         34.1175   57.1875   52.6635 C.3       3 GLC5        0.0000 
     15 CA         32.9860   58.9020   52.8160 C.3       9 GLL5        0.0000 
     16 CA         35.2490   55.4730   52.5110 C.3       6 GLP5        0.0000 
     17 CA         34.5075   59.3615   51.6095 C.3       3 GLC5        0.0000 
     18 CA         36.0290   59.8210   50.4030 C.3       6 GLP5        0.0000 
     19 CA         23.3155   64.4870   44.6280 C.3       3 GLC5        0.0000 
     20 CA         25.5430   64.7990   44.6690 C.3       9 GLL5        0.0000 
     21 CA         21.0880   64.1750   44.5870 C.3       6 GLP5        0.0000 
     22 CA         27.1840   63.9175   44.3555 C.3       3 GLC5        0.0000 
     23 CA         28.8250   63.0360   44.0420 C.3       6 GLP5        0.0000 
     24 CA         26.2765   66.2295   43.3475 C.3       3 GLC5        0.0000 
     25 CA         27.0100   67.6600   42.0260 C.3       6 GLP5        0.0000 
     26 CA         27.9310   64.5690   45.1040 C.3       3 GLC5        0.0000 
     27 CA         27.0370   66.1020   46.1660 C.3       9 GLL5        0.0000 
     28 CA         27.5670   67.7010   44.8350 C.3       3 GLC5        0.0000 
     29 CA         28.0970   69.3000   43.5040 C.3       6 GLP5        0.0000 
     30 CA         25.8805   67.3035   43.8260 C.3       3 GLC5        0.0000 
     31 CA         24.7510   66.9470   45.6260 C.3       9 GLL5        0.0000 
     32 CA         23.9020   68.3175   44.3005 C.3       3 GLC5        0.0000 
     33 CA         23.0530   69.6880   42.9750 C.3       6 GLP5        0.0000 
     34 CA         23.3800   67.7750   46.7515 C.3       3 GLC5        0.0000 
     35 CA         22.0090   68.6030   47.8770 C.3       6 GLP5        0.0000 
     36 CA         27.5165   63.1480   48.2165 C.3       3 GLC5        0.0000 
     37 CA         25.6850   64.3010   48.0410 C.3       9 GLL5        0.0000 
     38 CA         29.3480   61.9950   48.3920 C.3       6 GLP5        0.0000 
     39 O          23.9840   62.3980   50.9945 O.2       1 ALC1        0.0000 
     40 O          24.8690   62.9560   50.0170 O.2       7 ALL1        0.0000 
     41 O          23.0990   61.8400   51.9720 O.2       4 ALP1        0.0000 
     42 N          27.3380   64.8365   50.4885 N.am      2 SEC2        0.0000 
     43 N          27.0310   63.4660   50.4510 N.am      8 SEL2        0.0000 
     44 N          27.6450   66.2070   50.5260 N.am      5 SEP2        0.0000 
     45 O          24.5695   61.8375   51.8380 O.2       1 ALC1        0.0000 
     46 O          26.0400   61.8350   51.7040 O.2       7 ALL1        0.0000 
     47 CA         28.2020   59.7115   56.4465 C.3       3 GLC5        0.0000 
     48 CA         28.0220   60.6750   54.6320 C.3       9 GLL5        0.0000 
     49 CA         28.3820   58.7480   58.2610 C.3       6 GLP5        0.0000 
     50 CA         28.8785   61.8265   50.2360 C.3       3 GLC5        0.0000 
     51 CA         28.4090   61.6580   52.0800 C.3       9 GLL5        0.0000 
     52 CA         29.9645   63.3165   56.3420 C.3       3 GLC5        0.0000 
     53 CA         30.5100   61.1650   56.2610 C.3       9 GLL5        0.0000 
     54 CA         29.4190   65.4680   56.4230 C.3       6 GLP5        0.0000 
     55 O          36.6075   59.2600   54.8560 O.2       1 ALC1        0.0000 
     56 O          35.2090   59.3270   55.5320 O.2       7 ALL1        0.0000 
     57 O          38.0060   59.1930   54.1800 O.2       4 ALP1        0.0000 
     58 N          35.2200   58.2350   52.9230 N.am      2 SEC2        0.0000 
     59 N          34.0740   58.8680   53.5790 N.am      8 SEL2        0.0000 
     60 N          36.3660   57.6020   52.2670 N.am      5 SEP2        0.0000 
     61 CA         29.5757   63.1532   51.7455 C.3       3 GLC5        0.0000 
     62 CA         30.2030   64.7950   51.0090 C.3       6 GLP5        0.0000 
     63 CA         32.1917   61.3392   53.6058 C.3       3 GLC5        0.0000 
     64 CA         30.5110   60.5890   55.0050 C.3       9 GLL5        0.0000 
     65 CA         32.3925   59.6568   58.4153 C.3       3 GLC5        0.0000 
     66 CA         32.7900   60.5640   56.6300 C.3       9 GLL5        0.0000 
     67 CA         32.5760   58.4730   59.9780 C.3       6 GLP5        0.0000 
     68 CA         29.7256   59.8725   57.3075 C.3       3 GLC5        0.0000 
     69 CA         31.6280   61.1170   57.0750 C.3       9 GLL5        0.0000 
     70 CA         33.3717   61.0277   53.7647 C.3       3 GLC5        0.0000 
     71 CA         32.8760   59.9910   55.3320 C.3       9 GLL5        0.0000 
     72 CA         31.5452   59.6120   51.1265 C.3       3 GLC5        0.0000 
     73 CA         32.8342   60.7735   52.7360 C.3       3 GLC5        0.0000 
     74 CA         31.8170   59.4580   53.2060 C.3       9 GLL5        0.0000 
     75 CA         24.5469   65.6760   43.6372 C.3       3 GLC5        0.0000 
     76 CA         25.5860   65.6990   45.9010 C.3       9 GLL5        0.0000 
     77 CA         23.9360   65.2540   41.8190 C.3       6 GLP5        0.0000 
     78 CA         25.6211   66.9599   47.8184 C.3       3 GLC5        0.0000 
     79 CA         25.7110   67.4960   49.8070 C.3       6 GLP5        0.0000 
     80 CA         24.9268   62.5943   47.2685 C.3       3 GLC5        0.0000 
     81 CA         24.9980   64.9380   47.0850 C.3       9 GLL5        0.0000 
     82 CA         24.5120   60.5690   46.9740 C.3       6 GLP5        0.0000 
     83 CA         25.5263   66.0577   48.6850 C.3       3 GLC5        0.0000 
     84 CA         27.2518   60.7878   50.4282 C.3       3 GLC5        0.0000 
     85 CA         27.1200   61.4990   52.5590 C.3       9 GLL5        0.0000 
     86 CA         26.7390   59.9970   48.5370 C.3       6 GLP5        0.0000 
     87 CA         29.3193   58.6854   55.0004 C.3       3 GLC5        0.0000 
     88 CA         29.6700   56.6850   55.3960 C.3       6 GLP5        0.0000 
     89 CA         32.3903   58.5529   56.4266 C.3       3 GLC5        0.0000 
     90 CA         32.2380   56.6900   56.7610 C.3       6 GLP5        0.0000 
     91 CA         32.1074   57.9025   54.5438 C.3       3 GLC5        0.0000 
     92 CA         31.7220   60.0340   54.4960 C.3       9 GLL5        0.0000 
     93 CA         27.9131   59.5711   52.4609 C.3       3 GLC5        0.0000 
     94 CA         27.6110   57.9770   51.5650 C.3       6 GLP5        0.0000 
     95 CA         28.5401   62.9716   53.7279 C.3       3 GLC5        0.0000 
     96 CA         28.8650   64.7780   54.0990 C.3       6 GLP5        0.0000 
@<TRIPOS>BOND
@<TRIPOS>SUBSTRUCTURE
     1 ALC1       39 GROUP        1 X    ALC  0     ROOT ALC X 1
     2 SEC2       42 GROUP        1 X    SEC  0     **** SEC X 2
     3 GLC5        1 GROUP        1 X    GLC  0     **** GLC X 6
     4 ALP1       41 GROUP        1 Y    ALP  0     ROOT ALP Y 8
     5 SEP2       44 GROUP        1 Y    SEP  0     **** SEP Y 9
     6 GLP5        3 GROUP        1 Y    GLP  0     **** GLP Y 13
     7 ALL1       40 GROUP        1 Z    ALL  0     ROOT ALL Z 15
     8 SEL2       43 GROUP        1 Z    SEL  0     **** SEL Z 16
     9 GLL5        2 GROUP        1 Z    GLL  0     **** GLL Z 20
@<TRIPOS>SET

