#    Name: 4neu_Q1A_1_ligand
#    Modification time : Tue Mar 25 13:03:45 2014

@<TRIPOS>MOLECULE
4neu_Q1A_1_ligand
   53    56     1     0     0
SMALL
NO_CHARGES


@<TRIPOS>ATOM
      1 N1         23.5010   64.0120   48.4790 N.2       1 Q1A402      0.0000 
      2 C10        26.9320   60.9870   53.8380 C.ar      1 Q1A402      0.0000 
      3 C13        29.4880   61.3650   52.8840 C.ar      1 Q1A402      0.0000 
      4 C15        30.5110   60.5890   55.0050 C.ar      1 Q1A402      0.0000 
      5 C17        31.6280   61.1170   57.0750 C.ar      1 Q1A402      0.0000 
      6 C20        34.0770   59.3860   54.8050 C.ar      1 Q1A402      0.0000 
      7 C21        32.9860   58.9020   52.8160 C.ar      1 Q1A402      0.0000 
      8 C22        31.8170   59.4580   53.2060 C.ar      1 Q1A402      0.0000 
      9 C01        25.5430   64.7990   44.6690 C.3       1 Q1A402      0.0000 
     10 C02        25.5860   65.6990   45.9010 C.3       1 Q1A402      0.0000 
     11 C03        27.0370   66.1020   46.1660 C.3       1 Q1A402      0.0000 
     12 C04        24.7510   66.9470   45.6260 C.3       1 Q1A402      0.0000 
     13 C05        24.9980   64.9380   47.0850 C.2       1 Q1A402      0.0000 
     14 C06        25.6850   64.3010   48.0410 C.2       1 Q1A402      0.0000 
     15 C07        24.7090   63.7790   48.9080 C.2       1 Q1A402      0.0000 
     16 N01        24.8690   62.9560   50.0170 N.am      1 Q1A402      0.0000 
     17 C08        26.0560   62.7840   50.7150 C.2       1 Q1A402      0.0000 
     18 O01        27.0310   63.4660   50.4510 O.2       1 Q1A402      0.0000 
     19 N02        26.0400   61.8350   51.7040 N.am      1 Q1A402      0.0000 
     20 C09        27.1200   61.4990   52.5590 C.ar      1 Q1A402      0.0000 
     21 C11        28.0220   60.6750   54.6320 C.ar      1 Q1A402      0.0000 
     22 C12        29.3190   60.8040   54.1500 C.ar      1 Q1A402      0.0000 
     23 C14        28.4090   61.6580   52.0800 C.ar      1 Q1A402      0.0000 
     24 C16        30.5100   61.1650   56.2610 C.ar      1 Q1A402      0.0000 
     25 C18        32.7900   60.5640   56.6300 C.ar      1 Q1A402      0.0000 
     26 C19        32.8760   59.9910   55.3320 C.ar      1 Q1A402      0.0000 
     27 N03        35.2090   59.3270   55.5320 N.pl3     1 Q1A402      0.0000 
     28 N04        34.0740   58.8680   53.5790 N.ar      1 Q1A402      0.0000 
     29 C1         31.7220   60.0340   54.4960 C.ar      1 Q1A402      0.0000 
     30 O1         23.6780   64.7850   47.3030 O.3       1 Q1A402      0.0000 
     31 H          25.9753   60.8401   54.1940 H         1 Q1A402      0.0000 
     32 H          30.4513   61.5630   52.5476 H         1 Q1A402      0.0000 
     33 H          31.5702   61.5102   58.0355 H         1 Q1A402      0.0000 
     34 H          33.0281   58.4687   51.8395 H         1 Q1A402      0.0000 
     35 H          30.9925   59.4770   52.5966 H         1 Q1A402      0.0000 
     36 H          26.6099   64.2012   48.1464 H         1 Q1A402      0.0000 
     37 H          24.0160   62.4176   50.3555 H         1 Q1A402      0.0000 
     38 H          25.1339   61.2852   51.8600 H         1 Q1A402      0.0000 
     39 H          27.8711   60.3398   55.6012 H         1 Q1A402      0.0000 
     40 H          28.5586   61.9977   51.1160 H         1 Q1A402      0.0000 
     41 H          29.6524   61.6443   56.6021 H         1 Q1A402      0.0000 
     42 H          33.6364   60.5477   57.2249 H         1 Q1A402      0.0000 
     43 H          36.0648   59.3265   55.0146 H         1 Q1A402      0.0000 
     44 H          35.0930   59.2889   56.5245 H         1 Q1A402      0.0000 
     45 H          25.9025   65.2615   43.8585 H         1 Q1A402      0.0000 
     46 H          26.0847   63.9682   44.7969 H         1 Q1A402      0.0000 
     47 H          24.6104   64.5104   44.4523 H         1 Q1A402      0.0000 
     48 H          27.6188   65.3061   46.3334 H         1 Q1A402      0.0000 
     49 H          27.4324   66.5965   45.3920 H         1 Q1A402      0.0000 
     50 H          27.1171   66.6970   46.9657 H         1 Q1A402      0.0000 
     51 H          24.7477   67.5712   46.4072 H         1 Q1A402      0.0000 
     52 H          25.0985   67.4609   44.8417 H         1 Q1A402      0.0000 
     53 H          23.7974   66.7197   45.4284 H         1 Q1A402      0.0000 
@<TRIPOS>BOND
     1   15    1 2    
     2   30    1 1    
     3   20    2 ar   
     4   21    2 ar   
     5   31    2 1    
     6   22    3 ar   
     7   23    3 ar   
     8   32    3 1    
     9   22    4 1    
    10   24    4 ar   
    11   29    4 ar   
    12   24    5 ar   
    13   25    5 ar   
    14   33    5 1    
    15   26    6 ar   
    16   27    6 1    
    17   28    6 ar   
    18    8    7 ar   
    19   28    7 ar   
    20   34    7 1    
    21   29    8 ar   
    22   35    8 1    
    23   10    9 1    
    24   45    9 1    
    25   46    9 1    
    26   47    9 1    
    27   11   10 1    
    28   12   10 1    
    29   13   10 1    
    30   48   11 1    
    31   49   11 1    
    32   50   11 1    
    33   51   12 1    
    34   52   12 1    
    35   53   12 1    
    36   14   13 2    
    37   30   13 1    
    38   15   14 1    
    39   36   14 1    
    40   16   15 1    
    41   17   16 am   
    42   37   16 1    
    43   18   17 2    
    44   19   17 am   
    45   20   19 1    
    46   38   19 1    
    47   23   20 ar   
    48   22   21 ar   
    49   39   21 1    
    50   40   23 1    
    51   41   24 1    
    52   26   25 ar   
    53   42   25 1    
    54   29   26 ar   
    55   43   27 1    
    56   44   27 1    
@<TRIPOS>SUBSTRUCTURE
     1 Q1A402      1 GROUP   
@<TRIPOS>SET

