#    Name: 3sa9_A68_1_INTS_M
#    Modification time : Mon Apr  7 22:10:29 2014

@<TRIPOS>MOLECULE
3sa9_A68_1_INTS_M
   96     0     9     0     0
SMALL
NO_CHARGES


@<TRIPOS>ATOM
      1 N          22.7210   23.8655   12.6035 N.am      2 SEC2        0.0000 
      2 N          21.7890   24.5560   11.7280 N.am      8 SEL2        0.0000 
      3 N          23.6530   23.1750   13.4790 N.am      5 SEP2        0.0000 
      4 O          21.7125   27.1835    9.3820 O.2       1 ALC1        0.0000 
      5 O          21.7320   26.5980   10.7430 O.2       7 ALL1        0.0000 
      6 O          21.6930   27.7690    8.0210 O.2       4 ALP1        0.0000 
      7 CA         22.6610   26.1695   13.4330 C.3       3 GLC5        0.0000 
      8 CA         22.3040   27.3610   11.8510 C.3       9 GLL5        0.0000 
      9 CA         23.0180   24.9780   15.0150 C.3       6 GLP5        0.0000 
     10 CA         26.0665   28.0335    9.5620 C.3       3 GLC5        0.0000 
     11 CA         24.5470   27.3320   10.5690 C.3       9 GLL5        0.0000 
     12 CA         27.5860   28.7350    8.5550 C.3       6 GLP5        0.0000 
     13 CA         24.1440   27.3710   14.0095 C.3       3 GLC5        0.0000 
     14 CA         24.2270   28.7280   12.6450 C.3       9 GLL5        0.0000 
     15 CA         24.0610   26.0140   15.3740 C.3       6 GLP5        0.0000 
     16 CA         26.3990   28.5760   12.2155 C.3       3 GLC5        0.0000 
     17 CA         28.5710   28.4240   11.7860 C.3       6 GLP5        0.0000 
     18 CA         24.9425   29.9265   13.9390 C.3       3 GLC5        0.0000 
     19 CA         25.6580   31.1250   15.2330 C.3       6 GLP5        0.0000 
     20 CA         24.5475   26.0580   13.3275 C.3       3 GLC5        0.0000 
     21 CA         25.0340   26.1020   11.2810 C.3       9 GLL5        0.0000 
     22 CA         26.5745   24.9325   11.3375 C.3       3 GLC5        0.0000 
     23 CA         28.1150   23.7630   11.3940 C.3       6 GLP5        0.0000 
     24 CA         23.0350   32.6630   18.6620 C.3       3 GLC5        0.0000 
     25 CA         22.3240   33.3410   16.9180 C.3       9 GLL5        0.0000 
     26 CA         23.7460   31.9850   20.4060 C.3       6 GLP5        0.0000 
     27 CA         23.2710   34.6210   15.3785 C.3       3 GLC5        0.0000 
     28 CA         24.2180   35.9010   13.8390 C.3       6 GLP5        0.0000 
     29 CA         24.0275   33.9630   17.4105 C.3       3 GLC5        0.0000 
     30 CA         25.7310   34.5850   17.9030 C.3       6 GLP5        0.0000 
     31 CA         23.1590   34.1730   14.1990 C.3       3 GLC5        0.0000 
     32 CA         22.1000   32.4450   14.5590 C.3       9 GLL5        0.0000 
     33 CA         21.2165   33.8805   13.3150 C.3       3 GLC5        0.0000 
     34 CA         20.3330   35.3160   12.0710 C.3       6 GLP5        0.0000 
     35 CA         23.0000   32.1330   12.6450 C.3       3 GLC5        0.0000 
     36 CA         23.9000   31.8210   10.7310 C.3       6 GLP5        0.0000 
     37 CA         17.5865   30.4090   17.7165 C.3       3 GLC5        0.0000 
     38 CA         19.0340   30.3270   16.0900 C.3       9 GLL5        0.0000 
     39 CA         16.1390   30.4910   19.3430 C.3       6 GLP5        0.0000 
     40 N          20.8430   27.7855   17.2920 N.am      2 SEC2        0.0000 
     41 N          19.9800   28.1360   16.3320 N.am      8 SEL2        0.0000 
     42 N          21.7060   27.4350   18.2520 N.am      5 SEP2        0.0000 
     43 O          18.7875   27.9480   16.8290 O.2       1 ALC1        0.0000 
     44 O          19.9800   28.1360   16.3320 O.2       7 ALL1        0.0000 
     45 O          17.5950   27.7600   17.3260 O.2       4 ALP1        0.0000 
     46 O          19.4495   27.7105   17.6790 O.2       1 ALC1        0.0000 
     47 O          18.9190   27.2850   19.0260 O.2       4 ALP1        0.0000 
     48 O          20.4285   26.5845   14.0750 O.2       1 ALC1        0.0000 
     49 O          20.6080   28.0100   13.4740 O.2       7 ALL1        0.0000 
     50 O          20.2490   25.1590   14.6760 O.2       4 ALP1        0.0000 
     51 CA         16.9340   30.5240   11.1930 C.3       3 GLC5        0.0000 
     52 CA         17.3610   28.5180   11.7630 C.3       9 GLL5        0.0000 
     53 CA         16.5070   32.5300   10.6230 C.3       6 GLP5        0.0000 
     54 CA         16.9870   30.0770    9.8370 C.3       3 GLC5        0.0000 
     55 CA         17.0900   28.1920   10.4340 C.3       9 GLL5        0.0000 
     56 CA         16.8840   31.9620    9.2400 C.3       6 GLP5        0.0000 
     57 CA         15.2520   30.8265   15.3360 C.3       3 GLC5        0.0000 
     58 CA         16.0520   32.5840   16.4610 C.3       9 GLL5        0.0000 
     59 CA         14.4520   29.0690   14.2110 C.3       6 GLP5        0.0000 
     60 CA         15.3100   36.5995   15.5525 C.3       3 GLC5        0.0000 
     61 CA         16.5620   35.3090   16.6210 C.3       9 GLL5        0.0000 
     62 CA         14.0580   37.8900   14.4840 C.3       6 GLP5        0.0000 
     63 CA         14.3275   35.1475   15.7640 C.3       3 GLC5        0.0000 
     64 CA         15.5800   34.7500   17.4300 C.3       9 GLL5        0.0000 
     65 CA         13.0750   35.5450   14.0980 C.3       6 GLP5        0.0000 
     66 N          14.4565   34.7660   19.7530 N.am      2 SEC2        0.0000 
     67 N          14.8670   35.5370   18.3100 N.am      8 SEL2        0.0000 
     68 N          14.0460   33.9950   21.1960 N.am      5 SEP2        0.0000 
     69 CA         15.8700   36.2620   20.4275 C.3       3 GLC5        0.0000 
     70 CA         15.3200   36.8450   18.6630 C.3       9 GLL5        0.0000 
     71 CA         16.4200   35.6790   22.1920 C.3       6 GLP5        0.0000 
     72 CA         13.7160   36.0210   19.4895 C.3       3 GLC5        0.0000 
     73 CA         12.1120   35.1970   20.3160 C.3       6 GLP5        0.0000 
     74 CA         14.2310   37.6110   17.1290 C.3       3 GLC5        0.0000 
     75 CA         13.1420   38.3770   15.5950 C.3       6 GLP5        0.0000 
     76 CA         23.8952   30.1260   11.3818 C.3       3 GLC5        0.0000 
     77 CA         26.6808   27.5705   11.3555 C.3       3 GLC5        0.0000 
     78 CA         23.8425   31.8864   15.3712 C.3       3 GLC5        0.0000 
     79 CA         15.7503   27.1300   11.4977 C.3       3 GLC5        0.0000 
     80 CA         14.2750   25.9050   11.8970 C.3       6 GLP5        0.0000 
     81 CA         16.0831   28.6024   13.3797 C.3       3 GLC5        0.0000 
     82 CA         15.9590   27.7172    8.9543 C.3       3 GLC5        0.0000 
     83 CA         14.6970   27.8820    7.7110 C.3       6 GLP5        0.0000 
     84 CA         18.5649   28.7010    9.5544 C.3       3 GLC5        0.0000 
     85 CA         17.3520   26.9130    9.9610 C.3       9 GLL5        0.0000 
     86 CA         19.8410   29.7680    8.5790 C.3       6 GLP5        0.0000 
     87 CA         15.9508   26.1698   11.1397 C.3       3 GLC5        0.0000 
     88 CA         17.2554   25.5336   13.7982 C.3       3 GLC5        0.0000 
     89 CA         18.1620   26.2930   12.1310 C.3       9 GLL5        0.0000 
     90 CA         16.3960   24.0440   14.8640 C.3       6 GLP5        0.0000 
     91 CA         16.1550   26.4177   12.1345 C.3       3 GLC5        0.0000 
     92 CA         15.5625   32.7642   14.1547 C.3       3 GLC5        0.0000 
     93 CA         14.5750   32.6660   12.2570 C.3       6 GLP5        0.0000 
     94 CA         15.9138   31.7368   18.1268 C.3       3 GLC5        0.0000 
     95 CA         13.7901   33.2986   16.5606 C.3       3 GLC5        0.0000 
     96 CA         11.9460   32.7310   15.9510 C.3       6 GLP5        0.0000 
@<TRIPOS>BOND
@<TRIPOS>SUBSTRUCTURE
     1 ALC1        4 GROUP        1 X    ALC  0     ROOT ALC X 1
     2 SEC2        1 GROUP        1 X    SEC  0     **** SEC X 2
     3 GLC5        7 GROUP        1 X    GLC  0     **** GLC X 6
     4 ALP1        6 GROUP        1 Y    ALP  0     ROOT ALP Y 8
     5 SEP2        3 GROUP        1 Y    SEP  0     **** SEP Y 9
     6 GLP5        9 GROUP        1 Y    GLP  0     **** GLP Y 13
     7 ALL1        5 GROUP        1 Z    ALL  0     ROOT ALL Z 15
     8 SEL2        2 GROUP        1 Z    SEL  0     **** SEL Z 16
     9 GLL5        8 GROUP        1 Z    GLL  0     **** GLL Z 20
@<TRIPOS>SET

