#    Name: 3sa9_A68_1_ligand
#    Modification time : Mon Apr  7 22:10:29 2014

@<TRIPOS>MOLECULE
3sa9_A68_1_ligand
   82    83     1     0     0
SMALL
NO_CHARGES


@<TRIPOS>ATOM
      1 C27        21.5300   25.2780   10.7690 C.2       1 A68200      0.0000 
      2 O27        21.7890   24.5560   11.7280 O.2       1 A68200      0.0000 
      3 C28        20.9790   24.6870    9.5040 C.3       1 A68200      0.0000 
      4 N27        21.7320   26.5980   10.7430 N.am      1 A68200      0.0000 
      5 C22        22.3040   27.3610   11.8510 C.3       1 A68200      0.0000 
      6 C21        21.2830   28.3480   12.3670 C.2       1 A68200      0.0000 
      7 O22        21.1020   29.3930   11.7520 O.2       1 A68200      0.0000 
      8 C23        23.5540   28.1340   11.4200 C.3       1 A68200      0.0000 
      9 C25        24.5470   27.3320   10.5690 C.3       1 A68200      0.0000 
     10 C24        24.2270   28.7280   12.6450 C.3       1 A68200      0.0000 
     11 C26        25.0340   26.1020   11.2810 C.3       1 A68200      0.0000 
     12 N11        19.2770   31.5830   15.3300 N.pl3     1 A68200      0.0000 
     13 C12        20.0680   32.5950   16.0890 C.3       1 A68200      0.0000 
     14 C13        21.5840   32.3600   16.0020 C.3       1 A68200      0.0000 
     15 C14        22.3240   33.3410   16.9180 C.3       1 A68200      0.0000 
     16 C15        22.1000   32.4450   14.5590 C.3       1 A68200      0.0000 
     17 C16        19.0340   30.3270   16.0900 C.3       1 A68200      0.0000 
     18 C17        19.9390   29.2530   15.4620 C.3       1 A68200      0.0000 
     19 O18        19.9800   28.1360   16.3320 O.3       1 A68200      0.0000 
     20 C19        19.5220   28.7800   14.0640 C.3       1 A68200      0.0000 
     21 N20        20.6080   28.0100   13.4740 N.am      1 A68200      0.0000 
     22 C32        18.2270   27.9390   14.0550 C.3       1 A68200      0.0000 
     23 C33        17.3610   28.5180   11.7630 C.ar      1 A68200      0.0000 
     24 C34        17.0900   28.1920   10.4340 C.ar      1 A68200      0.0000 
     25 C35        17.3520   26.9130    9.9610 C.ar      1 A68200      0.0000 
     26 C36        17.9010   25.9560   10.8040 C.ar      1 A68200      0.0000 
     27 C37        18.1620   26.2930   12.1310 C.ar      1 A68200      0.0000 
     28 C38        17.9080   27.5680   12.6130 C.ar      1 A68200      0.0000 
     29 S8         17.9320   32.2060   14.6290 S.o2      1 A68200      0.0000 
     30 O9         17.1510   31.1270   14.1590 O.2       1 A68200      0.0000 
     31 O10        18.4400   32.9890   13.5240 O.2       1 A68200      0.0000 
     32 C5         17.0480   33.1410   15.6440 C.ar      1 A68200      0.0000 
     33 C4         17.2870   34.5090   15.7290 C.ar      1 A68200      0.0000 
     34 C6         16.0520   32.5840   16.4610 C.ar      1 A68200      0.0000 
     35 C3         16.5620   35.3090   16.6210 C.ar      1 A68200      0.0000 
     36 C7         15.3250   33.3810   17.3600 C.ar      1 A68200      0.0000 
     37 C2         15.5800   34.7500   17.4300 C.ar      1 A68200      0.0000 
     38 O1         14.8670   35.5370   18.3100 O.3       1 A68200      0.0000 
     39 C1         15.3200   36.8450   18.6630 C.3       1 A68200      0.0000 
     40 H          21.4799   27.1718    9.8931 H         1 A68200      0.0000 
     41 H          22.5790   26.7044   12.6636 H         1 A68200      0.0000 
     42 H          23.2069   28.9939   10.8045 H         1 A68200      0.0000 
     43 H          25.3962   27.9789   10.3207 H         1 A68200      0.0000 
     44 H          24.0545   27.0488    9.6317 H         1 A68200      0.0000 
     45 H          19.7774   32.5812   17.1511 H         1 A68200      0.0000 
     46 H          19.8532   33.6051   15.7068 H         1 A68200      0.0000 
     47 H          21.7840   31.3474   16.3735 H         1 A68200      0.0000 
     48 H          18.0102   30.0150   15.9940 H         1 A68200      0.0000 
     49 H          19.3062   30.4472   17.1225 H         1 A68200      0.0000 
     50 H          20.9477   29.6845   15.3785 H         1 A68200      0.0000 
     51 H          19.3417   29.6691   13.4509 H         1 A68200      0.0000 
     52 H          20.8506   27.1154   13.9972 H         1 A68200      0.0000 
     53 H          17.4243   28.5262   14.4681 H         1 A68200      0.0000 
     54 H          18.3843   27.0463   14.6366 H         1 A68200      0.0000 
     55 H          17.1540   29.4638   12.1093 H         1 A68200      0.0000 
     56 H          16.6946   28.9037    9.8042 H         1 A68200      0.0000 
     57 H          17.1385   26.6736    8.9821 H         1 A68200      0.0000 
     58 H          18.1114   25.0180   10.4590 H         1 A68200      0.0000 
     59 H          18.5538   25.5739   12.7678 H         1 A68200      0.0000 
     60 H          18.0061   34.9431   15.1294 H         1 A68200      0.0000 
     61 H          15.8509   31.5748   16.4005 H         1 A68200      0.0000 
     62 H          16.7615   36.3181   16.6743 H         1 A68200      0.0000 
     63 H          14.6130   32.9552   17.9585 H         1 A68200      0.0000 
     64 H          21.6050   24.0181    9.1031 H         1 A68200      0.0000 
     65 H          20.1100   24.2178    9.6610 H         1 A68200      0.0000 
     66 H          20.8130   25.3864    8.8089 H         1 A68200      0.0000 
     67 H          24.4995   28.0216   13.2983 H         1 A68200      0.0000 
     68 H          25.0524   29.2387   12.4043 H         1 A68200      0.0000 
     69 H          23.6229   29.3595   13.1311 H         1 A68200      0.0000 
     70 H          25.6789   25.5804   10.7224 H         1 A68200      0.0000 
     71 H          25.5022   26.3282   12.1352 H         1 A68200      0.0000 
     72 H          24.2820   25.4852   11.5135 H         1 A68200      0.0000 
     73 H          23.3144   33.2071   16.8828 H         1 A68200      0.0000 
     74 H          22.1476   34.2919   16.6636 H         1 A68200      0.0000 
     75 H          22.0480   33.2372   17.8735 H         1 A68200      0.0000 
     76 H          23.0868   32.2914   14.5078 H         1 A68200      0.0000 
     77 H          21.6664   31.7641   13.9688 H         1 A68200      0.0000 
     78 H          21.9214   33.3412   14.1529 H         1 A68200      0.0000 
     79 H          16.2225   36.8220   19.0930 H         1 A68200      0.0000 
     80 H          15.3913   37.4416   17.8637 H         1 A68200      0.0000 
     81 H          14.6995   37.2915   19.3076 H         1 A68200      0.0000 
     82 H          19.2718   28.3142   17.0152 H         1 A68200      0.0000 
@<TRIPOS>BOND
     1    2    1 2    
     2    3    1 1    
     3    4    1 am   
     4   64    3 1    
     5   65    3 1    
     6   66    3 1    
     7    5    4 1    
     8   40    4 1    
     9    6    5 1    
    10    8    5 1    
    11   41    5 1    
    12    7    6 2    
    13   21    6 am   
    14    9    8 1    
    15   10    8 1    
    16   42    8 1    
    17   11    9 1    
    18   43    9 1    
    19   44    9 1    
    20   67   10 1    
    21   68   10 1    
    22   69   10 1    
    23   70   11 1    
    24   71   11 1    
    25   72   11 1    
    26   13   12 1    
    27   17   12 1    
    28   29   12 1    
    29   14   13 1    
    30   45   13 1    
    31   46   13 1    
    32   15   14 1    
    33   16   14 1    
    34   47   14 1    
    35   73   15 1    
    36   74   15 1    
    37   75   15 1    
    38   76   16 1    
    39   77   16 1    
    40   78   16 1    
    41   18   17 1    
    42   48   17 1    
    43   49   17 1    
    44   19   18 1    
    45   20   18 1    
    46   50   18 1    
    47   82   19 1    
    48   21   20 1    
    49   22   20 1    
    50   51   20 1    
    51   52   21 1    
    52   28   22 1    
    53   53   22 1    
    54   54   22 1    
    55   24   23 ar   
    56   28   23 ar   
    57   55   23 1    
    58   25   24 ar   
    59   56   24 1    
    60   26   25 ar   
    61   57   25 1    
    62   27   26 ar   
    63   58   26 1    
    64   28   27 ar   
    65   59   27 1    
    66   30   29 2    
    67   31   29 2    
    68   32   29 1    
    69   33   32 ar   
    70   34   32 ar   
    71   35   33 ar   
    72   60   33 1    
    73   36   34 ar   
    74   61   34 1    
    75   37   35 ar   
    76   62   35 1    
    77   37   36 ar   
    78   63   36 1    
    79   38   37 1    
    80   39   38 1    
    81   79   39 1    
    82   80   39 1    
    83   81   39 1    
@<TRIPOS>SUBSTRUCTURE
     1 A68200      1 GROUP   
@<TRIPOS>SET

