#    Name: 2wog_ZZD_2_INTS_M
#    Modification time : Tue Mar 25 04:32:56 2014

@<TRIPOS>MOLECULE
2wog_ZZD_2_INTS_M
   65     0     9     0     0
SMALL
NO_CHARGES


@<TRIPOS>ATOM
      1 OD1        21.4315  -30.8590  -34.3995 O.co2     2 ASC3        0.0000 
      2 OD1        20.0420  -31.1020  -34.8350 O.co2     8 ASL3        0.0000 
      3 OD1        22.8210  -30.6160  -33.9640 O.co2     5 ASP3        0.0000 
      4 O          21.4315  -30.8590  -34.3995 O.2       1 ALC1        0.0000 
      5 O          20.0420  -31.1020  -34.8350 O.2       7 ALL1        0.0000 
      6 O          22.8210  -30.6160  -33.9640 O.2       4 ALP1        0.0000 
      7 O          19.6245  -32.4195  -34.8700 O.2       1 ALC1        0.0000 
      8 O          19.2070  -33.7370  -34.9050 O.2       4 ALP1        0.0000 
      9 CA         17.8435  -33.5770  -33.3080 C.3       3 GLC5        0.0000 
     10 CA         19.1710  -32.6450  -32.1770 C.3       9 GLL5        0.0000 
     11 CA         16.5160  -34.5090  -34.4390 C.3       6 GLP5        0.0000 
     12 CA         18.6865  -38.4555  -30.0205 C.3       3 GLC5        0.0000 
     13 CA         18.4010  -36.9660  -28.8910 C.3       9 GLL5        0.0000 
     14 CA         18.9720  -39.9450  -31.1500 C.3       6 GLP5        0.0000 
     15 CA         18.2750  -37.8810  -31.2785 C.3       3 GLC5        0.0000 
     16 CA         17.8430  -36.4870  -30.0810 C.3       9 GLL5        0.0000 
     17 CA         18.7070  -39.2750  -32.4760 C.3       6 GLP5        0.0000 
     18 CA         19.9600  -37.0980  -30.1340 C.3       3 GLC5        0.0000 
     19 CA         22.0770  -37.7090  -30.1870 C.3       6 GLP5        0.0000 
     20 CA         17.3385  -34.8520  -32.4915 C.3       3 GLC5        0.0000 
     21 CA         18.1610  -35.1950  -30.5440 C.3       9 GLL5        0.0000 
     22 CA         20.5760  -36.0515  -30.0270 C.3       3 GLC5        0.0000 
     23 CA         19.0750  -34.3940  -29.8670 C.3       9 GLL5        0.0000 
     24 CA         23.9000  -32.2345  -32.1230 C.3       3 GLC5        0.0000 
     25 CA         23.5420  -31.9470  -30.1850 C.3       9 GLL5        0.0000 
     26 CA         24.2580  -32.5220  -34.0610 C.3       6 GLP5        0.0000 
     27 CA         24.1825  -32.2805  -28.3990 C.3       3 GLC5        0.0000 
     28 CA         24.8230  -32.6140  -26.6130 C.3       6 GLP5        0.0000 
     29 CA         20.5910  -29.3435  -29.6575 C.3       3 GLC5        0.0000 
     30 CA         21.2550  -31.3680  -29.7740 C.3       9 GLL5        0.0000 
     31 CA         19.9270  -27.3190  -29.5410 C.3       6 GLP5        0.0000 
     32 CA         20.5205  -31.9440  -27.1275 C.3       3 GLC5        0.0000 
     33 CA         18.6690  -31.8690  -28.1340 C.3       9 GLL5        0.0000 
     34 CA         22.3720  -32.0190  -26.1210 C.3       6 GLP5        0.0000 
     35 CA         21.1980  -32.5540  -33.2620 C.3       3 GLC5        0.0000 
     36 CA         19.6610  -30.8830  -32.4570 C.3       9 GLL5        0.0000 
     37 CA         22.9800  -33.3440  -34.2070 C.3       6 GLP5        0.0000 
     38 CA         21.2437  -34.9633  -27.5048 C.3       3 GLC5        0.0000 
     39 CA         19.2710  -36.1450  -28.1670 C.3       9 GLL5        0.0000 
     40 CA         23.0500  -34.4170  -26.5960 C.3       6 GLP5        0.0000 
     41 CA         17.9720  -37.1228  -26.8830 C.3       3 GLC5        0.0000 
     42 CA         17.1080  -37.6900  -25.2370 C.3       6 GLP5        0.0000 
     43 CA         20.5571  -37.0819  -28.6206 C.3       3 GLC5        0.0000 
     44 CA         22.1950  -37.9260  -28.5890 C.3       6 GLP5        0.0000 
     45 CA         16.5370  -34.7475  -29.8798 C.3       3 GLC5        0.0000 
     46 CA         15.0720  -33.6540  -29.4470 C.3       6 GLP5        0.0000 
     47 CA         17.1517  -33.6647  -29.7750 C.3       3 GLC5        0.0000 
     48 CA         22.7318  -33.3612  -32.4245 C.3       3 GLC5        0.0000 
     49 CA         21.8090  -33.5420  -30.6610 C.3       9 GLL5        0.0000 
     50 CA         22.9428  -35.2278  -30.5645 C.3       3 GLC5        0.0000 
     51 CA         23.1580  -33.2150  -30.6230 C.3       9 GLL5        0.0000 
     52 CA         23.4020  -37.0770  -30.4870 C.3       6 GLP5        0.0000 
     53 CA         22.7668  -33.8978  -28.6190 C.3       3 GLC5        0.0000 
     54 CA         24.8535  -33.8245  -30.0185 C.3       3 GLC5        0.0000 
     55 CA         26.3570  -35.0680  -29.6330 C.3       6 GLP5        0.0000 
     56 CA         22.0996  -31.7630  -27.9987 C.3       3 GLC5        0.0000 
     57 CA         22.5950  -31.0130  -29.7770 C.3       9 GLL5        0.0000 
     58 CA         16.5170  -32.6653  -29.6363 C.3       3 GLC5        0.0000 
     59 CA         18.4800  -32.0210  -29.5120 C.3       9 GLL5        0.0000 
     60 CA         15.8972  -32.0275  -29.0835 C.3       3 GLC5        0.0000 
     61 CA         16.6210  -30.4790  -29.4010 C.3       9 GLL5        0.0000 
     62 CA         16.6617  -32.5517  -28.6060 C.3       3 GLC5        0.0000 
     63 CA         17.8340  -31.0300  -27.3960 C.3       9 GLL5        0.0000 
     64 CA         18.7065  -29.9974  -26.6129 C.3       3 GLC5        0.0000 
     65 CA         19.4140  -28.7220  -25.3000 C.3       6 GLP5        0.0000 
@<TRIPOS>BOND
@<TRIPOS>SUBSTRUCTURE
     1 ALC1        4 GROUP        1 X    ALC  0     ROOT ALC X 1
     2 ASC3        1 GROUP        1 X    ASC  0     **** ASC X 3
     3 GLC5        9 GROUP        1 X    GLC  0     **** GLC X 6
     4 ALP1        6 GROUP        1 Y    ALP  0     ROOT ALP Y 8
     5 ASP3        3 GROUP        1 Y    ASP  0     **** ASP Y 10
     6 GLP5       11 GROUP        1 Y    GLP  0     **** GLP Y 13
     7 ALL1        5 GROUP        1 Z    ALL  0     ROOT ALL Z 15
     8 ASL3        2 GROUP        1 Z    ASL  0     **** ASL Z 17
     9 GLL5       10 GROUP        1 Z    GLL  0     **** GLL Z 20
@<TRIPOS>SET

