#    Name: 2wog_ZZD_2_ligand
#    Modification time : Tue Mar 25 04:32:57 2014

@<TRIPOS>MOLECULE
2wog_ZZD_2_ligand
   47    49     1     0     0
SMALL
NO_CHARGES


@<TRIPOS>ATOM
      1 N          20.0420  -31.1020  -34.8350 N.4       1 ZZD1365     0.0000 
      2 CA         19.2560  -30.3710  -33.8360 C.3       1 ZZD1365     0.0000 
      3 CB         19.6610  -30.8830  -32.4570 C.3       1 ZZD1365     0.0000 
      4 C          19.5540  -28.8730  -34.0220 C.2       1 ZZD1365     0.0000 
      5 O          20.2360  -28.5680  -35.0290 O.co2     1 ZZD1365     0.0000 
      6 OXT        19.0620  -28.0630  -33.2010 O.co2     1 ZZD1365     0.0000 
      7 SG         19.1710  -32.6450  -32.1770 S.3       1 ZZD1365     0.0000 
      8 CAM        19.6040  -34.8740  -28.6600 C.ar      1 ZZD1365     0.0000 
      9 CAG        19.2710  -36.1450  -28.1670 C.ar      1 ZZD1365     0.0000 
     10 CAD        18.4010  -36.9660  -28.8910 C.ar      1 ZZD1365     0.0000 
     11 CAH        17.8430  -36.4870  -30.0810 C.ar      1 ZZD1365     0.0000 
     12 CAN        18.1610  -35.1950  -30.5440 C.ar      1 ZZD1365     0.0000 
     13 CAV        19.0750  -34.3940  -29.8670 C.ar      1 ZZD1365     0.0000 
     14 CAZ        19.3880  -32.9570  -30.3390 C.3       1 ZZD1365     0.0000 
     15 CAX        20.8640  -32.6340  -30.1780 C.ar      1 ZZD1365     0.0000 
     16 CAQ        21.8090  -33.5420  -30.6610 C.ar      1 ZZD1365     0.0000 
     17 CAK        23.1580  -33.2150  -30.6230 C.ar      1 ZZD1365     0.0000 
     18 CAF        23.5420  -31.9470  -30.1850 C.ar      1 ZZD1365     0.0000 
     19 CAL        22.5950  -31.0130  -29.7770 C.ar      1 ZZD1365     0.0000 
     20 CAR        21.2550  -31.3680  -29.7740 C.ar      1 ZZD1365     0.0000 
     21 CAW        18.4800  -32.0210  -29.5120 C.ar      1 ZZD1365     0.0000 
     22 CAO        17.4440  -31.3320  -30.1390 C.ar      1 ZZD1365     0.0000 
     23 CAI        16.6210  -30.4790  -29.4010 C.ar      1 ZZD1365     0.0000 
     24 CAE        16.8240  -30.3230  -28.0390 C.ar      1 ZZD1365     0.0000 
     25 CAJ        17.8340  -31.0300  -27.3960 C.ar      1 ZZD1365     0.0000 
     26 CAP        18.6690  -31.8690  -28.1340 C.ar      1 ZZD1365     0.0000 
     27 H          18.2157  -30.5422  -33.9911 H         1 ZZD1365     0.0000 
     28 H          19.1638  -30.3925  -31.6448 H         1 ZZD1365     0.0000 
     29 H          20.7197  -30.9295  -32.3012 H         1 ZZD1365     0.0000 
     30 H          20.2550  -34.2774  -28.1202 H         1 ZZD1365     0.0000 
     31 H          19.6653  -36.4682  -27.2793 H         1 ZZD1365     0.0000 
     32 H          18.1758  -37.9025  -28.5559 H         1 ZZD1365     0.0000 
     33 H          17.1997  -37.0750  -30.6215 H         1 ZZD1365     0.0000 
     34 H          17.7039  -34.8436  -31.4010 H         1 ZZD1365     0.0000 
     35 H          21.5046  -34.4442  -31.0409 H         1 ZZD1365     0.0000 
     36 H          23.8657  -33.8948  -30.9126 H         1 ZZD1365     0.0000 
     37 H          24.5460  -31.6995  -30.1640 H         1 ZZD1365     0.0000 
     38 H          22.8859  -30.0774  -29.4836 H         1 ZZD1365     0.0000 
     39 H          20.5441  -30.6840  -29.4685 H         1 ZZD1365     0.0000 
     40 H          17.2840  -31.4510  -31.1475 H         1 ZZD1365     0.0000 
     41 H          15.8636  -29.9673  -29.8736 H         1 ZZD1365     0.0000 
     42 H          16.2252  -29.6810  -27.4988 H         1 ZZD1365     0.0000 
     43 H          17.9662  -30.9364  -26.3832 H         1 ZZD1365     0.0000 
     44 H          19.4285  -32.3796  -27.6642 H         1 ZZD1365     0.0000 
     45 H          21.0242  -30.9629  -34.7091 H         1 ZZD1365     0.0000 
     46 H          19.8772  -32.0872  -34.7889 H         1 ZZD1365     0.0000 
     47 H          19.8218  -30.8113  -35.7661 H         1 ZZD1365     0.0000 
@<TRIPOS>BOND
     1    2    1 1    
     2   45    1 1    
     3   46    1 1    
     4   47    1 1    
     5    3    2 1    
     6    4    2 1    
     7   27    2 1    
     8    7    3 1    
     9   28    3 1    
    10   29    3 1    
    11    5    4 ar   
    12    6    4 ar   
    13   14    7 1    
    14    9    8 ar   
    15   13    8 ar   
    16   30    8 1    
    17   10    9 ar   
    18   31    9 1    
    19   11   10 ar   
    20   32   10 1    
    21   12   11 ar   
    22   33   11 1    
    23   13   12 ar   
    24   34   12 1    
    25   14   13 1    
    26   15   14 1    
    27   21   14 1    
    28   16   15 ar   
    29   20   15 ar   
    30   17   16 ar   
    31   35   16 1    
    32   18   17 ar   
    33   36   17 1    
    34   19   18 ar   
    35   37   18 1    
    36   20   19 ar   
    37   38   19 1    
    38   39   20 1    
    39   22   21 ar   
    40   26   21 ar   
    41   23   22 ar   
    42   40   22 1    
    43   24   23 ar   
    44   41   23 1    
    45   25   24 ar   
    46   42   24 1    
    47   26   25 ar   
    48   43   25 1    
    49   44   26 1    
@<TRIPOS>SUBSTRUCTURE
     1 ZZD1365     1 GROUP   
@<TRIPOS>SET

