#    Name: 3nks_ACJ_1_INTS_M
#    Modification time : Tue Mar 25 01:43:48 2014

@<TRIPOS>MOLECULE
3nks_ACJ_1_INTS_M
   53     0     3     0     0
SMALL
NO_CHARGES


@<TRIPOS>ATOM
      1 CA        -29.2995    2.2255   46.3355 C.3       1 GLC5        0.0000 
      2 CA        -29.1740    4.2690   46.0490 C.3       3 GLL5        0.0000 
      3 CA        -29.4250    0.1820   46.6220 C.3       2 GLP5        0.0000 
      4 CA        -30.3430    7.9475   48.8745 C.3       1 GLC5        0.0000 
      5 CA        -29.9350    5.8720   48.2430 C.3       3 GLL5        0.0000 
      6 CA        -30.7510   10.0230   49.5060 C.3       2 GLP5        0.0000 
      7 CA        -30.9615    6.5035   49.9420 C.3       1 GLC5        0.0000 
      8 CA        -31.9880    7.1350   51.6410 C.3       2 GLP5        0.0000 
      9 CA        -31.0670    1.0850   46.2930 C.3       1 GLC5        0.0000 
     10 CA        -32.7090    1.9880   45.9640 C.3       3 GLL5        0.0000 
     11 CA        -31.5805    2.1845   47.5830 C.3       1 GLC5        0.0000 
     12 CA        -30.4520    2.3810   49.2020 C.3       2 GLP5        0.0000 
     13 CA        -34.0010    0.9605   46.0230 C.3       1 GLC5        0.0000 
     14 CA        -35.2930   -0.0670   46.0820 C.3       2 GLP5        0.0000 
     15 CA        -33.8175    2.9315   47.0660 C.3       1 GLC5        0.0000 
     16 CA        -34.9260    3.8750   48.1680 C.3       2 GLP5        0.0000 
     17 CA        -34.0195    2.4790   44.5460 C.3       1 GLC5        0.0000 
     18 CA        -35.3300    2.9700   43.1280 C.3       2 GLP5        0.0000 
     19 CA        -33.3990   -0.0895   43.7515 C.3       1 GLC5        0.0000 
     20 CA        -31.5440    1.1590   43.5710 C.3       3 GLL5        0.0000 
     21 CA        -35.2540   -1.3380   43.9320 C.3       2 GLP5        0.0000 
     22 CA        -30.3920    1.5440   39.8280 C.3       1 GLC5        0.0000 
     23 CA        -30.5470    0.2700   41.4480 C.3       3 GLL5        0.0000 
     24 CA        -30.2370    2.8180   38.2080 C.3       2 GLP5        0.0000 
     25 CA        -29.5545   -2.6560   42.4470 C.3       1 GLC5        0.0000 
     26 CA        -30.6290   -0.8880   42.0770 C.3       3 GLL5        0.0000 
     27 CA        -28.4800   -4.4240   42.8170 C.3       2 GLP5        0.0000 
     28 CA        -29.1080    1.4775   39.4750 C.3       1 GLC5        0.0000 
     29 CA        -29.3490    0.3900   40.8950 C.3       3 GLL5        0.0000 
     30 CA        -28.8670    2.5650   38.0550 C.3       2 GLP5        0.0000 
     31 CA        -33.0820   -0.8685   40.0270 C.3       1 GLC5        0.0000 
     32 CA        -31.4690    0.2920   40.5100 C.3       3 GLL5        0.0000 
     33 CA        -34.6950   -2.0290   39.5440 C.3       2 GLP5        0.0000 
     34 CA        -31.3240    1.1570   39.0315 C.3       1 GLC5        0.0000 
     35 CA        -31.1790    2.0220   37.5530 C.3       2 GLP5        0.0000 
     36 CA        -30.9645    6.5055   45.4357 C.3       1 GLC5        0.0000 
     37 CA        -30.8420    5.5930   47.2180 C.3       3 GLL5        0.0000 
     38 CA        -31.2770    7.8150   44.1950 C.3       2 GLP5        0.0000 
     39 CA        -31.0165    5.7205   43.9165 C.3       1 GLC5        0.0000 
     40 CA        -31.1340    3.5320   44.2180 C.3       3 GLL5        0.0000 
     41 CA        -32.8905    3.4523   43.5075 C.3       1 GLC5        0.0000 
     42 CA        -34.3450    4.0400   42.6670 C.3       2 GLP5        0.0000 
     43 CA        -31.6160    4.2782   41.6270 C.3       1 GLC5        0.0000 
     44 CA        -30.3780    3.7200   43.0580 C.3       3 GLL5        0.0000 
     45 CA        -32.9420    5.3720   40.6360 C.3       2 GLP5        0.0000 
     46 CA        -32.7525    2.6572   42.8320 C.3       1 GLC5        0.0000 
     47 CA        -30.4575    1.0969   45.2908 C.3       1 GLC5        0.0000 
     48 CA        -31.8878   -1.6568   41.6851 C.3       1 GLC5        0.0000 
     49 CA        -32.7470   -3.3050   42.2340 C.3       2 GLP5        0.0000 
     50 CA        -30.5814   -1.0759   40.0427 C.3       1 GLC5        0.0000 
     51 CA        -30.4440   -2.3180   39.1660 C.3       2 GLP5        0.0000 
     52 CA        -29.9979    3.7209   48.1731 C.3       1 GLC5        0.0000 
     53 CA        -28.2310    4.5030   47.0410 C.3       3 GLL5        0.0000 
@<TRIPOS>BOND
@<TRIPOS>SUBSTRUCTURE
     1 GLC5        1 GROUP        1 X    GLC  0     ROOT GLC X 6
     2 GLP5        3 GROUP        1 Y    GLP  0     ROOT GLP Y 13
     3 GLL5        2 GROUP        1 Z    GLL  0     ROOT GLL Z 20
@<TRIPOS>SET

