#    Name: 3nks_ACJ_1_ligand
#    Modification time : Tue Mar 25 01:43:48 2014

@<TRIPOS>MOLECULE
3nks_ACJ_1_ligand
   30    31     1     0     0
SMALL
NO_CHARGES


@<TRIPOS>ATOM
      1 O3        -26.5230    2.9520   47.6280 O.co2     1 ACJ478      0.0000 
      2 C11       -26.8730    3.8820   46.8660 C.2       1 ACJ478      0.0000 
      3 O2        -26.1300    4.2960   45.9420 O.co2     1 ACJ478      0.0000 
      4 C9        -29.1740    4.2690   46.0490 C.ar      1 ACJ478      0.0000 
      5 C14       -28.6330    5.3550   48.2090 C.ar      1 ACJ478      0.0000 
      6 C8        -30.4620    4.7990   46.1350 C.ar      1 ACJ478      0.0000 
      7 N1        -27.7830    5.6420   49.2280 N.pl3     1 ACJ478      0.0000 
      8 C13       -29.9350    5.8720   48.2430 C.ar      1 ACJ478      0.0000 
      9 O5        -26.4750    5.1560   49.2520 O.2       1 ACJ478      0.0000 
     10 C12       -30.8420    5.5930   47.2180 C.ar      1 ACJ478      0.0000 
     11 O1        -31.3530    4.5440   45.1280 O.3       1 ACJ478      0.0000 
     12 C7        -31.1340    3.5320   44.2180 C.ar      1 ACJ478      0.0000 
     13 O4        -28.2250    6.4370   50.2810 O.2       1 ACJ478      0.0000 
     14 C6        -30.3780    3.7200   43.0580 C.ar      1 ACJ478      0.0000 
     15 C10       -28.2310    4.5030   47.0410 C.ar      1 ACJ478      0.0000 
     16 C4        -31.7380    2.1970   44.4780 C.ar      1 ACJ478      0.0000 
     17 C5        -30.2020    2.6490   42.1780 C.ar      1 ACJ478      0.0000 
     18 C2        -30.7760    1.3900   42.4230 C.ar      1 ACJ478      0.0000 
     19 CL1       -32.7090    1.9880   45.9640 Cl        1 ACJ478      0.0000 
     20 C3        -31.5440    1.1590   43.5710 C.ar      1 ACJ478      0.0000 
     21 C1        -30.5470    0.2700   41.4480 C.3       1 ACJ478      0.0000 
     22 F1        -30.6290   -0.8880   42.0770 F         1 ACJ478      0.0000 
     23 F2        -29.3490    0.3900   40.8950 F         1 ACJ478      0.0000 
     24 F3        -31.4690    0.2920   40.5100 F         1 ACJ478      0.0000 
     25 H         -28.9192    3.6900   45.2278 H         1 ACJ478      0.0000 
     26 H         -30.2251    6.4652   49.0348 H         1 ACJ478      0.0000 
     27 H         -31.7965    5.9757   47.2622 H         1 ACJ478      0.0000 
     28 H         -29.9595    4.6284   42.8560 H         1 ACJ478      0.0000 
     29 H         -29.6338    2.7833   41.3212 H         1 ACJ478      0.0000 
     30 H         -31.9548    0.2396   43.7372 H         1 ACJ478      0.0000 
@<TRIPOS>BOND
     1    2    1 ar   
     2    3    2 ar   
     3   15    2 1    
     4    6    4 ar   
     5   15    4 ar   
     6   25    4 1    
     7    7    5 1    
     8    8    5 ar   
     9   15    5 ar   
    10   10    6 ar   
    11   11    6 1    
    12    9    7 2    
    13   13    7 2    
    14   10    8 ar   
    15   26    8 1    
    16   27   10 1    
    17   12   11 1    
    18   14   12 ar   
    19   16   12 ar   
    20   17   14 ar   
    21   28   14 1    
    22   19   16 1    
    23   20   16 ar   
    24   18   17 ar   
    25   29   17 1    
    26   20   18 ar   
    27   21   18 1    
    28   30   20 1    
    29   22   21 1    
    30   23   21 1    
    31   24   21 1    
@<TRIPOS>SUBSTRUCTURE
     1 ACJ478      1 GROUP   
@<TRIPOS>SET

