#    Name: 3PHE_3_CAVITY_N1_ALL.mol2
#    Modification time : Mon Mar 10 14:25:18 2014

@<TRIPOS>MOLECULE
3PHE_3_CAVITY_N1_ALL.mol2
   61     0     5     0     0
SMALL
NO_CHARGES


@<TRIPOS>ATOM
      1 CA         32.8616   23.2310  220.7012 C.3       4 GLY6        0.0000 
      2 O          33.5988   22.1408  221.4211 O.2       1 ALA2        0.0000 
      3 CA         31.9471   22.2101  220.0917 C.3       4 GLY6        0.0000 
      4 O          32.6842   21.1200  220.8116 O.2       1 ALA2        0.0000 
      5 O          26.5455   23.9972  225.2034 O.2       1 ALA2        0.0000 
      6 N          26.3681   21.8862  225.3137 N.2       1 ALA2        0.0000 
      7 CA         31.8920   25.6908  225.4192 C.3       4 GLY6        0.0000 
      8 CA         30.9775   24.6700  224.8097 C.3       4 GLY6        0.0000 
      9 DU         31.7146   23.5798  225.5295 H         5 CUB7        0.0000 
     10 CA         29.3258   24.7393  223.4803 C.3       4 GLY6        0.0000 
     11 DU         30.0629   23.6491  224.2001 H         5 CUB7        0.0000 
     12 DU         30.8000   22.5590  224.9200 H         5 CUB7        0.0000 
     13 CA         31.5372   21.4688  225.6399 C.3       4 GLY6        0.0000 
     14 CZ         28.4113   23.7184  222.8708 C.ar      3 PHE5        0.0000 
     15 N          29.1484   22.6283  223.5906 N.2       1 ALA2        0.0000 
     16 N          29.8855   21.5381  224.3105 N.2       1 ALA2        0.0000 
     17 CA         30.6226   20.4480  225.0304 C.3       4 GLY6        0.0000 
     18 CA         31.3597   19.3578  225.7503 C.3       4 GLY6        0.0000 
     19 OD1        29.7081   19.4271  224.4209 O.3       2 ASP3        0.0000 
     20 OD1        30.4452   18.3370  225.1408 O.3       2 ASP3        0.0000 
     21 CA         31.1823   17.2468  225.8607 C.3       4 GLY6        0.0000 
     22 OD1        29.5307   17.3161  224.5313 O.3       2 ASP3        0.0000 
     23 OD1        30.2678   16.2260  225.2511 O.3       2 ASP3        0.0000 
     24 CA         31.0049   15.1358  225.9710 C.3       4 GLY6        0.0000 
     25 CA         28.3929   24.8787  224.6466 C.3       4 GLY6        0.0000 
     26 DU         29.1300   23.7885  225.3665 H         5 CUB7        0.0000 
     27 O          27.4784   23.8578  224.0371 O.2       1 ALA2        0.0000 
     28 N          28.2155   22.7677  224.7569 N.2       1 ALA2        0.0000 
     29 N          28.9526   21.6775  225.4768 N.2       1 ALA2        0.0000 
     30 N          28.0381   20.6567  224.8673 N.2       1 ALA2        0.0000 
     31 OD1        30.2494   17.3862  227.0270 O.3       2 ASP3        0.0000 
     32 CA         30.9865   16.2960  227.7468 C.3       4 GLY6        0.0000 
     33 OD1        29.3349   16.3653  226.4174 O.3       2 ASP3        0.0000 
     34 DU         30.0720   15.2752  227.1373 H         5 CUB7        0.0000 
     35 CA         32.0878   26.6416  223.5330 C.3       4 GLY6        0.0000 
     36 CA         33.5620   24.4613  224.9728 C.3       4 GLY6        0.0000 
     37 CZ         34.2991   23.3711  225.6926 C.ar      3 PHE5        0.0000 
     38 CA         31.1733   25.6207  222.9235 C.3       4 GLY6        0.0000 
     39 CA         31.9104   24.5306  223.6434 C.3       4 GLY6        0.0000 
     40 CA         32.6475   23.4404  224.3632 C.3       4 GLY6        0.0000 
     41 CA         33.3846   22.3503  225.0831 C.3       4 GLY6        0.0000 
     42 CA         30.2587   24.5999  222.3140 C.3       4 GLY6        0.0000 
     43 CZ         30.9958   23.5097  223.0338 C.ar      3 PHE5        0.0000 
     44 DU         31.7329   22.4196  223.7537 H         5 CUB7        0.0000 
     45 N          32.4701   21.3294  224.4736 N.2       1 ALA2        0.0000 
     46 CA         30.0813   22.4889  222.4243 C.3       4 GLY6        0.0000 
     47 CA         30.8184   21.3987  223.1442 C.3       4 GLY6        0.0000 
     48 N          31.5555   20.3086  223.8641 N.2       1 ALA2        0.0000 
     49 CA         30.6410   19.2877  223.2546 C.3       4 GLY6        0.0000 
     50 N          31.3781   18.1976  223.9745 N.2       1 ALA2        0.0000 
     51 CA         30.4636   17.1767  223.3650 C.3       4 GLY6        0.0000 
     52 N          31.2007   16.0866  224.0848 N.2       1 ALA2        0.0000 
     53 CA         32.1062   25.4814  221.7572 C.3       4 GLY6        0.0000 
     54 CA         32.8433   24.3912  222.4771 C.3       4 GLY6        0.0000 
     55 CZ         33.5804   23.3010  223.1969 C.ar      3 PHE5        0.0000 
     56 CZ         31.1916   24.4605  221.1477 C.ar      3 PHE5        0.0000 
     57 CZ         31.9287   23.3704  221.8675 C.ar      3 PHE5        0.0000 
     58 N          32.6658   22.2802  222.5874 N.2       1 ALA2        0.0000 
     59 CA         31.0142   22.3495  221.2580 C.3       4 GLY6        0.0000 
     60 CA         31.7513   21.2594  221.9779 C.3       4 GLY6        0.0000 
     61 CA         31.5739   19.1483  222.0883 C.3       4 GLY6        0.0000 
@<TRIPOS>BOND
@<TRIPOS>SUBSTRUCTURE
     1 ALA2        2 GROUP   
     2 ASP3       19 GROUP   
     3 PHE5       14 GROUP   
     4 GLY6        1 GROUP   
     5 CUB7        9 GROUP   
@<TRIPOS>SET

