#    Name: 3phe_C9A_3_INTS_M
#    Modification time : Tue Mar 25 06:37:10 2014

@<TRIPOS>MOLECULE
3phe_C9A_3_INTS_M
   59     0     6     0     0
SMALL
NO_CHARGES


@<TRIPOS>ATOM
      1 N          36.6680   23.6085  227.6000 N.am      1 SEC2        0.0000 
      2 N          35.4400   24.1720  227.8650 N.am      5 SEL2        0.0000 
      3 N          37.8960   23.0450  227.3350 N.am      3 SEP2        0.0000 
      4 CA         35.1100   28.7090  225.7705 C.3       2 GLC5        0.0000 
      5 CA         32.9970   28.9340  225.6210 C.3       6 GLL5        0.0000 
      6 CA         37.2230   28.4840  225.9200 C.3       4 GLP5        0.0000 
      7 CA         34.9810   30.3265  225.4020 C.3       2 GLC5        0.0000 
      8 CA         33.2320   29.7760  224.5110 C.3       6 GLL5        0.0000 
      9 CA         36.7300   30.8770  226.2930 C.3       4 GLP5        0.0000 
     10 CA         35.3060   34.2720  224.0365 C.3       2 GLC5        0.0000 
     11 CA         33.9070   33.2310  223.6600 C.3       6 GLL5        0.0000 
     12 CA         36.7050   35.3130  224.4130 C.3       4 GLP5        0.0000 
     13 CA         33.7535   33.5750  221.6735 C.3       2 GLC5        0.0000 
     14 CA         33.6000   33.9190  219.6870 C.3       4 GLP5        0.0000 
     15 N          30.3745   32.2860  222.1075 N.am      1 SEC2        0.0000 
     16 N          31.5470   32.7120  222.7060 N.am      5 SEL2        0.0000 
     17 N          29.2020   31.8600  221.5090 N.am      3 SEP2        0.0000 
     18 N          34.4575   21.9050  227.4495 N.am      1 SEC2        0.0000 
     19 N          33.3450   22.5270  226.9970 N.am      5 SEL2        0.0000 
     20 N          35.5700   21.2830  227.9020 N.am      3 SEP2        0.0000 
     21 CA         32.4080   20.9830  225.9740 C.3       2 GLC5        0.0000 
     22 CA         31.0920   22.6260  225.3490 C.3       6 GLL5        0.0000 
     23 CA         33.7240   19.3400  226.5990 C.3       4 GLP5        0.0000 
     24 CA         33.0325   22.9420  218.0580 C.3       2 GLC5        0.0000 
     25 CA         32.4080   23.5710  219.5100 C.3       6 GLL5        0.0000 
     26 CA         33.6570   22.3130  216.6060 C.3       4 GLP5        0.0000 
     27 CA         32.1405   25.2840  218.6930 C.3       2 GLC5        0.0000 
     28 CA         31.8730   26.9970  217.8760 C.3       4 GLP5        0.0000 
     29 CA         30.7475   22.9075  219.2780 C.3       2 GLC5        0.0000 
     30 CA         29.0870   22.2440  219.0460 C.3       4 GLP5        0.0000 
     31 CA         36.3045   31.4803  228.0835 C.3       2 GLC5        0.0000 
     32 CA         35.5440   31.4360  229.6170 C.3       6 GLL5        0.0000 
     33 CA         35.9755   29.8625  227.8100 C.3       2 GLC5        0.0000 
     34 CA         35.8870   28.9540  229.5880 C.3       6 GLL5        0.0000 
     35 CA         39.1127   28.5055  229.7115 C.3       2 GLC5        0.0000 
     36 CA         36.7640   27.8220  229.5250 C.3       6 GLL5        0.0000 
     37 CA         40.8360   29.1450  229.6720 C.3       4 GLP5        0.0000 
     38 CA         37.3062   28.1750  227.8355 C.3       2 GLC5        0.0000 
     39 CA         38.0150   27.9100  229.9770 C.3       6 GLL5        0.0000 
     40 CA         33.9237   27.7415  223.9585 C.3       2 GLC5        0.0000 
     41 CA         34.7330   26.1280  222.8510 C.3       4 GLP5        0.0000 
     42 CA         30.7680   30.2950  223.8118 C.3       2 GLC5        0.0000 
     43 CA         31.5150   31.3340  225.3590 C.3       6 GLL5        0.0000 
     44 CA         29.3480   29.7360  222.7200 C.3       4 GLP5        0.0000 
     45 CA         30.6239   28.7616  225.3944 C.3       2 GLC5        0.0000 
     46 CA         31.2850   30.4840  226.4730 C.3       6 GLL5        0.0000 
     47 CA         29.3840   27.8430  224.3370 C.3       4 GLP5        0.0000 
     48 CA         36.0600   27.7378  227.2731 C.3       2 GLC5        0.0000 
     49 CA         34.0930   27.4900  228.5110 C.3       6 GLL5        0.0000 
     50 CA         32.9397   25.1435  222.6993 C.3       2 GLC5        0.0000 
     51 CA         30.9920   24.0490  223.2300 C.3       6 GLL5        0.0000 
     52 CA         30.0763   25.7775  222.2273 C.3       2 GLC5        0.0000 
     53 CA         31.3010   24.2690  221.8650 C.3       6 GLL5        0.0000 
     54 CA         29.0060   27.3960  221.9070 C.3       4 GLP5        0.0000 
     55 CA         33.5980   24.8257  220.8400 C.3       2 GLC5        0.0000 
     56 CA         32.0420   23.2960  221.1460 C.3       6 GLL5        0.0000 
     57 CA         34.9710   26.2180  221.3520 C.3       4 GLP5        0.0000 
     58 CA         30.9729   21.2309  221.4151 C.3       2 GLC5        0.0000 
     59 CA         29.7330   20.1710  220.5230 C.3       4 GLP5        0.0000 
@<TRIPOS>BOND
@<TRIPOS>SUBSTRUCTURE
     1 SEC2        1 GROUP        1 X    SEC  0     ROOT SEC X 2
     2 GLC5        4 GROUP        1 X    GLC  0     **** GLC X 6
     3 SEP2        3 GROUP        1 Y    SEP  0     ROOT SEP Y 9
     4 GLP5        6 GROUP        1 Y    GLP  0     **** GLP Y 13
     5 SEL2        2 GROUP        1 Z    SEL  0     ROOT SEL Z 16
     6 GLL5        5 GROUP        1 Z    GLL  0     **** GLL Z 20
@<TRIPOS>SET

