#    Name: 3phe_C9A_3_ligand
#    Modification time : Tue Mar 25 06:37:10 2014

@<TRIPOS>MOLECULE
3phe_C9A_3_ligand
   71    75     1     0     0
SMALL
NO_CHARGES


@<TRIPOS>ATOM
      1 C1         37.1190   33.9560  232.0170 C.3       1 C9A997      0.0000 
      2 N2         36.3460   32.7670  231.6280 N.4       1 C9A997      0.0000 
      3 C3         36.9980   31.5150  232.1480 C.3       1 C9A997      0.0000 
      4 C4         36.3220   30.2200  231.6240 C.3       1 C9A997      0.0000 
      5 N5         36.2870   30.2490  230.1340 N.3       1 C9A997      0.0000 
      6 C6         35.5440   31.4360  229.6170 C.3       1 C9A997      0.0000 
      7 C7         36.2140   32.7310  230.1310 C.3       1 C9A997      0.0000 
      8 C8         35.8870   28.9540  229.5880 C.ar      1 C9A997      0.0000 
      9 C9         36.7640   27.8220  229.5250 C.ar      1 C9A997      0.0000 
     10 F10        38.0150   27.9100  229.9770 F         1 C9A997      0.0000 
     11 C11        36.3620   26.5750  228.9920 C.ar      1 C9A997      0.0000 
     12 C12        35.0400   26.4110  228.4910 C.ar      1 C9A997      0.0000 
     13 C13        34.6210   25.0800  227.9250 C.2       1 C9A997      0.0000 
     14 O14        35.4400   24.1720  227.8650 O.2       1 C9A997      0.0000 
     15 C15        33.2220   24.8940  227.3980 C.2       1 C9A997      0.0000 
     16 C16        32.4200   25.9780  227.4640 C.2       1 C9A997      0.0000 
     17 N17        32.7500   27.2560  227.9700 N.pl3     1 C9A997      0.0000 
     18 C18        31.7580   28.3670  227.8510 C.3       1 C9A997      0.0000 
     19 C19        32.0190   29.2700  226.6290 C.ar      1 C9A997      0.0000 
     20 C20        32.9970   28.9340  225.6210 C.ar      1 C9A997      0.0000 
     21 C21        33.2320   29.7760  224.5110 C.ar      1 C9A997      0.0000 
     22 C22        32.4900   30.9720  224.3850 C.ar      1 C9A997      0.0000 
     23 C23        31.5150   31.3340  225.3590 C.ar      1 C9A997      0.0000 
     24 C24        31.2850   30.4840  226.4730 C.ar      1 C9A997      0.0000 
     25 S25        32.7850   32.0230  223.0110 S.o2      1 C9A997      0.0000 
     26 C26        33.9070   33.2310  223.6600 C.3       1 C9A997      0.0000 
     27 O27        31.5470   32.7120  222.7060 O.2       1 C9A997      0.0000 
     28 O28        33.4770   31.2560  221.9950 O.2       1 C9A997      0.0000 
     29 C29        34.0930   27.4900  228.5110 C.ar      1 C9A997      0.0000 
     30 C30        34.5550   28.7420  229.0660 C.ar      1 C9A997      0.0000 
     31 C31        32.7480   23.5900  226.8380 C.2       1 C9A997      0.0000 
     32 O32        33.3450   22.5270  226.9970 O.2       1 C9A997      0.0000 
     33 O33        31.5620   23.7490  226.1370 O.3       1 C9A997      0.0000 
     34 C34        31.0920   22.6260  225.3490 C.3       1 C9A997      0.0000 
     35 C35        31.4200   22.8540  223.8910 C.ar      1 C9A997      0.0000 
     36 C36        30.9920   24.0490  223.2300 C.ar      1 C9A997      0.0000 
     37 C37        31.3010   24.2690  221.8650 C.ar      1 C9A997      0.0000 
     38 C38        32.0420   23.2960  221.1460 C.ar      1 C9A997      0.0000 
     39 CL39       32.4080   23.5710  219.5100 Cl        1 C9A997      0.0000 
     40 C40        32.4770   22.1030  221.7790 C.ar      1 C9A997      0.0000 
     41 C41        32.1660   21.8820  223.1520 C.ar      1 C9A997      0.0000 
     42 H          35.3452   32.8389  232.0552 H         1 C9A997      0.0000 
     43 H          36.9595   31.4998  233.2450 H         1 C9A997      0.0000 
     44 H          38.0548   31.4917  231.8520 H         1 C9A997      0.0000 
     45 H          35.3176   30.1737  232.0299 H         1 C9A997      0.0000 
     46 H          36.8964   29.3709  231.9772 H         1 C9A997      0.0000 
     47 H          34.5154   31.4218  229.9639 H         1 C9A997      0.0000 
     48 H          35.5583   31.4508  228.5316 H         1 C9A997      0.0000 
     49 H          37.2059   32.8124  229.6659 H         1 C9A997      0.0000 
     50 H          35.6165   33.5864  229.7874 H         1 C9A997      0.0000 
     51 H          37.0142   25.7938  228.9650 H         1 C9A997      0.0000 
     52 H          31.4070   25.8820  227.0943 H         1 C9A997      0.0000 
     53 H          31.7841   28.9945  228.7532 H         1 C9A997      0.0000 
     54 H          30.7415   27.9576  227.7643 H         1 C9A997      0.0000 
     55 H          33.5265   28.0608  225.7253 H         1 C9A997      0.0000 
     56 H          33.9247   29.5252  223.8132 H         1 C9A997      0.0000 
     57 H          30.9885   32.1959  225.2551 H         1 C9A997      0.0000 
     58 H          30.5858   30.7420  227.1735 H         1 C9A997      0.0000 
     59 H          33.8888   29.5398  229.0917 H         1 C9A997      0.0000 
     60 H          30.0084   22.5045  225.4466 H         1 C9A997      0.0000 
     61 H          31.5683   21.6943  225.6708 H         1 C9A997      0.0000 
     62 H          30.4589   24.7463  223.7529 H         1 C9A997      0.0000 
     63 H          30.9933   25.1206  221.4016 H         1 C9A997      0.0000 
     64 H          33.0062   21.4101  221.2599 H         1 C9A997      0.0000 
     65 H          32.4755   21.0276  223.6125 H         1 C9A997      0.0000 
     66 H          38.0509   33.9279  231.6553 H         1 C9A997      0.0000 
     67 H          36.6991   34.7986  231.6799 H         1 C9A997      0.0000 
     68 H          37.1928   34.0423  233.0105 H         1 C9A997      0.0000 
     69 H          34.7545   32.8129  223.9870 H         1 C9A997      0.0000 
     70 H          34.1617   33.9094  222.9709 H         1 C9A997      0.0000 
     71 H          33.5103   33.7304  224.4303 H         1 C9A997      0.0000 
@<TRIPOS>BOND
     1    2    1 1    
     2   66    1 1    
     3   67    1 1    
     4   68    1 1    
     5    3    2 1    
     6    7    2 1    
     7   42    2 1    
     8    4    3 1    
     9   43    3 1    
    10   44    3 1    
    11    5    4 1    
    12   45    4 1    
    13   46    4 1    
    14    6    5 1    
    15    8    5 1    
    16    7    6 1    
    17   47    6 1    
    18   48    6 1    
    19   49    7 1    
    20   50    7 1    
    21    9    8 ar   
    22   30    8 ar   
    23   10    9 1    
    24   11    9 ar   
    25   12   11 ar   
    26   51   11 1    
    27   13   12 1    
    28   29   12 ar   
    29   14   13 2    
    30   15   13 1    
    31   16   15 2    
    32   31   15 1    
    33   17   16 1    
    34   52   16 1    
    35   18   17 1    
    36   29   17 1    
    37   19   18 1    
    38   53   18 1    
    39   54   18 1    
    40   20   19 ar   
    41   24   19 ar   
    42   21   20 ar   
    43   55   20 1    
    44   22   21 ar   
    45   56   21 1    
    46   23   22 ar   
    47   25   22 1    
    48   24   23 ar   
    49   57   23 1    
    50   58   24 1    
    51   26   25 1    
    52   27   25 2    
    53   28   25 2    
    54   69   26 1    
    55   70   26 1    
    56   71   26 1    
    57   30   29 ar   
    58   59   30 1    
    59   32   31 2    
    60   33   31 1    
    61   34   33 1    
    62   35   34 1    
    63   60   34 1    
    64   61   34 1    
    65   36   35 ar   
    66   41   35 ar   
    67   37   36 ar   
    68   62   36 1    
    69   38   37 ar   
    70   63   37 1    
    71   39   38 1    
    72   40   38 ar   
    73   41   40 ar   
    74   64   40 1    
    75   65   41 1    
@<TRIPOS>SUBSTRUCTURE
     1 C9A997      1 GROUP   
@<TRIPOS>SET

