#    Name: 3hat_GLY_VAL_ARG_RNG_1_INTS_M
#    Modification time : Tue Mar 25 13:49:08 2014

@<TRIPOS>MOLECULE
3hat_GLY_VAL_ARG_RNG_1_INTS_M
   74     0    12     0     0
SMALL
NO_CHARGES


@<TRIPOS>ATOM
      1 O          15.1940  -15.8495   24.6450 O.2       1 ALC1        0.0000 
      2 O          16.0830  -16.3600   24.1050 O.2       9 ALL1        0.0000 
      3 O          14.3050  -15.3390   25.1850 O.2       5 ALP1        0.0000 
      4 N          15.0395  -13.4400   24.0245 N.am      2 SEC2        0.0000 
      5 N          15.4670  -14.0560   22.6250 N.am     10 SEL2        0.0000 
      6 N          14.6120  -12.8240   25.4240 N.am      6 SEP2        0.0000 
      7 CA         17.6005  -12.4505   23.0280 C.3       4 GLC5        0.0000 
      8 CA         18.0100  -13.2930   21.2720 C.3      12 GLL5        0.0000 
      9 CA         17.1910  -11.6080   24.7840 C.3       8 GLP5        0.0000 
     10 CA         19.6560  -15.8915   19.3090 C.3       4 GLC5        0.0000 
     11 CA         20.0370  -14.8250   21.0610 C.3      12 GLL5        0.0000 
     12 CA         19.2750  -16.9580   17.5570 C.3       8 GLP5        0.0000 
     13 CA         21.1405  -14.4405   18.7845 C.3       4 GLC5        0.0000 
     14 CA         19.5230  -13.2910   19.1530 C.3      12 GLL5        0.0000 
     15 CA         22.7580  -15.5900   18.4160 C.3       8 GLP5        0.0000 
     16 CA         20.2685  -12.0995   20.9010 C.3       4 GLC5        0.0000 
     17 CA         21.0140  -10.9080   22.6490 C.3       8 GLP5        0.0000 
     18 O          16.4905  -10.6665   21.4460 O.2       1 ALC1        0.0000 
     19 O          16.1700  -11.8370   20.4740 O.2       9 ALL1        0.0000 
     20 O          16.8110   -9.4960   22.4180 O.2       5 ALP1        0.0000 
     21 N          13.5255   -8.7365   18.0670 N.am      2 SEC2        0.0000 
     22 N          14.1580   -9.9760   18.0200 N.am     10 SEL2        0.0000 
     23 N          12.8930   -7.4970   18.1140 N.am      6 SEP2        0.0000 
     24 CA         13.1605   -8.7935   21.2840 C.3       4 GLC5        0.0000 
     25 CA         14.0150  -10.6400   20.5790 C.3      12 GLL5        0.0000 
     26 CA         12.3060   -6.9470   21.9890 C.3       8 GLP5        0.0000 
     27 CA         10.7745   -9.7255   22.4200 C.3       4 GLC5        0.0000 
     28 CA         12.3890  -11.2080   22.4020 C.3      12 GLL5        0.0000 
     29 CA          9.1600   -8.2430   22.4380 C.3       8 GLP5        0.0000 
     30 CA         10.6410  -11.6995   21.2660 C.3       4 GLC5        0.0000 
     31 CA          8.8930  -12.1910   20.1300 C.3       8 GLP5        0.0000 
     32 CA         12.3475   -9.0775   22.1955 C.3       4 GLC5        0.0000 
     33 OD1         9.3520  -10.5680   25.4440 O.co2     3 ASC3        0.0000 
     34 OD1        10.8420  -11.9770   24.1430 O.co2    11 ASL3        0.0000 
     35 OD1         7.9600  -10.3970   26.2010 O.co2     7 ASP3        0.0000 
     36 OD1         8.9440  -12.7125   25.3035 O.co2     3 ASC3        0.0000 
     37 OD1         7.8400  -12.5390   25.8720 O.co2     7 ASP3        0.0000 
     38 O           9.3520  -10.5680   25.4440 O.2       1 ALC1        0.0000 
     39 O          10.7440  -10.7390   24.6870 O.2       9 ALL1        0.0000 
     40 O           7.9600  -10.3970   26.2010 O.2       5 ALP1        0.0000 
     41 O           8.9440  -12.7125   25.3035 O.2       1 ALC1        0.0000 
     42 O          10.0480  -12.8860   24.7350 O.2       9 ALL1        0.0000 
     43 O           7.8400  -12.5390   25.8720 O.2       5 ALP1        0.0000 
     44 O          10.1010  -14.4085   24.3280 O.2       1 ALC1        0.0000 
     45 O          10.1540  -15.9310   23.9210 O.2       5 ALP1        0.0000 
     46 N          15.9595   -9.5230   18.4720 N.am      2 SEC2        0.0000 
     47 N          16.3090  -10.4290   17.6750 N.am     10 SEL2        0.0000 
     48 N          15.6100   -8.6170   19.2690 N.am      6 SEP2        0.0000 
     49 CA         16.1200  -17.0475   27.4290 C.3       4 GLC5        0.0000 
     50 CA         17.5180  -16.7080   26.1450 C.3      12 GLL5        0.0000 
     51 CA         14.7220  -17.3870   28.7130 C.3       8 GLP5        0.0000 
     52 CA         19.2900  -16.0735   28.3575 C.3       4 GLC5        0.0000 
     53 CA         18.7530  -15.7240   26.3080 C.3      12 GLL5        0.0000 
     54 CA         19.8270  -16.4230   30.4070 C.3       8 GLP5        0.0000 
     55 CA         18.3255  -15.0555   28.1395 C.3       4 GLC5        0.0000 
     56 CA         19.7560  -16.3680   27.3250 C.3      12 GLL5        0.0000 
     57 CA         16.8950  -13.7430   28.9540 C.3       8 GLP5        0.0000 
     58 CA         19.3987  -11.5870   19.0998 C.3       4 GLC5        0.0000 
     59 CA         19.4020  -13.4770   20.6580 C.3      12 GLL5        0.0000 
     60 CA         19.3350   -9.7900   18.2940 C.3       8 GLP5        0.0000 
     61 CA         21.4243  -14.6685   20.2873 C.3       4 GLC5        0.0000 
     62 CA         23.1290  -15.1860   19.7150 C.3       8 GLP5        0.0000 
     63 CA         19.0727  -14.6050   18.4558 C.3       4 GLC5        0.0000 
     64 CA         18.6830  -15.8260   17.0060 C.3       8 GLP5        0.0000 
     65 CA         20.1928  -12.5065   21.8310 C.3       4 GLC5        0.0000 
     66 CA         14.9150   -9.4268   19.0918 C.3       4 GLC5        0.0000 
     67 CA         15.0690  -11.3670   19.6400 C.3      12 GLL5        0.0000 
     68 CA         15.2880   -7.8500   18.0740 C.3       8 GLP5        0.0000 
     69 CA         14.4327  -11.1255   23.0748 C.3       4 GLC5        0.0000 
     70 CA         15.8170  -11.0650   24.4280 C.3       8 GLP5        0.0000 
     71 CA         17.5023  -14.7330   26.9507 C.3       4 GLC5        0.0000 
     72 CA         16.8690  -13.2500   27.6750 C.3       8 GLP5        0.0000 
     73 CA         20.6693  -16.9872   28.4585 C.3       4 GLC5        0.0000 
     74 CA         21.0300  -17.3100   29.9070 C.3       8 GLP5        0.0000 
@<TRIPOS>BOND
@<TRIPOS>SUBSTRUCTURE
     1 ALC1        1 GROUP        1 X    ALC  0     ROOT ALC X 1
     2 SEC2        4 GROUP        1 X    SEC  0     **** SEC X 2
     3 ASC3       33 GROUP        1 X    ASC  0     **** ASC X 3
     4 GLC5        7 GROUP        1 X    GLC  0     **** GLC X 6
     5 ALP1        3 GROUP        1 Y    ALP  0     ROOT ALP Y 8
     6 SEP2        6 GROUP        1 Y    SEP  0     **** SEP Y 9
     7 ASP3       35 GROUP        1 Y    ASP  0     **** ASP Y 10
     8 GLP5        9 GROUP        1 Y    GLP  0     **** GLP Y 13
     9 ALL1        2 GROUP        1 Z    ALL  0     ROOT ALL Z 15
    10 SEL2        5 GROUP        1 Z    SEL  0     **** SEL Z 16
    11 ASL3       34 GROUP        1 Z    ASL  0     **** ASL Z 17
    12 GLL5        8 GROUP        1 Z    GLL  0     **** GLL Z 20
@<TRIPOS>SET

