#    Name: 3hat_GLY_VAL_ARG_RNG_1_ligand
#    Modification time : Tue Mar 25 13:49:08 2014

@<TRIPOS>MOLECULE
3hat_GLY_VAL_ARG_RNG_1_ligand
   68    68     4     0     0
SMALL
NO_CHARGES


@<TRIPOS>ATOM
      1 N          16.0830  -16.3600   24.1050 N.am      1 GLY304      0.0000
      2 CA         16.1000  -16.2950   22.6500 C.3       1 GLY304      0.0000
      3 C          16.3650  -14.8160   22.2990 C.2       1 GLY304      0.0000
      4 O          15.4670  -14.0560   22.6250 O.2       1 GLY304      0.0000
      5 HNCA       15.2850  -15.9814   24.5864 H         1 GLY304      0.0000
      6 HA2        15.1516  -16.5751   22.2283 H         1 GLY304      0.0000
      7 HA3        16.8961  -16.8862   22.2348 H         1 GLY304      0.0000
      8 N          17.5080  -14.5840   21.7360 N.am      2 VAL305      0.0000
      9 CA         18.0100  -13.2930   21.2720 C.3       2 VAL305      0.0000
     10 C          16.9320  -12.8720   20.2820 C.2       2 VAL305      0.0000
     11 O          16.8640  -13.5980   19.3020 O.2       2 VAL305      0.0000
     12 CB         19.4020  -13.4770   20.6580 C.3       2 VAL305      0.0000
     13 CG1        20.0370  -14.8250   21.0610 C.3       2 VAL305      0.0000
     14 CG2        19.5230  -13.2910   19.1530 C.3       2 VAL305      0.0000
     15 HNCA       18.2100  -15.3906   21.5632 H         2 VAL305      0.0000
     16 HA         18.0349  -12.6065   22.0753 H         2 VAL305      0.0000
     17 HB         20.0721  -12.6962   21.1305 H         2 VAL305      0.0000
     18 H          20.9440  -14.9438   20.6570 H         2 VAL305      0.0000
     19 H          20.1451  -14.9031   22.0521 H         2 VAL305      0.0000
     20 H          19.4802  -15.6011   20.7649 H         2 VAL305      0.0000
     21 HG21       20.4616  -13.4278   18.8361 H         2 VAL305      0.0000
     22 HG22       18.9473  -13.9368   18.6515 H         2 VAL305      0.0000
     23 HG23       19.2488  -12.3722   18.8691 H         2 VAL305      0.0000
     24 N          16.1700  -11.8370   20.4740 N.am      3 ARG306      0.0000
     25 CA         15.0690  -11.3670   19.6400 C.3       3 ARG306      0.0000
     26 C          15.2600  -10.5440   18.3700 C.2       3 ARG306      0.0000
     27 O          14.1580   -9.9760   18.0200 O.2       3 ARG306      0.0000
     28 CB         14.0150  -10.6400   20.5790 C.3       3 ARG306      0.0000
     29 CG         13.4010  -11.6880   21.5030 C.3       3 ARG306      0.0000
     30 CD         12.3890  -11.2080   22.4020 C.3       3 ARG306      0.0000
     31 NE         11.6340  -12.2380   23.0790 N.pl3     3 ARG306      0.0000
     32 CZ         10.8420  -11.9770   24.1430 C.cat     3 ARG306      0.0000
     33 NH1        10.7440  -10.7390   24.6870 N.pl3     3 ARG306      0.0000
     34 NH2        10.0480  -12.8860   24.7350 N.pl3     3 ARG306      0.0000
     35 OXT        16.3090  -10.4290   17.6750 O.2       3 ARG306      0.0000
     36 HNCA       16.3254  -11.2049   21.3487 H         3 ARG306      0.0000
     37 HA         14.4591  -12.2991   19.3197 H         3 ARG306      0.0000
     38 HB2        13.2619  -10.2027   19.9552 H         3 ARG306      0.0000
     39 HB3        14.5358   -9.8970   21.1484 H         3 ARG306      0.0000
     40 HG2        14.2420  -12.1649   22.0696 H         3 ARG306      0.0000
     41 HG3        12.9993  -12.5085   20.8540 H         3 ARG306      0.0000
     42 HD2        11.6789  -10.5346   21.8449 H         3 ARG306      0.0000
     43 HD3        12.8574  -10.5286   23.1682 H         3 ARG306      0.0000
     44 HE         11.7303  -13.2070   22.7024 H         3 ARG306      0.0000
     45 HH11       11.2482  -10.0122   24.2205 H         3 ARG306      0.0000
     46 HH12       10.1762  -10.6622   25.5066 H         3 ARG306      0.0000
     47 HH21        9.5339  -12.5687   25.5319 H         3 ARG306      0.0000
     48 HH22       10.0423  -13.7984   24.3256 H         3 ARG306      0.0000
     49 O          17.9160  -17.7100   24.0140 O.2       4 RNG303      0.0000
     50 C          17.1340  -16.9200   24.6840 C.2       4 RNG303      0.0000
     51 CA         17.5180  -16.7080   26.1450 C.3       4 RNG303      0.0000
     52 CH         18.7530  -15.7240   26.3080 C.3       4 RNG303      0.0000
     53 CG         19.7560  -16.3680   27.3250 C.3       4 RNG303      0.0000
     54 CF         20.8610  -16.9610   26.6950 C.3       4 RNG303      0.0000
     55 CE         21.5490  -16.0590   25.5930 C.3       4 RNG303      0.0000
     56 N1         20.7420  -14.8140   25.2310 N.am      4 RNG303      0.0000
     57 N2         19.4880  -15.1190   25.0070 N.am      4 RNG303      0.0000
     58 H          17.7902  -17.6584   26.6025 H         4 RNG303      0.0000
     59 H          16.6801  -16.2803   26.6943 H         4 RNG303      0.0000
     60 H          18.3394  -14.8218   26.8747 H         4 RNG303      0.0000
     61 H          19.1663  -17.0924   27.9217 H         4 RNG303      0.0000
     62 H          20.0477  -15.5586   28.0238 H         4 RNG303      0.0000
     63 H          20.5997  -17.9149   26.1806 H         4 RNG303      0.0000
     64 H          21.6714  -17.2269   27.4128 H         4 RNG303      0.0000
     65 H          21.6978  -16.6777   24.7016 H         4 RNG303      0.0000
     66 H          22.5348  -15.7664   25.9701 H         4 RNG303      0.0000
     67 H          21.2019  -13.9708   25.2026 H         4 RNG303      0.0000
     68 H          18.9318  -15.0511   24.2248 H         4 RNG303      0.0000
@<TRIPOS>BOND
     1    2    1 1
     2    5    1 1
     3    3    2 1
     4    6    2 1
     5    7    2 1
     6    4    3 2
     7    9    8 1
     8   15    8 1
     9   10    9 1
    10   12    9 1
    11   16    9 1
    12   11   10 2
    13   13   12 1
    14   14   12 1
    15   17   12 1
    16   18   13 1
    17   19   13 1
    18   20   13 1
    19   21   14 1
    20   22   14 1
    21   23   14 1
    22   25   24 1
    23   36   24 1
    24   26   25 1
    25   28   25 1
    26   37   25 1
    27   27   26 2
    28   35   26 2
    29   29   28 1
    30   38   28 1
    31   39   28 1
    32   30   29 1
    33   40   29 1
    34   41   29 1
    35   31   30 1
    36   42   30 1
    37   43   30 1
    38   32   31 ar
    39   44   31 1
    40   33   32 ar
    41   34   32 ar
    42   45   33 1
    43   46   33 1
    44   47   34 1
    45   48   34 1
    46   50   49 2
    47   51   50 1
    48   52   51 1
    49   58   51 1
    50   59   51 1
    51   53   52 1
    52   57   52 1
    53   60   52 1
    54   54   53 1
    55   61   53 1
    56   62   53 1
    57   55   54 1
    58   63   54 1
    59   64   54 1
    60   56   55 1
    61   65   55 1
    62   66   55 1
    63   57   56 1
    64   67   56 1
    65   68   57 1
    66   50    1 1 
    67    8    3 am
    68   24   10 am
@<TRIPOS>SUBSTRUCTURE
     1 GLY304      1 RESIDUE
     2 VAL305      8 RESIDUE
     3 ARG306     24 RESIDUE
     4 RNG303     49 GROUP
@<TRIPOS>SET

