#    Name: 2q7g_CCL_1_INTS_M
#    Modification time : Mon Mar 24 20:57:45 2014

@<TRIPOS>MOLECULE
2q7g_CCL_1_INTS_M
   47     0     6     0     0
SMALL
NO_CHARGES


@<TRIPOS>ATOM
      1 CA          8.3380   53.1420   33.6670 C.3       2 GLC5        0.0000 
      2 CA          8.6970   51.8580   32.1270 C.3       6 GLL5        0.0000 
      3 CA          7.9790   54.4260   35.2070 C.3       4 GLP5        0.0000 
      4 CA          7.0480   53.5255   33.6050 C.3       2 GLC5        0.0000 
      5 CA          7.2870   52.1750   32.6150 C.3       6 GLL5        0.0000 
      6 CA          6.8090   54.8760   34.5950 C.3       4 GLP5        0.0000 
      7 CA          5.9875   52.8715   33.1700 C.3       2 GLC5        0.0000 
      8 CA          6.3680   51.5390   31.5810 C.3       6 GLL5        0.0000 
      9 CA          5.6070   54.2040   34.7590 C.3       4 GLP5        0.0000 
     10 CA          7.4250   50.6095   29.1400 C.3       2 GLC5        0.0000 
     11 CA          7.1120   50.2690   31.1180 C.3       6 GLL5        0.0000 
     12 CA          7.7380   50.9500   27.1620 C.3       4 GLP5        0.0000 
     13 N           8.5735   47.6325   29.6280 N.am      1 SEC2        0.0000 
     14 N           7.2400   47.9620   30.0270 N.am      5 SEL2        0.0000 
     15 N           9.9070   47.3030   29.2290 N.am      3 SEP2        0.0000 
     16 CA          4.9885   44.0215   30.1230 C.3       2 GLC5        0.0000 
     17 CA          6.2000   45.5610   31.0960 C.3       6 GLL5        0.0000 
     18 CA          3.7770   42.4820   29.1500 C.3       4 GLP5        0.0000 
     19 CA          4.3710   45.2875   31.8150 C.3       2 GLC5        0.0000 
     20 CA          2.5420   45.0140   32.5340 C.3       4 GLP5        0.0000 
     21 CA          5.8795   46.5560   29.1565 C.3       2 GLC5        0.0000 
     22 CA          5.5590   47.5510   27.2170 C.3       4 GLP5        0.0000 
     23 CA          8.8685   43.7780   30.4105 C.3       2 GLC5        0.0000 
     24 CA          7.5090   44.8360   31.4180 C.3       6 GLL5        0.0000 
     25 CA         10.2280   42.7200   29.4030 C.3       4 GLP5        0.0000 
     26 CA         11.0565   43.5530   32.9290 C.3       2 GLC5        0.0000 
     27 CA          8.8770   43.7280   33.2550 C.3       6 GLL5        0.0000 
     28 CA         13.2360   43.3780   32.6030 C.3       4 GLP5        0.0000 
     29 CA          9.5525   43.2240   31.3290 C.3       2 GLC5        0.0000 
     30 CA          9.6410   41.8250   33.1320 C.3       2 GLC5        0.0000 
     31 CA         10.4050   39.9220   33.0090 C.3       4 GLP5        0.0000 
     32 CA         10.9200   44.6245   35.8450 C.3       2 GLC5        0.0000 
     33 CA          9.1070   43.8840   34.7810 C.3       6 GLL5        0.0000 
     34 CA         12.7330   45.3650   36.9090 C.3       4 GLP5        0.0000 
     35 CA          9.8953   50.5030   33.2047 C.3       2 GLC5        0.0000 
     36 CA          8.6020   50.5340   31.3540 C.3       6 GLL5        0.0000 
     37 CA         11.1410   49.8100   34.6690 C.3       4 GLP5        0.0000 
     38 CA         10.3767   51.8070   31.4318 C.3       2 GLC5        0.0000 
     39 CA         12.1040   52.4180   31.1230 C.3       4 GLP5        0.0000 
     40 CA          8.8447   51.6320   29.6958 C.3       2 GLC5        0.0000 
     41 CA          9.0400   52.0680   27.6510 C.3       4 GLP5        0.0000 
     42 CA          7.3305   53.4234   30.8135 C.3       2 GLC5        0.0000 
     43 CA          7.4810   55.0690   29.6510 C.3       4 GLP5        0.0000 
     44 CA          5.2845   50.1745   30.9153 C.3       2 GLC5        0.0000 
     45 CA          3.8290   49.4450   30.4810 C.3       4 GLP5        0.0000 
     46 CA          7.0068   44.6857   29.5000 C.3       2 GLC5        0.0000 
     47 CA          7.1590   44.1730   27.7430 C.3       4 GLP5        0.0000 
@<TRIPOS>BOND
@<TRIPOS>SUBSTRUCTURE
     1 SEC2       13 GROUP        1 X    SEC  0     ROOT SEC X 2
     2 GLC5        1 GROUP        1 X    GLC  0     **** GLC X 6
     3 SEP2       15 GROUP        1 Y    SEP  0     ROOT SEP Y 9
     4 GLP5        3 GROUP        1 Y    GLP  0     **** GLP Y 13
     5 SEL2       14 GROUP        1 Z    SEL  0     ROOT SEL Z 16
     6 GLL5        2 GROUP        1 Z    GLL  0     **** GLL Z 20
@<TRIPOS>SET

