#    Name: 2q7g_CCL_1_ligand
#    Modification time : Mon Mar 24 20:57:45 2014

@<TRIPOS>MOLECULE
2q7g_CCL_1_ligand
   40    40     1     0     0
SMALL
NO_CHARGES


@<TRIPOS>ATOM
      1 CAK         8.6020   50.5340   31.3540 C.3       1 CCL901      0.0000 
      2 CAG         8.6970   51.8580   32.1270 C.3       1 CCL901      0.0000 
      3 CAH         7.2870   52.1750   32.6150 C.3       1 CCL901      0.0000 
      4 CAL         6.3680   51.5390   31.5810 C.3       1 CCL901      0.0000 
      5 CAR         7.1120   50.2690   31.1180 C.3       1 CCL901      0.0000 
      6 OAN         6.7690   49.1150   31.9240 O.3       1 CCL901      0.0000 
      7 CAP         6.7760   47.9570   31.1740 C.2       1 CCL901      0.0000 
      8 OAC         7.2400   47.9620   30.0270 O.2       1 CCL901      0.0000 
      9 NAM         6.2630   46.8760   31.7440 N.am      1 CCL901      0.0000 
     10 CAI         6.2000   45.5610   31.0960 C.3       1 CCL901      0.0000 
     11 CAE         7.5090   44.8360   31.4180 C.3       1 CCL901      0.0000 
     12 CAF         7.4800   44.2130   32.8120 C.3       1 CCL901      0.0000 
     13 CB          8.8770   43.7280   33.2550 C.3       1 CCL901      0.0000 
     14 CA          9.1070   43.8840   34.7810 C.3       1 CCL901      0.0000 
     15 C           7.9850   43.2390   35.6260 C.2       1 CCL901      0.0000 
     16 OXT         7.2990   42.3240   35.1090 O.co2     1 CCL901      0.0000 
     17 O           7.8420   43.6810   36.7900 O.co2     1 CCL901      0.0000 
     18 N           9.2140   45.3110   35.1420 N.4       1 CCL901      0.0000 
     19 H           9.0188   49.7450   31.9449 H         1 CCL901      0.0000 
     20 H           9.1034   50.6329   30.4137 H         1 CCL901      0.0000 
     21 H           9.0355   52.6305   31.4685 H         1 CCL901      0.0000 
     22 H           9.3517   51.7345   32.9642 H         1 CCL901      0.0000 
     23 H           7.1400   53.2294   32.6295 H         1 CCL901      0.0000 
     24 H           7.1263   51.7256   33.5667 H         1 CCL901      0.0000 
     25 H           6.2413   52.1934   30.7525 H         1 CCL901      0.0000 
     26 H           5.4463   51.2610   32.0326 H         1 CCL901      0.0000 
     27 H           6.9554   50.1181   30.0924 H         1 CCL901      0.0000 
     28 H           5.8616   46.9030   32.7202 H         1 CCL901      0.0000 
     29 H           6.1161   45.6590   30.0234 H         1 CCL901      0.0000 
     30 H           5.3785   44.9754   31.4824 H         1 CCL901      0.0000 
     31 H           8.3354   45.5474   31.3590 H         1 CCL901      0.0000 
     32 H           7.6747   44.0515   30.6766 H         1 CCL901      0.0000 
     33 H           6.7956   43.3625   32.8154 H         1 CCL901      0.0000 
     34 H           7.1197   44.9505   33.5318 H         1 CCL901      0.0000 
     35 H           9.6393   44.3025   32.7240 H         1 CCL901      0.0000 
     36 H           8.9904   42.6749   32.9882 H         1 CCL901      0.0000 
     37 H          10.0401   43.3817   35.0323 H         1 CCL901      0.0000 
     38 H           9.3610   45.4359   36.1232 H         1 CCL901      0.0000 
     39 H           9.9761   45.7567   34.6724 H         1 CCL901      0.0000 
     40 H           8.3857   45.8177   34.9029 H         1 CCL901      0.0000 
@<TRIPOS>BOND
     1    2    1 1    
     2    5    1 1    
     3   19    1 1    
     4   20    1 1    
     5    3    2 1    
     6   21    2 1    
     7   22    2 1    
     8    4    3 1    
     9   23    3 1    
    10   24    3 1    
    11    5    4 1    
    12   25    4 1    
    13   26    4 1    
    14    6    5 1    
    15   27    5 1    
    16    7    6 1    
    17    8    7 2    
    18    9    7 am   
    19   10    9 1    
    20   28    9 1    
    21   11   10 1    
    22   29   10 1    
    23   30   10 1    
    24   12   11 1    
    25   31   11 1    
    26   32   11 1    
    27   13   12 1    
    28   33   12 1    
    29   34   12 1    
    30   14   13 1    
    31   35   13 1    
    32   36   13 1    
    33   15   14 1    
    34   18   14 1    
    35   37   14 1    
    36   16   15 ar   
    37   17   15 ar   
    38   38   18 1    
    39   39   18 1    
    40   40   18 1    
@<TRIPOS>SUBSTRUCTURE
     1 CCL901      1 GROUP   
@<TRIPOS>SET

