#    Name: 3cs6_0CO_1_INTS_M
#    Modification time : Mon Mar 24 22:15:34 2014

@<TRIPOS>MOLECULE
3cs6_0CO_1_INTS_M
  116     0     9     0     0
SMALL
NO_CHARGES


@<TRIPOS>ATOM
      1 CA         13.4750   17.5620   32.1965 C.3       3 GLC5        0.0000 
      2 CA         15.4090   18.0850   32.8410 C.3       9 GLL5        0.0000 
      3 CA         11.5410   17.0390   31.5520 C.3       6 GLP5        0.0000 
      4 CA         17.1490   15.7255   33.0425 C.3       3 GLC5        0.0000 
      5 CA         16.0150   16.9640   33.7720 C.3       9 GLL5        0.0000 
      6 CA         18.2830   14.4870   32.3130 C.3       6 GLP5        0.0000 
      7 CA         14.5315   15.6220   32.7260 C.3       3 GLC5        0.0000 
      8 CA         14.9520   16.3550   34.7500 C.3       9 GLL5        0.0000 
      9 CA         14.1110   14.8890   30.7020 C.3       6 GLP5        0.0000 
     10 CA         14.4135   17.2700   37.4535 C.3       3 GLC5        0.0000 
     11 CA         14.2030   17.4610   35.5690 C.3       9 GLL5        0.0000 
     12 CA         14.6240   17.0790   39.3380 C.3       6 GLP5        0.0000 
     13 CA         15.6715   18.6575   36.3385 C.3       3 GLC5        0.0000 
     14 CA         17.1400   19.8540   37.1080 C.3       6 GLP5        0.0000 
     15 CA         12.5850   17.8025   33.1095 C.3       3 GLC5        0.0000 
     16 CA         13.6290   18.5660   34.6670 C.3       9 GLL5        0.0000 
     17 CA         12.2610   26.5030   31.4415 C.3       3 GLC5        0.0000 
     18 CA         12.1670   24.6050   31.9620 C.3       9 GLL5        0.0000 
     19 CA         12.3550   28.4010   30.9210 C.3       6 GLP5        0.0000 
     20 CA         12.3825   21.4715   30.9775 C.3       3 GLC5        0.0000 
     21 CA         13.0030   23.5370   31.1730 C.3       9 GLL5        0.0000 
     22 CA         11.7620   19.4060   30.7820 C.3       6 GLP5        0.0000 
     23 CA         15.8555   23.7850   32.3630 C.3       3 GLC5        0.0000 
     24 CA         14.3010   23.1100   31.9400 C.3       9 GLL5        0.0000 
     25 CA         17.4100   24.4600   32.7860 C.3       6 GLP5        0.0000 
     26 CA         12.0560   22.3435   36.7625 C.3       3 GLC5        0.0000 
     27 CA         12.9490   23.8640   35.6990 C.3       9 GLL5        0.0000 
     28 CA         11.1630   20.8230   37.8260 C.3       6 GLP5        0.0000 
     29 CA         14.5735   22.4135   36.1680 C.3       3 GLC5        0.0000 
     30 CA         16.1980   20.9630   36.6370 C.3       6 GLP5        0.0000 
     31 CA         14.9010   24.8620   35.2185 C.3       3 GLC5        0.0000 
     32 CA         16.8530   25.8600   34.7380 C.3       6 GLP5        0.0000 
     33 CA         12.2245   24.9425   38.0020 C.3       3 GLC5        0.0000 
     34 CA         11.7560   24.8670   35.8790 C.3       9 GLL5        0.0000 
     35 CA         12.6930   25.0180   40.1250 C.3       6 GLP5        0.0000 
     36 CA         11.5760   18.6845   33.1100 C.3       3 GLC5        0.0000 
     37 CA         12.3080   18.9880   34.7820 C.3       9 GLL5        0.0000 
     38 CA         10.8440   18.3810   31.4380 C.3       6 GLP5        0.0000 
     39 CA         11.1050   17.6090   35.6260 C.3       3 GLC5        0.0000 
     40 CA          9.9020   16.2300   36.4700 C.3       6 GLP5        0.0000 
     41 CA         11.7355   19.9055   36.3040 C.3       3 GLC5        0.0000 
     42 N          17.9980   16.5720   34.9635 N.am      2 SEC2        0.0000 
     43 N          17.0900   17.5420   34.5530 N.am      8 SEL2        0.0000 
     44 N          18.9060   15.6020   35.3740 N.am      5 SEP2        0.0000 
     45 O          17.9355   18.4180   33.8575 O.2       1 ALC1        0.0000 
     46 O          17.0900   17.5420   34.5530 O.2       7 ALL1        0.0000 
     47 O          18.7810   19.2940   33.1620 O.2       4 ALP1        0.0000 
     48 N          13.2305   15.6020   37.0010 N.am      2 SEC2        0.0000 
     49 N          13.1380   16.8630   36.3060 N.am      8 SEL2        0.0000 
     50 N          13.3230   14.3410   37.6960 N.am      5 SEP2        0.0000 
     51 O          11.9160   16.5485   35.8005 O.2       1 ALC1        0.0000 
     52 O          13.1380   16.8630   36.3060 O.2       7 ALL1        0.0000 
     53 O          10.6940   16.2340   35.2950 O.2       4 ALP1        0.0000 
     54 CA          8.3865   24.6485   36.9570 C.3       3 GLC5        0.0000 
     55 CA          8.8390   25.2670   34.9390 C.3       9 GLL5        0.0000 
     56 CA          7.9340   24.0300   38.9750 C.3       6 GLP5        0.0000 
     57 CA          7.5485   26.3965   36.3450 C.3       3 GLC5        0.0000 
     58 CA          6.2580   27.5260   37.7510 C.3       6 GLP5        0.0000 
     59 CA          8.8820   25.5005   30.6905 C.3       3 GLC5        0.0000 
     60 CA          8.3650   25.9630   32.6790 C.3       9 GLL5        0.0000 
     61 CA          9.3990   25.0380   28.7020 C.3       6 GLP5        0.0000 
     62 CA          7.3675   27.6950   32.8300 C.3       3 GLC5        0.0000 
     63 CA          6.3700   29.4270   32.9810 C.3       6 GLP5        0.0000 
     64 CA          3.9945   25.7000   30.9600 C.3       3 GLC5        0.0000 
     65 CA          4.9140   25.9810   32.3930 C.3       9 GLL5        0.0000 
     66 CA          3.0750   25.4190   29.5270 C.3       6 GLP5        0.0000 
     67 CA          5.7775   26.7995   30.5175 C.3       3 GLC5        0.0000 
     68 CA          6.6410   27.6180   28.6420 C.3       6 GLP5        0.0000 
     69 CA          3.2665   27.2225   32.1990 C.3       3 GLC5        0.0000 
     70 CA          1.6190   28.4640   32.0050 C.3       6 GLP5        0.0000 
     71 N           4.8525   27.6425   34.3080 N.am      2 SEC2        0.0000 
     72 N           4.1920   26.3400   34.6760 N.am      8 SEL2        0.0000 
     73 N           5.5130   28.9450   33.9400 N.am      5 SEP2        0.0000 
     74 O           4.7390   26.4730   36.0575 O.2       1 ALC1        0.0000 
     75 O           4.1920   26.3400   34.6760 O.2       7 ALL1        0.0000 
     76 O           5.2860   26.6060   37.4390 O.2       4 ALP1        0.0000 
     77 CA          6.2210   22.7090   34.2110 C.3       3 GLC5        0.0000 
     78 CA          4.7200   24.1230   34.0590 C.3       9 GLL5        0.0000 
     79 CA          7.7220   21.2950   34.3630 C.3       6 GLP5        0.0000 
     80 CA          9.3025   22.1555   33.9535 C.3       3 GLC5        0.0000 
     81 CA         10.8830   23.0160   33.5440 C.3       9 GLL5        0.0000 
     82 CA         10.2380   28.6580   33.3685 C.3       3 GLC5        0.0000 
     83 CA          9.9800   27.4830   34.9890 C.3       9 GLL5        0.0000 
     84 CA         10.4960   29.8330   31.7480 C.3       6 GLP5        0.0000 
     85 CA          9.4350   29.0795   35.8400 C.3       3 GLC5        0.0000 
     86 CA          8.8900   30.6760   36.6910 C.3       6 GLP5        0.0000 
     87 CA         11.9065   27.8835   35.5510 C.3       3 GLC5        0.0000 
     88 CA         13.8330   28.2840   36.1130 C.3       6 GLP5        0.0000 
     89 CA         13.2460   19.5992   32.1483 C.3       3 GLC5        0.0000 
     90 CA         14.8490   20.4530   33.3860 C.3       9 GLL5        0.0000 
     91 CA         15.1590   19.9060   35.3960 C.3       3 GLC5        0.0000 
     92 CA         14.6110   19.1320   33.6430 C.3       9 GLL5        0.0000 
     93 CA         14.9115   16.2067   32.0042 C.3       3 GLC5        0.0000 
     94 CA         17.7415   17.9443   33.0403 C.3       3 GLC5        0.0000 
     95 CA         19.7710   18.3640   32.7740 C.3       6 GLP5        0.0000 
     96 CA         16.6175   17.6677   31.6152 C.3       3 GLC5        0.0000 
     97 CA         17.5230   17.8110   29.9240 C.3       6 GLP5        0.0000 
     98 CA         16.4513   15.6498   35.6195 C.3       3 GLC5        0.0000 
     99 CA         17.4190   14.6400   36.9780 C.3       6 GLP5        0.0000 
    100 CA         16.2590   21.7987   33.7623 C.3       3 GLC5        0.0000 
    101 CA         14.2290   21.6260   34.0130 C.3       9 GLL5        0.0000 
    102 CA         17.9790   22.5580   33.8250 C.3       6 GLP5        0.0000 
    103 CA         15.2273   21.4394   35.0999 C.3       3 GLC5        0.0000 
    104 CA         15.4582   24.0143   33.9845 C.3       3 GLC5        0.0000 
    105 CA         13.9740   22.7920   33.4260 C.3       9 GLL5        0.0000 
    106 CA         17.2780   24.6490   34.1810 C.3       6 GLP5        0.0000 
    107 CA         11.4725   23.4000   30.0888 C.3       3 GLC5        0.0000 
    108 CA         10.3600   22.7290   28.6100 C.3       6 GLP5        0.0000 
    109 CA         14.5330   23.4697   29.8927 C.3       3 GLC5        0.0000 
    110 CA         15.4140   23.6160   28.2290 C.3       6 GLP5        0.0000 
    111 CA         12.7265   26.7230   35.6425 C.3       3 GLC5        0.0000 
    112 CA         11.4840   25.4570   34.4650 C.3       9 GLL5        0.0000 
    113 CA          8.0045   23.2662   34.3825 C.3       3 GLC5        0.0000 
    114 CA          6.0335   26.6345   35.9582 C.3       3 GLC5        0.0000 
    115 CA          6.5070   25.8970   34.4620 C.3       9 GLL5        0.0000 
    116 CA          5.8657   27.6445   33.1301 C.3       3 GLC5        0.0000 
@<TRIPOS>BOND
@<TRIPOS>SUBSTRUCTURE
     1 ALC1       45 GROUP        1 X    ALC  0     ROOT ALC X 1
     2 SEC2       42 GROUP        1 X    SEC  0     **** SEC X 2
     3 GLC5        1 GROUP        1 X    GLC  0     **** GLC X 6
     4 ALP1       47 GROUP        1 Y    ALP  0     ROOT ALP Y 8
     5 SEP2       44 GROUP        1 Y    SEP  0     **** SEP Y 9
     6 GLP5        3 GROUP        1 Y    GLP  0     **** GLP Y 13
     7 ALL1       46 GROUP        1 Z    ALL  0     ROOT ALL Z 15
     8 SEL2       43 GROUP        1 Z    SEL  0     **** SEL Z 16
     9 GLL5        2 GROUP        1 Z    GLL  0     **** GLL Z 20
@<TRIPOS>SET

