#    Name: 3cs6_0CO_1_ligand
#    Modification time : Mon Mar 24 22:15:34 2014

@<TRIPOS>MOLECULE
3cs6_0CO_1_ligand
   74    77     1     0     0
SMALL
NO_CHARGES


@<TRIPOS>ATOM
      1 C5         14.6110   19.1320   33.6430 C.2       1 0CO1        0.0000 
      2 C4         15.4090   18.0850   32.8410 C.3       1 0CO1        0.0000 
      3 C3         16.0150   16.9640   33.7720 C.3       1 0CO1        0.0000 
      4 C2         14.9520   16.3550   34.7500 C.3       1 0CO1        0.0000 
      5 C1         14.2030   17.4610   35.5690 C.3       1 0CO1        0.0000 
      6 C10        13.6290   18.5660   34.6670 C.2       1 0CO1        0.0000 
      7 C6         14.8490   20.4530   33.3860 C.2       1 0CO1        0.0000 
      8 C7         14.2290   21.6260   34.0130 C.2       1 0CO1        0.0000 
      9 C8         13.9740   22.7920   33.4260 C.2       1 0CO1        0.0000 
     10 C14        13.3030   23.9670   34.1500 C.3       1 0CO1        0.0000 
     11 C13        11.8790   24.2740   33.5070 C.3       1 0CO1        0.0000 
     12 C12        12.1670   24.6050   31.9620 C.3       1 0CO1        0.0000 
     13 C11        13.0030   23.5370   31.1730 C.3       1 0CO1        0.0000 
     14 C9         14.3010   23.1100   31.9400 C.3       1 0CO1        0.0000 
     15 C15        12.9490   23.8640   35.6990 C.3       1 0CO1        0.0000 
     16 C16        11.7560   24.8670   35.8790 C.3       1 0CO1        0.0000 
     17 C17        11.4840   25.4570   34.4650 C.3       1 0CO1        0.0000 
     18 C19        12.3080   18.9880   34.7820 C.2       1 0CO1        0.0000 
     19 O3         17.0900   17.5420   34.5530 O.3       1 0CO1        0.0000 
     20 O1         13.1380   16.8630   36.3060 O.3       1 0CO1        0.0000 
     21 C20        10.0090   26.0690   34.3220 C.3       1 0CO1        0.0000 
     22 C22         8.8390   25.2670   34.9390 C.3       1 0CO1        0.0000 
     23 C23         7.7350   25.2080   33.8650 C.3       1 0CO1        0.0000 
     24 C28         8.3650   25.9630   32.6790 C.3       1 0CO1        0.0000 
     25 O21         9.7120   26.2170   32.9210 O.3       1 0CO1        0.0000 
     26 C24         6.5070   25.8970   34.4620 C.3       1 0CO1        0.0000 
     27 C25         5.1110   25.5890   33.8690 C.3       1 0CO1        0.0000 
     28 C26         4.9140   25.9810   32.3930 C.3       1 0CO1        0.0000 
     29 O25         4.1920   26.3400   34.6760 O.3       1 0CO1        0.0000 
     30 C27         4.7200   24.1230   34.0590 C.3       1 0CO1        0.0000 
     31 C18        10.8830   23.0160   33.5440 C.3       1 0CO1        0.0000 
     32 C21         9.9800   27.4830   34.9890 C.3       1 0CO1        0.0000 
     33 H          16.2287   18.5719   32.3193 H         1 0CO1        0.0000 
     34 H          14.7569   17.6066   32.1150 H         1 0CO1        0.0000 
     35 H          16.3818   16.1756   33.1417 H         1 0CO1        0.0000 
     36 H          15.4551   15.6866   35.4419 H         1 0CO1        0.0000 
     37 H          14.2246   15.7941   34.1713 H         1 0CO1        0.0000 
     38 H          14.9265   17.9130   36.2368 H         1 0CO1        0.0000 
     39 H          15.5802   20.7034   32.6314 H         1 0CO1        0.0000 
     40 H          13.9762   21.4763   35.0448 H         1 0CO1        0.0000 
     41 H          13.8642   24.8891   34.0139 H         1 0CO1        0.0000 
     42 H          12.6913   25.5702   31.9221 H         1 0CO1        0.0000 
     43 H          11.1957   24.7373   31.4648 H         1 0CO1        0.0000 
     44 H          13.2857   23.9557   30.2109 H         1 0CO1        0.0000 
     45 H          12.3847   22.6578   31.0131 H         1 0CO1        0.0000 
     46 H          14.7096   22.2286   31.4682 H         1 0CO1        0.0000 
     47 H          15.0129   23.9210   31.8971 H         1 0CO1        0.0000 
     48 H          13.7745   24.1917   36.2567 H         1 0CO1        0.0000 
     49 H          12.6259   22.8883   35.9076 H         1 0CO1        0.0000 
     50 H          12.0518   25.6432   36.5377 H         1 0CO1        0.0000 
     51 H          10.9023   24.3343   36.2126 H         1 0CO1        0.0000 
     52 H          12.2148   26.2489   34.3176 H         1 0CO1        0.0000 
     53 H           8.4734   25.7801   35.8003 H         1 0CO1        0.0000 
     54 H           9.1692   24.2783   35.1676 H         1 0CO1        0.0000 
     55 H           7.5566   24.2174   33.6226 H         1 0CO1        0.0000 
     56 H           7.7755   26.8849   32.5392 H         1 0CO1        0.0000 
     57 H           8.2026   25.3404   31.7829 H         1 0CO1        0.0000 
     58 H           6.6631   27.0084   34.4147 H         1 0CO1        0.0000 
     59 H           6.4707   25.6716   35.5618 H         1 0CO1        0.0000 
     60 H           5.0494   26.9611   32.2478 H         1 0CO1        0.0000 
     61 H           5.5566   25.5043   31.7932 H         1 0CO1        0.0000 
     62 H           3.9934   25.7613   32.0701 H         1 0CO1        0.0000 
     63 H           5.3705   23.5049   33.6176 H         1 0CO1        0.0000 
     64 H           4.6853   23.8702   35.0259 H         1 0CO1        0.0000 
     65 H           3.8193   23.9257   33.6720 H         1 0CO1        0.0000 
     66 H          11.2531   22.2344   33.0419 H         1 0CO1        0.0000 
     67 H          10.7087   22.7077   34.4792 H         1 0CO1        0.0000 
     68 H           9.9958   23.2326   33.1366 H         1 0CO1        0.0000 
     69 H          10.2118   27.4400   35.9608 H         1 0CO1        0.0000 
     70 H          10.6307   28.1095   34.5599 H         1 0CO1        0.0000 
     71 H           9.0769   27.9070   34.9215 H         1 0CO1        0.0000 
     72 H          17.7773   17.8194   33.8817 H         1 0CO1        0.0000 
     73 H          12.3771   16.8046   35.6598 H         1 0CO1        0.0000 
     74 H           4.4179   26.0946   35.6188 H         1 0CO1        0.0000 
@<TRIPOS>BOND
     1    2    1 1    
     2    6    1 1    
     3    7    1 2    
     4    3    2 1    
     5   33    2 1    
     6   34    2 1    
     7    4    3 1    
     8   19    3 1    
     9   35    3 1    
    10    5    4 1    
    11   36    4 1    
    12   37    4 1    
    13    6    5 1    
    14   20    5 1    
    15   38    5 1    
    16   18    6 2    
    17    8    7 1    
    18   39    7 1    
    19    9    8 2    
    20   40    8 1    
    21   10    9 1    
    22   14    9 1    
    23   11   10 1    
    24   15   10 1    
    25   41   10 1    
    26   12   11 1    
    27   17   11 1    
    28   31   11 1    
    29   13   12 1    
    30   42   12 1    
    31   43   12 1    
    32   14   13 1    
    33   44   13 1    
    34   45   13 1    
    35   46   14 1    
    36   47   14 1    
    37   16   15 1    
    38   48   15 1    
    39   49   15 1    
    40   17   16 1    
    41   50   16 1    
    42   51   16 1    
    43   21   17 1    
    44   52   17 1    
    45   72   19 1    
    46   73   20 1    
    47   22   21 1    
    48   25   21 1    
    49   32   21 1    
    50   23   22 1    
    51   53   22 1    
    52   54   22 1    
    53   24   23 1    
    54   26   23 1    
    55   55   23 1    
    56   25   24 1    
    57   56   24 1    
    58   57   24 1    
    59   27   26 1    
    60   58   26 1    
    61   59   26 1    
    62   28   27 1    
    63   29   27 1    
    64   30   27 1    
    65   60   28 1    
    66   61   28 1    
    67   62   28 1    
    68   74   29 1    
    69   63   30 1    
    70   64   30 1    
    71   65   30 1    
    72   66   31 1    
    73   67   31 1    
    74   68   31 1    
    75   69   32 1    
    76   70   32 1    
    77   71   32 1    
@<TRIPOS>SUBSTRUCTURE
     1 0CO1        1 GROUP   
@<TRIPOS>SET

