#    Name: 1np7_FAD_2_INTS_M
#    Modification time : Mon Mar 24 18:29:41 2014

@<TRIPOS>MOLECULE
1np7_FAD_2_INTS_M
   92     0     9     0     0
SMALL
NO_CHARGES


@<TRIPOS>ATOM
      1 N          -7.7895   53.2850   49.7630 N.am      2 SEC2        0.0000 
      2 N          -7.8790   51.8150   49.4030 N.am      8 SEL2        0.0000 
      3 N          -7.7000   54.7550   50.1230 N.am      5 SEP2        0.0000 
      4 N          -6.6390   52.2870   49.6125 N.am      2 SEC2        0.0000 
      5 N          -5.3990   52.7590   49.8220 N.am      5 SEP2        0.0000 
      6 N         -10.3560   50.0385   49.4000 N.am      2 SEC2        0.0000 
      7 N          -9.7000   50.5110   48.4460 N.am      8 SEL2        0.0000 
      8 N         -11.0120   49.5660   50.3540 N.am      5 SEP2        0.0000 
      9 CA         -6.9310   49.6070   51.1175 C.3       3 GLC5        0.0000 
     10 CA         -6.4240   49.1550   49.3050 C.3       9 GLL5        0.0000 
     11 CA         -7.4380   50.0590   52.9300 C.3       6 GLP5        0.0000 
     12 CA         -4.3055   47.1510   49.7540 C.3       3 GLC5        0.0000 
     13 CA         -5.5160   48.2090   48.5140 C.3       9 GLL5        0.0000 
     14 CA         -3.0950   46.0930   50.9940 C.3       6 GLP5        0.0000 
     15 CA         -4.5365   49.8235   45.3965 C.3       3 GLC5        0.0000 
     16 CA         -5.3910   48.6260   47.0440 C.3       9 GLL5        0.0000 
     17 CA         -3.6820   51.0210   43.7490 C.3       6 GLP5        0.0000 
     18 CA         -7.3785   46.2300   48.7290 C.3       3 GLC5        0.0000 
     19 CA         -5.8870   46.4000   47.1360 C.3       9 GLL5        0.0000 
     20 CA         -8.8700   46.0600   50.3220 C.3       6 GLP5        0.0000 
     21 CA         -4.8110   44.5345   47.0365 C.3       3 GLC5        0.0000 
     22 CA         -3.7350   42.6690   46.9370 C.3       6 GLP5        0.0000 
     23 N          -8.7270   43.0120   42.3905 N.am      2 SEC2        0.0000 
     24 N          -8.4150   43.2790   43.8140 N.am      8 SEL2        0.0000 
     25 N          -9.0390   42.7450   40.9670 N.am      5 SEP2        0.0000 
     26 CA         -8.0030   42.3530   45.7425 C.3       3 GLC5        0.0000 
     27 CA         -7.1060   43.3390   44.1710 C.3       9 GLL5        0.0000 
     28 CA         -8.9000   41.3670   47.3140 C.3       6 GLP5        0.0000 
     29 CA         -5.8150   42.4070   45.2800 C.3       3 GLC5        0.0000 
     30 CA         -4.5240   41.4750   46.3890 C.3       6 GLP5        0.0000 
     31 CA         -5.8805   43.2725   42.6915 C.3       3 GLC5        0.0000 
     32 CA         -4.6550   43.2060   41.2120 C.3       6 GLP5        0.0000 
     33 O          -2.8650   47.9335   39.7500 O.2       1 ALC1        0.0000 
     34 O          -3.9510   46.9940   39.8750 O.2       7 ALL1        0.0000 
     35 O          -1.7790   48.8730   39.6250 O.2       4 ALP1        0.0000 
     36 N          -2.6680   46.4375   37.9070 N.am      2 SEC2        0.0000 
     37 N          -4.1010   46.7530   37.7190 N.am      8 SEL2        0.0000 
     38 N          -1.2350   46.1220   38.0950 N.am      5 SEP2        0.0000 
     39 N          -6.8170   45.9170   36.3910 N.am      2 SEC2        0.0000 
     40 N          -7.0650   46.2920   37.9020 N.am      8 SEL2        0.0000 
     41 N          -6.5690   45.5420   34.8800 N.am      5 SEP2        0.0000 
     42 CA        -13.0490   45.2770   34.8980 C.3       3 GLC5        0.0000 
     43 CA        -11.5820   45.2710   35.9490 C.3       9 GLL5        0.0000 
     44 CA        -14.5160   45.2830   33.8470 C.3       6 GLP5        0.0000 
     45 CA        -10.8505   46.8930   35.2495 C.3       3 GLC5        0.0000 
     46 CA        -10.1190   48.5150   34.5500 C.3       6 GLP5        0.0000 
     47 CA        -10.3300   44.4815   34.8055 C.3       3 GLC5        0.0000 
     48 CA         -9.0780   43.6920   33.6620 C.3       6 GLP5        0.0000 
     49 CA        -14.3290   45.7570   39.7215 C.3       3 GLC5        0.0000 
     50 CA        -12.7440   45.4120   38.9730 C.3       9 GLL5        0.0000 
     51 CA        -15.9140   46.1020   40.4700 C.3       6 GLP5        0.0000 
     52 CA         -9.3345   48.8875   40.1885 C.3       3 GLC5        0.0000 
     53 CA         -8.7430   48.1140   41.8530 C.3       9 GLL5        0.0000 
     54 CA         -9.9260   49.6610   38.5240 C.3       6 GLP5        0.0000 
     55 N         -11.1620   47.8920   42.4680 N.am      2 SEC2        0.0000 
     56 N         -10.0100   48.4610   42.1120 N.am      8 SEL2        0.0000 
     57 N         -12.3140   47.3230   42.8240 N.am      5 SEP2        0.0000 
     58 N          -4.1890   52.0035   46.0805 N.am      2 SEC2        0.0000 
     59 N          -5.6990   51.9760   46.3820 N.am      8 SEL2        0.0000 
     60 N          -2.6790   52.0310   45.7790 N.am      5 SEP2        0.0000 
     61 N          -8.6345   54.3500   46.9730 N.am      2 SEC2        0.0000 
     62 N          -7.5970   53.5890   46.6630 N.am      8 SEL2        0.0000 
     63 N          -9.6720   55.1110   47.2830 N.am      5 SEP2        0.0000 
     64 N          -6.6920   54.3190   47.3335 N.am      2 SEC2        0.0000 
     65 N          -5.7870   55.0490   48.0040 N.am      5 SEP2        0.0000 
     66 CA         -7.4200   47.3710   49.6158 C.3       3 GLC5        0.0000 
     67 CA         -3.2881   48.1894   47.7090 C.3       3 GLC5        0.0000 
     68 CA         -1.3140   48.4560   48.3690 C.3       6 GLP5        0.0000 
     69 CA         -8.5824   43.1253   46.2779 C.3       3 GLC5        0.0000 
     70 CA         -8.8140   45.1520   45.3470 C.3       9 GLL5        0.0000 
     71 CA         -9.4032   47.8008   38.0613 C.3       3 GLC5        0.0000 
     72 CA         -8.4570   46.0760   38.1430 C.3       9 GLL5        0.0000 
     73 CA         -7.3443   44.6718   37.2398 C.3       3 GLC5        0.0000 
     74 CA         -5.8080   43.4030   36.8810 C.3       6 GLP5        0.0000 
     75 CA         -9.5028   44.1623   38.2152 C.3       3 GLC5        0.0000 
     76 CA        -10.1250   42.3840   38.8320 C.3       6 GLP5        0.0000 
     77 CA        -11.7312   47.2563   37.2553 C.3       3 GLC5        0.0000 
     78 CA        -10.7010   45.5780   37.2540 C.3       9 GLL5        0.0000 
     79 CA        -12.3210   49.0880   37.9090 C.3       6 GLP5        0.0000 
     80 CA        -10.6333   43.9043   37.7168 C.3       3 GLC5        0.0000 
     81 CA        -12.1623   47.3053   38.3498 C.3       3 GLC5        0.0000 
     82 CA        -11.2630   45.6330   38.6080 C.3       9 GLL5        0.0000 
     83 CA        -11.0642   43.9532   38.8113 C.3       3 GLC5        0.0000 
     84 CA         -9.8255   47.8380   39.0628 C.3       3 GLC5        0.0000 
     85 CA        -10.4250   45.9030   39.6960 C.3       9 GLL5        0.0000 
     86 CA         -9.9250   44.1995   39.2167 C.3       3 GLC5        0.0000 
     87 CA         -9.0250   46.1270   39.5070 C.3       9 GLL5        0.0000 
     88 CA         -5.6860   50.8100   43.6947 C.3       3 GLC5        0.0000 
     89 CA         -8.0760   50.3880   43.0660 C.3       9 GLL5        0.0000 
     90 CA         -7.7200   52.6960   43.1347 C.3       3 GLC5        0.0000 
     91 CA         -7.3040   50.8100   44.2150 C.3       9 GLL5        0.0000 
     92 CA         -7.7500   54.7930   42.6290 C.3       6 GLP5        0.0000 
@<TRIPOS>BOND
@<TRIPOS>SUBSTRUCTURE
     1 ALC1       33 GROUP        1 X    ALC  0     ROOT ALC X 1
     2 SEC2        1 GROUP        1 X    SEC  0     **** SEC X 2
     3 GLC5        9 GROUP        1 X    GLC  0     **** GLC X 6
     4 ALP1       35 GROUP        1 Y    ALP  0     ROOT ALP Y 8
     5 SEP2        3 GROUP        1 Y    SEP  0     **** SEP Y 9
     6 GLP5       11 GROUP        1 Y    GLP  0     **** GLP Y 13
     7 ALL1       34 GROUP        1 Z    ALL  0     ROOT ALL Z 15
     8 SEL2        2 GROUP        1 Z    SEL  0     **** SEL Z 16
     9 GLL5       10 GROUP        1 Z    GLL  0     **** GLL Z 20
@<TRIPOS>SET

