#    Name: 1np7_FAD_2_ligand
#    Modification time : Mon Mar 24 18:29:41 2014

@<TRIPOS>MOLECULE
1np7_FAD_2_ligand
   84    89     1     0     0
SMALL
NO_CHARGES


@<TRIPOS>ATOM
      1 PA         -8.3120   50.7110   48.5160 P.3       1 FAD501      0.0000 
      2 O1A        -7.8790   51.8150   49.4030 O.co2     1 FAD501      0.0000 
      3 O2A        -9.7000   50.5110   48.4460 O.co2     1 FAD501      0.0000 
      4 O5B        -7.7840   49.2580   48.7640 O.3       1 FAD501      0.0000 
      5 C5B        -6.4240   49.1550   49.3050 C.3       1 FAD501      0.0000 
      6 C4B        -5.5160   48.2090   48.5140 C.3       1 FAD501      0.0000 
      7 O4B        -6.1130   46.9300   48.4590 O.3       1 FAD501      0.0000 
      8 C3B        -5.3910   48.6260   47.0440 C.3       1 FAD501      0.0000 
      9 O3B        -4.4200   49.6280   46.9250 O.3       1 FAD501      0.0000 
     10 C2B        -5.0710   47.4280   46.3190 C.3       1 FAD501      0.0000 
     11 O2B        -3.6500   47.0920   46.2930 O.3       1 FAD501      0.0000 
     12 C1B        -5.8870   46.4000   47.1360 C.3       1 FAD501      0.0000 
     13 N9A        -7.2390   46.0920   46.5340 N.pl3     1 FAD501      0.0000 
     14 C8A        -8.4620   46.7020   46.7760 C.2       1 FAD501      0.0000 
     15 N7A        -9.4170   46.1570   46.0770 N.2       1 FAD501      0.0000 
     16 C5A        -8.8140   45.1520   45.3470 C.ar      1 FAD501      0.0000 
     17 C6A        -9.2870   44.2060   44.4160 C.ar      1 FAD501      0.0000 
     18 N6A       -10.5880   44.1960   44.1040 N.pl3     1 FAD501      0.0000 
     19 N1A        -8.4150   43.2790   43.8140 N.ar      1 FAD501      0.0000 
     20 C2A        -7.1060   43.3390   44.1710 C.ar      1 FAD501      0.0000 
     21 N3A        -6.5860   44.2110   45.0500 N.ar      1 FAD501      0.0000 
     22 C4A        -7.4790   45.0880   45.6020 C.ar      1 FAD501      0.0000 
     23 N1         -5.7730   46.8510   41.3760 N.2       1 FAD501      0.0000 
     24 C2         -4.3990   47.0550   41.2280 C.2       1 FAD501      0.0000 
     25 O2         -3.6800   47.2620   42.2070 O.2       1 FAD501      0.0000 
     26 N3         -3.9510   46.9940   39.8750 N.am      1 FAD501      0.0000 
     27 C4         -4.7490   46.7550   38.7510 C.2       1 FAD501      0.0000 
     28 O4         -4.1010   46.7530   37.7190 O.2       1 FAD501      0.0000 
     29 C4X        -6.2160   46.5440   39.0140 C.2       1 FAD501      0.0000 
     30 N5         -7.0650   46.2920   37.9020 N.2       1 FAD501      0.0000 
     31 C5X        -8.4570   46.0760   38.1430 C.ar      1 FAD501      0.0000 
     32 C6         -9.3040   45.8050   37.0540 C.ar      1 FAD501      0.0000 
     33 C7        -10.7010   45.5780   37.2540 C.ar      1 FAD501      0.0000 
     34 C7M       -11.5820   45.2710   35.9490 C.3       1 FAD501      0.0000 
     35 C8        -11.2630   45.6330   38.6080 C.ar      1 FAD501      0.0000 
     36 C8M       -12.7440   45.4120   38.9730 C.3       1 FAD501      0.0000 
     37 C9        -10.4250   45.9030   39.6960 C.ar      1 FAD501      0.0000 
     38 C9A        -9.0250   46.1270   39.5070 C.ar      1 FAD501      0.0000 
     39 N10        -8.1500   46.4020   40.6600 N.pl3     1 FAD501      0.0000 
     40 C10        -6.7540   46.5930   40.3590 C.2       1 FAD501      0.0000 
     41 C1'        -8.6100   46.6110   41.9630 C.3       1 FAD501      0.0000 
     42 C2'        -8.7430   48.1140   41.8530 C.3       1 FAD501      0.0000 
     43 O2'       -10.0100   48.4610   42.1120 O.3       1 FAD501      0.0000 
     44 C3'        -7.7630   49.0240   42.6150 C.3       1 FAD501      0.0000 
     45 O3'        -7.3020   48.2950   43.6560 O.3       1 FAD501      0.0000 
     46 C4'        -8.0760   50.3880   43.0660 C.3       1 FAD501      0.0000 
     47 O4'        -9.4440   50.5620   43.2820 O.3       1 FAD501      0.0000 
     48 C5'        -7.3040   50.8100   44.2150 C.3       1 FAD501      0.0000 
     49 O5'        -7.5810   52.1050   44.6630 O.3       1 FAD501      0.0000 
     50 P          -7.1810   52.2590   46.2800 P.3       1 FAD501      0.0000 
     51 O1P        -5.6990   51.9760   46.3820 O.co2     1 FAD501      0.0000 
     52 O2P        -7.5970   53.5890   46.6630 O.co2     1 FAD501      0.0000 
     53 O3P        -7.9080   51.0190   46.9820 O.3       1 FAD501      0.0000 
     54 H          -6.4514   48.8015   50.3546 H         1 FAD501      0.0000 
     55 H          -5.9403   50.1515   49.3268 H         1 FAD501      0.0000 
     56 H          -4.5523   48.1794   48.9444 H         1 FAD501      0.0000 
     57 H          -6.3778   48.9795   46.7520 H         1 FAD501      0.0000 
     58 H          -5.5126   47.4538   45.3473 H         1 FAD501      0.0000 
     59 H          -5.3144   45.4869   47.1991 H         1 FAD501      0.0000 
     60 H          -8.5496   47.4553   47.4102 H         1 FAD501      0.0000 
     61 H         -11.1637   44.8485   44.5968 H         1 FAD501      0.0000 
     62 H         -10.8680   43.5369   43.4060 H         1 FAD501      0.0000 
     63 H          -6.4390   42.6307   43.7107 H         1 FAD501      0.0000 
     64 H          -2.9084   47.1462   39.7164 H         1 FAD501      0.0000 
     65 H          -8.9256   45.7676   36.1027 H         1 FAD501      0.0000 
     66 H         -10.8075   45.9437   40.6479 H         1 FAD501      0.0000 
     67 H          -7.8921   46.3918   42.6992 H         1 FAD501      0.0000 
     68 H          -9.5628   46.2030   42.1397 H         1 FAD501      0.0000 
     69 H          -8.5446   48.3464   40.7395 H         1 FAD501      0.0000 
     70 H          -6.8581   49.1199   41.8885 H         1 FAD501      0.0000 
     71 H          -7.7763   51.0755   42.2077 H         1 FAD501      0.0000 
     72 H          -6.2071   50.7029   43.9696 H         1 FAD501      0.0000 
     73 H          -7.4599   50.0623   45.0466 H         1 FAD501      0.0000 
     74 H         -11.5493   46.0250   35.2930 H         1 FAD501      0.0000 
     75 H         -11.2644   44.4523   35.4706 H         1 FAD501      0.0000 
     76 H         -12.5443   45.1225   36.1770 H         1 FAD501      0.0000 
     77 H         -13.0625   44.5044   38.6995 H         1 FAD501      0.0000 
     78 H         -12.9000   45.4930   39.9574 H         1 FAD501      0.0000 
     79 H         -13.3402   46.0788   38.5259 H         1 FAD501      0.0000 
     80 H          -4.9323   50.4612   46.7169 H         1 FAD501      0.0000 
     81 H          -3.1771   47.9716   46.2416 H         1 FAD501      0.0000 
     82 H         -10.4445   48.5421   41.2150 H         1 FAD501      0.0000 
     83 H          -6.5775   47.7234   43.2708 H         1 FAD501      0.0000 
     84 H          -9.8894   49.9961   42.5882 H         1 FAD501      0.0000 
@<TRIPOS>BOND
     1    2    1 ar   
     2    3    1 ar   
     3    4    1 1    
     4   53    1 1    
     5    5    4 1    
     6    6    5 1    
     7   54    5 1    
     8   55    5 1    
     9    7    6 1    
    10    8    6 1    
    11   56    6 1    
    12   12    7 1    
    13    9    8 1    
    14   10    8 1    
    15   57    8 1    
    16   80    9 1    
    17   11   10 1    
    18   12   10 1    
    19   58   10 1    
    20   81   11 1    
    21   13   12 1    
    22   59   12 1    
    23   14   13 1    
    24   22   13 1    
    25   15   14 2    
    26   60   14 1    
    27   16   15 1    
    28   17   16 ar   
    29   22   16 ar   
    30   18   17 1    
    31   19   17 ar   
    32   61   18 1    
    33   62   18 1    
    34   20   19 ar   
    35   21   20 ar   
    36   63   20 1    
    37   22   21 ar   
    38   24   23 1    
    39   40   23 2    
    40   25   24 2    
    41   26   24 am   
    42   27   26 am   
    43   64   26 1    
    44   28   27 2    
    45   29   27 1    
    46   30   29 2    
    47   40   29 1    
    48   31   30 1    
    49   32   31 ar   
    50   38   31 ar   
    51   33   32 ar   
    52   65   32 1    
    53   34   33 1    
    54   35   33 ar   
    55   74   34 1    
    56   75   34 1    
    57   76   34 1    
    58   36   35 1    
    59   37   35 ar   
    60   77   36 1    
    61   78   36 1    
    62   79   36 1    
    63   38   37 ar   
    64   66   37 1    
    65   39   38 1    
    66   40   39 1    
    67   41   39 1    
    68   42   41 1    
    69   67   41 1    
    70   68   41 1    
    71   43   42 1    
    72   44   42 1    
    73   69   42 1    
    74   82   43 1    
    75   45   44 1    
    76   46   44 1    
    77   70   44 1    
    78   83   45 1    
    79   47   46 1    
    80   48   46 1    
    81   71   46 1    
    82   84   47 1    
    83   49   48 1    
    84   72   48 1    
    85   73   48 1    
    86   50   49 1    
    87   51   50 ar   
    88   52   50 ar   
    89   53   50 1    
@<TRIPOS>SUBSTRUCTURE
     1 FAD501      1 GROUP   
@<TRIPOS>SET

