#    Name: 3FCF_1_CAVITY_N1_ALL.mol2
#    Modification time : Mon Mar 10 15:57:28 2014

@<TRIPOS>MOLECULE
3FCF_1_CAVITY_N1_ALL.mol2
  116     0     5     0     0
SMALL
NO_CHARGES


@<TRIPOS>ATOM
      1 DU        -12.7266    5.1648   -1.4646 H         5 CUB7        0.0000 
      2 DU        -13.9583    5.9679   -1.7610 H         5 CUB7        0.0000 
      3 DU        -14.1065    2.6873   -2.4433 H         5 CUB7        0.0000 
      4 DU        -15.3382    3.4904   -2.7397 H         5 CUB7        0.0000 
      5 CA        -16.5699    4.2935   -3.0361 C.3       4 GLY6        0.0000 
      6 CA        -13.5646    0.6454   -2.6363 C.3       4 GLY6        0.0000 
      7 CA        -14.7964    1.4485   -2.9327 C.3       4 GLY6        0.0000 
      8 DU        -11.9392   -5.4801   -3.2152 H         5 CUB7        0.0000 
      9 OG        -11.3974   -7.5220   -3.4082 O.2       1 SER1        0.0000 
     10 N         -13.0853    8.1799    0.6044 N.2       2 ALA2        0.0000 
     11 N         -14.3170    8.9830    0.3080 N.2       2 ALA2        0.0000 
     12 O         -15.5488    9.7861    0.0116 O.2       2 ALA2        0.0000 
     13 O         -12.5435    6.1380    0.4114 O.2       2 ALA2        0.0000 
     14 N         -13.7752    6.9411    0.1150 N.2       2 ALA2        0.0000 
     15 N         -15.0070    7.7442   -0.1814 N.2       2 ALA2        0.0000 
     16 O         -16.2387    8.5474   -0.4778 O.2       2 ALA2        0.0000 
     17 CA         -8.3065    1.6869    1.1076 C.3       4 GLY6        0.0000 
     18 CA         -9.5382    2.4900    0.8112 C.3       4 GLY6        0.0000 
     19 O         -10.7699    3.2931    0.5148 O.2       2 ALA2        0.0000 
     20 O         -12.0017    4.0962    0.2184 O.2       2 ALA2        0.0000 
     21 DU        -13.2334    4.8993   -0.0780 H         5 CUB7        0.0000 
     22 CZ        -14.4651    5.7024   -0.3744 C.ar      3 PHE5        0.0000 
     23 CA        -15.6969    6.5055   -0.6708 C.3       4 GLY6        0.0000 
     24 CA        -16.9286    7.3086   -0.9672 C.3       4 GLY6        0.0000 
     25 N          -8.9964    0.4481    0.6182 N.2       2 ALA2        0.0000 
     26 DU        -10.2281    1.2512    0.3218 H         5 CUB7        0.0000 
     27 DU        -11.4598    2.0543    0.0254 H         5 CUB7        0.0000 
     28 DU        -12.6916    2.8574   -0.2710 H         5 CUB7        0.0000 
     29 DU        -13.9233    3.6605   -0.5673 H         5 CUB7        0.0000 
     30 DU        -15.1551    4.4636   -0.8637 H         5 CUB7        0.0000 
     31 CA        -16.3868    5.2667   -1.1601 C.3       4 GLY6        0.0000 
     32 N          -8.4546   -1.5937    0.4253 N.2       2 ALA2        0.0000 
     33 N          -9.6863   -0.7906    0.1289 N.2       2 ALA2        0.0000 
     34 DU        -10.9180    0.0125   -0.1675 H         5 CUB7        0.0000 
     35 DU        -13.3815    1.6187   -0.7603 H         5 CUB7        0.0000 
     36 DU        -14.6132    2.4218   -1.0567 H         5 CUB7        0.0000 
     37 OG        -15.8450    3.2249   -1.3531 O.2       1 SER1        0.0000 
     38 OG        -17.0767    4.0280   -1.6495 O.2       1 SER1        0.0000 
     39 N         -10.3762   -2.0294   -0.3605 N.2       2 ALA2        0.0000 
     40 DU        -11.6080   -1.2263   -0.6569 H         5 CUB7        0.0000 
     41 DU        -12.8397   -0.4232   -0.9533 H         5 CUB7        0.0000 
     42 DU        -14.0714    0.3799   -1.2497 H         5 CUB7        0.0000 
     43 N         -11.0661   -3.2682   -0.8499 N.2       2 ALA2        0.0000 
     44 N         -12.2979   -2.4651   -1.1463 N.2       2 ALA2        0.0000 
     45 O         -14.7613   -0.8588   -1.7391 O.2       2 ALA2        0.0000 
     46 CA         -8.0609   -6.9162   -0.4501 C.3       4 GLY6        0.0000 
     47 N          -9.2926   -6.1131   -0.7465 N.2       2 ALA2        0.0000 
     48 N         -10.5243   -5.3100   -1.0429 N.2       2 ALA2        0.0000 
     49 N         -11.7561   -4.5069   -1.3393 N.2       2 ALA2        0.0000 
     50 CA         -9.9825   -7.3519   -1.2358 C.3       4 GLY6        0.0000 
     51 N         -11.2142   -6.5488   -1.5322 N.2       2 ALA2        0.0000 
     52 CA        -12.4460   -5.7457   -1.8286 C.3       4 GLY6        0.0000 
     53 O         -11.9042   -7.7875   -2.0216 O.2       2 ALA2        0.0000 
     54 CA        -13.1359   -6.9844   -2.3180 C.3       4 GLY6        0.0000 
     55 O         -13.0503    5.8725    1.7980 O.2       2 ALA2        0.0000 
     56 CZ        -14.2820    6.6756    1.5016 C.ar      3 PHE5        0.0000 
     57 N         -15.5137    7.4787    1.2052 N.2       2 ALA2        0.0000 
     58 CA        -10.0450    2.2244    2.1978 C.3       4 GLY6        0.0000 
     59 N         -11.2767    3.0276    1.9014 N.2       2 ALA2        0.0000 
     60 O         -12.5085    3.8307    1.6050 O.2       2 ALA2        0.0000 
     61 CZ        -13.7402    4.6338    1.3086 C.ar      3 PHE5        0.0000 
     62 CZ        -16.2037    6.2400    0.7158 C.ar      3 PHE5        0.0000 
     63 CA         -9.5032    0.1826    2.0048 C.3       4 GLY6        0.0000 
     64 CA        -10.7349    0.9857    1.7084 C.3       4 GLY6        0.0000 
     65 DU        -11.9666    1.7888    1.4120 H         5 CUB7        0.0000 
     66 DU        -13.1984    2.5919    1.1156 H         5 CUB7        0.0000 
     67 CZ        -14.4301    3.3950    0.8193 C.ar      3 PHE5        0.0000 
     68 CZ        -15.6618    4.1981    0.5229 C.ar      3 PHE5        0.0000 
     69 CZ        -16.8936    5.0012    0.2265 C.ar      3 PHE5        0.0000 
     70 N         -10.1931   -1.0562    1.5155 N.2       2 ALA2        0.0000 
     71 CA        -11.4248   -0.2531    1.2191 C.3       4 GLY6        0.0000 
     72 DU        -12.6566    0.5500    0.9227 H         5 CUB7        0.0000 
     73 DU        -13.8883    1.3531    0.6263 H         5 CUB7        0.0000 
     74 OG        -15.1200    2.1562    0.3299 O.2       1 SER1        0.0000 
     75 CZ        -16.3518    2.9593    0.0335 C.ar      3 PHE5        0.0000 
     76 N         -12.1147   -1.4918    0.7297 N.2       2 ALA2        0.0000 
     77 N         -13.3465   -0.6887    0.4333 N.2       2 ALA2        0.0000 
     78 N         -14.5782    0.1144    0.1369 N.2       2 ALA2        0.0000 
     79 OG        -15.8100    0.9175   -0.1595 O.2       1 SER1        0.0000 
     80 N         -12.8047   -2.7306    0.2403 N.2       2 ALA2        0.0000 
     81 N         -12.2628   -4.7724    0.0473 N.2       2 ALA2        0.0000 
     82 CA        -11.7210   -6.8143   -0.1456 C.3       4 GLY6        0.0000 
     83 CA        -12.9528   -6.0112   -0.4420 C.3       4 GLY6        0.0000 
     84 O         -12.4110   -8.0531   -0.6350 O.2       2 ALA2        0.0000 
     85 CA        -13.6427   -7.2500   -0.9314 C.3       4 GLY6        0.0000 
     86 N         -12.4734    1.5233    2.7986 N.2       2 ALA2        0.0000 
     87 N         -13.7052    2.3264    2.5022 N.2       2 ALA2        0.0000 
     88 CZ        -14.9369    3.1295    2.2059 C.ar      3 PHE5        0.0000 
     89 O         -11.9316   -0.5186    2.6057 O.2       2 ALA2        0.0000 
     90 N         -13.1633    0.2845    2.3093 N.2       2 ALA2        0.0000 
     91 N         -14.3951    1.0876    2.0129 N.2       2 ALA2        0.0000 
     92 CZ        -15.6268    1.8907    1.7165 C.ar      3 PHE5        0.0000 
     93 CA        -12.6215   -1.7574    2.1163 C.3       4 GLY6        0.0000 
     94 N         -13.8533   -0.9542    1.8199 N.2       2 ALA2        0.0000 
     95 N         -15.0850   -0.1511    1.5235 N.2       2 ALA2        0.0000 
     96 OG        -16.3167    0.6520    1.2271 O.2       1 SER1        0.0000 
     97 N         -13.3115   -2.9961    1.6269 N.2       2 ALA2        0.0000 
     98 N         -12.7696   -5.0380    1.4339 N.2       2 ALA2        0.0000 
     99 CA        -13.4596   -6.2767    0.9446 C.3       4 GLY6        0.0000 
    100 N         -14.2119    2.0608    3.8889 N.2       2 ALA2        0.0000 
    101 N         -14.9019    0.8221    3.3995 N.2       2 ALA2        0.0000 
    102 CZ        -16.1336    1.6252    3.1031 C.ar      3 PHE5        0.0000 
    103 O         -13.1283   -2.0229    3.5029 O.2       2 ALA2        0.0000 
    104 N         -14.3601   -1.2198    3.2065 N.2       2 ALA2        0.0000 
    105 CZ        -15.5918   -0.4167    2.9101 C.ar      3 PHE5        0.0000 
    106 CZ        -16.8235    0.3864    2.6137 C.ar      3 PHE5        0.0000 
    107 O         -13.8182   -3.2616    3.0135 O.2       2 ALA2        0.0000 
    108 N         -15.0500   -2.4585    2.7171 N.2       2 ALA2        0.0000 
    109 CA        -13.2764   -5.3035    2.8205 C.3       4 GLY6        0.0000 
    110 N         -14.5082   -4.5004    2.5241 N.2       2 ALA2        0.0000 
    111 CZ        -15.9505    2.5984    4.9791 C.ar      3 PHE5        0.0000 
    112 N         -15.4087    0.5566    4.7861 N.2       2 ALA2        0.0000 
    113 O         -16.6404    1.3597    4.4897 O.2       2 ALA2        0.0000 
    114 N         -14.8668   -1.4853    4.5931 N.2       2 ALA2        0.0000 
    115 CZ        -16.0986   -0.6822    4.2967 C.ar      3 PHE5        0.0000 
    116 CZ        -15.5568   -2.7241    4.1037 C.ar      3 PHE5        0.0000 
@<TRIPOS>BOND
@<TRIPOS>SUBSTRUCTURE
     1 SER1        9 GROUP   
     2 ALA2       10 GROUP   
     3 PHE5       22 GROUP   
     4 GLY6        5 GROUP   
     5 CUB7        1 GROUP   
@<TRIPOS>SET

