#    Name: 3fcf_FCF_1_INTS_M
#    Modification time : Tue Mar 25 03:33:40 2014

@<TRIPOS>MOLECULE
3fcf_FCF_1_INTS_M
   41     0     9     0     0
SMALL
NO_CHARGES


@<TRIPOS>ATOM
      1 N         -11.4330   -8.7375   -0.4660 N.am      2 SEC2        0.0000 
      2 N         -11.8940   -7.5360   -1.4420 N.am      8 SEL2        0.0000 
      3 N         -10.9720   -9.9390    0.5100 N.am      5 SEP2        0.0000 
      4 N         -12.7425   -9.4090   -2.5130 N.am      2 SEC2        0.0000 
      5 N         -12.6310   -8.3610   -3.5070 N.am      8 SEL2        0.0000 
      6 N         -12.8540  -10.4570   -1.5190 N.am      5 SEP2        0.0000 
      7 N         -11.4000   -9.3585   -3.0570 N.am      2 SEC2        0.0000 
      8 N         -10.1690  -10.3560   -2.6070 N.am      5 SEP2        0.0000 
      9 CA        -14.9205   -2.2570   -4.2305 C.3       3 GLC5        0.0000 
     10 CA        -13.2930   -3.4220   -4.2040 C.3       9 GLL5        0.0000 
     11 CA        -16.5480   -1.0920   -4.2570 C.3       6 GLP5        0.0000 
     12 CA        -17.0290   -0.4575    2.7430 C.3       3 GLC5        0.0000 
     13 CA        -15.5660    0.8790    3.0270 C.3       9 GLL5        0.0000 
     14 CA        -18.4920   -1.7940    2.4590 C.3       6 GLP5        0.0000 
     15 CA        -17.8060    1.3155    4.9235 C.3       3 GLC5        0.0000 
     16 CA        -15.9080    1.4510    4.2490 C.3       9 GLL5        0.0000 
     17 CA        -19.7040    1.1800    5.5980 C.3       6 GLP5        0.0000 
     18 N         -17.3330    0.9495    6.5740 N.am      2 SEC2        0.0000 
     19 N         -15.9250    1.1920    6.5320 N.am      8 SEL2        0.0000 
     20 N         -18.7410    0.7070    6.6160 N.am      5 SEP2        0.0000 
     21 N         -15.0405    0.6935    7.6805 N.am      2 SEC2        0.0000 
     22 N         -14.1560    0.1950    8.8290 N.am      5 SEP2        0.0000 
     23 O         -14.7090   -1.0840    6.4655 O.2       1 ALC1        0.0000 
     24 O         -15.0700   -0.4870    5.3190 O.2       7 ALL1        0.0000 
     25 O         -14.3480   -1.6810    7.6120 O.2       4 ALP1        0.0000 
     26 N         -13.4570   -2.9905    4.7855 N.am      2 SEC2        0.0000 
     27 N         -14.2130   -2.1410    4.0700 N.am      8 SEL2        0.0000 
     28 N         -12.7010   -3.8400    5.5010 N.am      5 SEP2        0.0000 
     29 CA        -14.7647   -5.4512   -5.8875 C.3       3 GLC5        0.0000 
     30 CA        -13.0780   -5.7900   -4.6080 C.3       9 GLL5        0.0000 
     31 CA        -16.3080   -5.7540   -6.9330 C.3       6 GLP5        0.0000 
     32 CA        -14.6985   -5.4980   -3.5390 C.3       3 GLC5        0.0000 
     33 CA        -13.3650   -4.5070   -5.0760 C.3       9 GLL5        0.0000 
     34 CA        -16.2650   -5.7970   -2.5700 C.3       6 GLP5        0.0000 
     35 CA        -14.5703   -4.2666   -2.4955 C.3       3 GLC5        0.0000 
     36 CA        -12.6520   -4.9010   -2.4020 C.3       9 GLL5        0.0000 
     37 CA        -16.0970   -4.6930   -1.5720 C.3       6 GLP5        0.0000 
     38 CA        -15.3852    0.0267   -2.9925 C.3       3 GLC5        0.0000 
     39 CA        -13.4680    1.0450   -1.7900 C.3       9 GLL5        0.0000 
     40 CA        -16.4665    2.8285    3.1950 C.3       3 GLC5        0.0000 
     41 CA        -17.1960    4.4920    2.7520 C.3       6 GLP5        0.0000 
@<TRIPOS>BOND
@<TRIPOS>SUBSTRUCTURE
     1 ALC1       23 GROUP        1 X    ALC  0     ROOT ALC X 1
     2 SEC2        1 GROUP        1 X    SEC  0     **** SEC X 2
     3 GLC5        9 GROUP        1 X    GLC  0     **** GLC X 6
     4 ALP1       25 GROUP        1 Y    ALP  0     ROOT ALP Y 8
     5 SEP2        3 GROUP        1 Y    SEP  0     **** SEP Y 9
     6 GLP5       11 GROUP        1 Y    GLP  0     **** GLP Y 13
     7 ALL1       24 GROUP        1 Z    ALL  0     ROOT ALL Z 15
     8 SEL2        2 GROUP        1 Z    SEL  0     **** SEL Z 16
     9 GLL5       10 GROUP        1 Z    GLL  0     **** GLL Z 20
@<TRIPOS>SET

