#    Name: 3fcf_FCF_1_ligand
#    Modification time : Tue Mar 25 03:33:40 2014

@<TRIPOS>MOLECULE
3fcf_FCF_1_ligand
   38    39     1     0     0
SMALL
NO_CHARGES


@<TRIPOS>ATOM
      1 O40       -11.8940   -7.5360   -1.4420 O.co2     1 FCF1        0.0000 
      2 C38       -12.4150   -7.3750   -2.7660 C.2       1 FCF1        0.0000 
      3 O39       -12.6310   -8.3610   -3.5070 O.co2     1 FCF1        0.0000 
      4 C5        -12.7200   -5.9920   -3.2720 C.ar      1 FCF1        0.0000 
      5 C6        -13.0780   -5.7900   -4.6080 C.ar      1 FCF1        0.0000 
      6 C1        -13.3650   -4.5070   -5.0760 C.ar      1 FCF1        0.0000 
      7 C4        -12.6520   -4.9010   -2.4020 C.ar      1 FCF1        0.0000 
      8 C3        -12.9360   -3.6160   -2.8660 C.ar      1 FCF1        0.0000 
      9 C2        -13.2930   -3.4220   -4.2040 C.ar      1 FCF1        0.0000 
     10 C17       -12.8570   -2.4720   -1.9260 C.2       1 FCF1        0.0000 
     11 N18       -13.2000   -1.3080   -2.2730 N.2       1 FCF1        0.0000 
     12 O21       -13.1210   -0.2820   -1.3880 O.3       1 FCF1        0.0000 
     13 C22       -13.4680    1.0450   -1.7900 C.3       1 FCF1        0.0000 
     14 C23       -14.9770    1.2460   -1.6660 C.3       1 FCF1        0.0000 
     15 O27       -15.3010    1.9220   -0.4470 O.3       1 FCF1        0.0000 
     16 N31       -15.1160    1.3030    0.7470 N.2       1 FCF1        0.0000 
     17 C30       -15.8180    1.5900    1.7550 C.2       1 FCF1        0.0000 
     18 C16       -15.5660    0.8790    3.0270 C.2       1 FCF1        0.0000 
     19 N11       -14.9970   -0.3370    2.9960 N.am      1 FCF1        0.0000 
     20 C15       -15.9080    1.4510    4.2490 C.2       1 FCF1        0.0000 
     21 C14       -15.6410    0.7250    5.4090 C.2       1 FCF1        0.0000 
     22 O33       -15.9250    1.1920    6.5320 O.2       1 FCF1        0.0000 
     23 N13       -15.0700   -0.4870    5.3190 N.am      1 FCF1        0.0000 
     24 C12       -14.7480   -1.0130    4.1270 C.2       1 FCF1        0.0000 
     25 O34       -14.2130   -2.1410    4.0700 O.2       1 FCF1        0.0000 
     26 H         -13.1300   -6.5929   -5.2496 H         1 FCF1        0.0000 
     27 H         -13.6274   -4.3640   -6.0562 H         1 FCF1        0.0000 
     28 H         -12.3923   -5.0458   -1.4186 H         1 FCF1        0.0000 
     29 H         -13.5028   -2.4746   -4.5439 H         1 FCF1        0.0000 
     30 H         -12.4965   -2.7340   -0.9758 H         1 FCF1        0.0000 
     31 H         -13.1889    1.2395   -2.8323 H         1 FCF1        0.0000 
     32 H         -12.9772    1.8000   -1.1646 H         1 FCF1        0.0000 
     33 H         -15.4520    0.2550   -1.7176 H         1 FCF1        0.0000 
     34 H         -15.3122    1.8153   -2.5457 H         1 FCF1        0.0000 
     35 H         -16.5756    2.2899    1.7942 H         1 FCF1        0.0000 
     36 H         -14.7430   -0.7651    2.0697 H         1 FCF1        0.0000 
     37 H         -16.3381    2.3674    4.2953 H         1 FCF1        0.0000 
     38 H         -14.8723   -1.0320    6.1959 H         1 FCF1        0.0000 
@<TRIPOS>BOND
     1    2    1 ar   
     2    3    2 ar   
     3    4    2 1    
     4    5    4 ar   
     5    7    4 ar   
     6    6    5 ar   
     7   26    5 1    
     8    9    6 ar   
     9   27    6 1    
    10    8    7 ar   
    11   28    7 1    
    12    9    8 ar   
    13   10    8 1    
    14   29    9 1    
    15   11   10 2    
    16   30   10 1    
    17   12   11 1    
    18   13   12 1    
    19   14   13 1    
    20   31   13 1    
    21   32   13 1    
    22   15   14 1    
    23   33   14 1    
    24   34   14 1    
    25   16   15 1    
    26   17   16 2    
    27   18   17 1    
    28   35   17 1    
    29   19   18 1    
    30   20   18 2    
    31   24   19 am   
    32   36   19 1    
    33   21   20 1    
    34   37   20 1    
    35   22   21 2    
    36   23   21 am   
    37   24   23 am   
    38   38   23 1    
    39   25   24 2    
@<TRIPOS>SUBSTRUCTURE
     1 FCF1        1 GROUP   
@<TRIPOS>SET

