#    Name: 4fmd_GDP_1_INTS_M
#    Modification time : Mon Mar 24 20:21:37 2014

@<TRIPOS>MOLECULE
4fmd_GDP_1_INTS_M
   75     0    15     0     0
SMALL
NO_CHARGES


@<TRIPOS>ATOM
      1 NZ        -15.6865  -41.3810   48.6740 N.4       3 LYC4        0.0000 
      2 NZ        -15.1710  -41.6010   49.9500 N.4      13 LYL4        0.0000 
      3 NZ        -16.2020  -41.1610   47.3980 N.4       8 LYP4        0.0000 
      4 N         -13.4765  -41.6475   50.3765 N.am      2 SEC2        0.0000 
      5 N         -15.1710  -41.6010   49.9500 N.am     12 SEL2        0.0000 
      6 N         -11.7820  -41.6940   50.8030 N.am      7 SEP2        0.0000 
      7 N         -14.4575  -40.6555   50.6450 N.am      2 SEC2        0.0000 
      8 N         -13.7440  -39.7100   51.3400 N.am      7 SEP2        0.0000 
      9 N         -15.6865  -41.3810   48.6740 N.am      2 SEC2        0.0000 
     10 N         -16.2020  -41.1610   47.3980 N.am      7 SEP2        0.0000 
     11 NZ        -16.1775  -45.1500   50.8285 N.4       3 LYC4        0.0000 
     12 NZ        -16.1360  -43.9600   50.0930 N.4      13 LYL4        0.0000 
     13 NZ        -16.4790  -47.6420   51.4730 N.4       8 LYP4        0.0000 
     14 NZ        -16.1690  -42.5605   48.7455 N.4       3 LYC4        0.0000 
     15 N         -16.1775  -45.1500   50.8285 N.am      2 SEC2        0.0000 
     16 N         -16.1360  -43.9600   50.0930 N.am     12 SEL2        0.0000 
     17 N         -16.2190  -46.3400   51.5640 N.am      7 SEP2        0.0000 
     18 N         -15.0435  -44.4370   49.2955 N.am      2 SEC2        0.0000 
     19 N         -13.9510  -44.9140   48.4980 N.am      7 SEP2        0.0000 
     20 Zn        -17.6520  -42.2585   51.9150 Zn        4 ZIC7        0.0000 
     21 Zn        -16.6840  -42.2410   51.9610 Zn       14 ZIL7        0.0000 
     22 Zn        -18.6200  -42.2760   51.8690 Zn        9 ZIP7        0.0000 
     23 N         -16.3340  -40.8550   52.5375 N.am      2 SEC2        0.0000 
     24 N         -16.6840  -42.2410   51.9610 N.am     12 SEL2        0.0000 
     25 N         -15.9840  -39.4690   53.1140 N.am      7 SEP2        0.0000 
     26 N         -13.0490  -42.5285   51.2385 N.am      2 SEC2        0.0000 
     27 N         -14.3160  -43.3630   51.6740 N.am     12 SEL2        0.0000 
     28 NZ        -15.9170  -45.4350   52.6615 N.4       3 LYC4        0.0000 
     29 NZ        -15.6150  -44.5300   53.7590 N.4      13 LYL4        0.0000 
     30 N         -15.9170  -45.4350   52.6615 N.am      2 SEC2        0.0000 
     31 N         -15.6150  -44.5300   53.7590 N.am     12 SEL2        0.0000 
     32 N         -14.6670  -41.0110   54.7545 N.am      2 SEC2        0.0000 
     33 N         -14.5950  -42.2600   53.9560 N.am     12 SEL2        0.0000 
     34 N         -14.7390  -39.7620   55.5530 N.am      7 SEP2        0.0000 
     35 CA        -14.5270  -46.7655   53.6875 C.3       5 GLC5        0.0000 
     36 CA        -13.0280  -45.5270   53.4970 C.3      15 GLL5        0.0000 
     37 CA        -16.0260  -48.0040   53.8780 C.3      10 GLP5        0.0000 
     38 CA        -12.9845  -45.4520   51.4640 C.3       5 GLC5        0.0000 
     39 CA        -12.9410  -45.3770   49.4310 C.3      10 GLP5        0.0000 
     40 CA        -10.0870  -44.5030   58.0305 C.3       5 GLC5        0.0000 
     41 CA        -10.7070  -45.6330   56.3300 C.3      15 GLL5        0.0000 
     42 CA         -9.4670  -43.3730   59.7310 C.3      10 GLP5        0.0000 
     43 CA        -11.1040  -46.5085   58.2340 C.3       5 GLC5        0.0000 
     44 CA        -11.5010  -47.3840   60.1380 C.3      10 GLP5        0.0000 
     45 O          -9.6335  -45.5570   57.8990 O.2       1 ALC1        0.0000 
     46 O         -10.1870  -46.7890   56.9780 O.2      11 ALL1        0.0000 
     47 O          -9.0800  -44.3250   58.8200 O.2       6 ALP1        0.0000 
     48 CA         -8.9505  -44.8105   53.5465 C.3       5 GLC5        0.0000 
     49 CA         -9.8400  -45.3390   55.1230 C.3      15 GLL5        0.0000 
     50 CA         -8.0610  -44.2820   51.9700 C.3      10 GLP5        0.0000 
     51 N          -8.9490  -40.7195   54.1610 N.am      2 SEC2        0.0000 
     52 N          -9.2860  -41.7450   55.1710 N.am     12 SEL2        0.0000 
     53 N          -8.6120  -39.6940   53.1510 N.am      7 SEP2        0.0000 
     54 CA         -8.8925  -40.2235   56.3640 C.3       5 GLC5        0.0000 
     55 CA         -8.1170  -42.1830   55.6720 C.3      15 GLL5        0.0000 
     56 CA         -9.6680  -38.2640   57.0560 C.3      10 GLP5        0.0000 
     57 N          -7.7145  -39.9120   54.6290 N.am      2 SEC2        0.0000 
     58 N          -6.8170  -40.1300   56.1070 N.am     12 SEL2        0.0000 
     59 N          -7.0890  -39.7085   57.5845 N.am      2 SEC2        0.0000 
     60 N          -7.3610  -39.2870   59.0620 N.am      7 SEP2        0.0000 
     61 O          -4.5755  -41.6300   56.6140 O.2       1 ALC1        0.0000 
     62 O          -5.8600  -42.2440   56.5850 O.2      11 ALL1        0.0000 
     63 O          -3.2910  -41.0160   56.6430 O.2       6 ALP1        0.0000 
     64 O          -3.6835  -43.4915   57.4400 O.2       1 ALC1        0.0000 
     65 O          -4.8740  -44.2920   57.0640 O.2      11 ALL1        0.0000 
     66 O          -2.4930  -42.6910   57.8160 O.2       6 ALP1        0.0000 
     67 CA        -11.6078  -48.0730   55.0280 C.3       5 GLC5        0.0000 
     68 CA        -11.9000  -46.1400   54.3140 C.3      15 GLL5        0.0000 
     69 CA        -11.2180  -50.1210   54.9970 C.3      10 GLP5        0.0000 
     70 CA        -12.1310  -43.9882   56.5670 C.3       5 GLC5        0.0000 
     71 CA        -12.0950  -45.9100   55.8040 C.3      15 GLL5        0.0000 
     72 CA        -12.8610  -42.2050   57.0670 C.3      10 GLP5        0.0000 
     73 CA         -7.2393  -42.7473   54.1430 C.3       5 GLC5        0.0000 
     74 CA         -8.1500  -43.5620   55.7260 C.3      15 GLL5        0.0000 
     75 CA         -6.3450  -42.6220   52.5870 C.3      10 GLP5        0.0000 
@<TRIPOS>BOND
@<TRIPOS>SUBSTRUCTURE
     1 ALC1       45 GROUP        1 X    ALC  0     ROOT ALC X 1
     2 SEC2        4 GROUP        1 X    SEC  0     **** SEC X 2
     3 LYC4        1 GROUP        1 X    LYC  0     **** LYC X 4
     4 ZIC7       20 GROUP        1 X    ZIC  0     **** ZIC X 5
     5 GLC5       35 GROUP        1 X    GLC  0     **** GLC X 6
     6 ALP1       47 GROUP        1 Y    ALP  0     ROOT ALP Y 8
     7 SEP2        6 GROUP        1 Y    SEP  0     **** SEP Y 9
     8 LYP4        3 GROUP        1 Y    LYP  0     **** LYP Y 11
     9 ZIP7       22 GROUP        1 Y    ZIP  0     **** ZIP Y 12
    10 GLP5       37 GROUP        1 Y    GLP  0     **** GLP Y 13
    11 ALL1       46 GROUP        1 Z    ALL  0     ROOT ALL Z 15
    12 SEL2        5 GROUP        1 Z    SEL  0     **** SEL Z 16
    13 LYL4        2 GROUP        1 Z    LYL  0     **** LYL Z 18
    14 ZIL7       21 GROUP        1 Z    ZIL  0     **** ZIL Z 19
    15 GLL5       36 GROUP        1 Z    GLL  0     **** GLL Z 20
@<TRIPOS>SET

