#    Name: 4fmd_GDP_1_ligand
#    Modification time : Mon Mar 24 20:21:37 2014

@<TRIPOS>MOLECULE
4fmd_GDP_1_ligand
   40    42     1     0     0
SMALL
NO_CHARGES


@<TRIPOS>ATOM
      1 PB        -15.6180  -42.8050   50.9000 P.3       1 GDP202      0.0000 
      2 O1B       -15.1710  -41.6010   49.9500 O.co2     1 GDP202      0.0000 
      3 O2B       -16.1360  -43.9600   50.0930 O.co2     1 GDP202      0.0000 
      4 O3B       -16.6840  -42.2410   51.9610 O.co2     1 GDP202      0.0000 
      5 O3A       -14.3160  -43.3630   51.6740 O.3       1 GDP202      0.0000 
      6 PA        -14.4420  -43.5510   53.2810 P.3       1 GDP202      0.0000 
      7 O1A       -15.6150  -44.5300   53.7590 O.co2     1 GDP202      0.0000 
      8 O2A       -14.5950  -42.2600   53.9560 O.co2     1 GDP202      0.0000 
      9 O5'       -13.0060  -44.1170   53.6750 O.3       1 GDP202      0.0000 
     10 C5'       -13.0280  -45.5270   53.4970 C.3       1 GDP202      0.0000 
     11 C4'       -11.9000  -46.1400   54.3140 C.3       1 GDP202      0.0000 
     12 O4'       -10.6570  -45.5230   53.9660 O.3       1 GDP202      0.0000 
     13 C3'       -12.0950  -45.9100   55.8040 C.3       1 GDP202      0.0000 
     14 O3'       -12.6530  -47.0600   56.4430 O.3       1 GDP202      0.0000 
     15 C2'       -10.7070  -45.6330   56.3300 C.3       1 GDP202      0.0000 
     16 O2'       -10.1870  -46.7890   56.9780 O.3       1 GDP202      0.0000 
     17 C1'        -9.8400  -45.3390   55.1230 C.3       1 GDP202      0.0000 
     18 N9         -9.3440  -43.9430   55.2520 N.pl3     1 GDP202      0.0000 
     19 C8        -10.0320  -42.8380   54.9260 C.2       1 GDP202      0.0000 
     20 N7         -9.2860  -41.7450   55.1710 N.2       1 GDP202      0.0000 
     21 C5         -8.1170  -42.1830   55.6720 C.2       1 GDP202      0.0000 
     22 C6         -6.8900  -41.4920   56.1370 C.2       1 GDP202      0.0000 
     23 O6         -6.8170  -40.1300   56.1070 O.2       1 GDP202      0.0000 
     24 N1         -5.8600  -42.2440   56.5850 N.am      1 GDP202      0.0000 
     25 C2         -5.9400  -43.5910   56.6080 C.2       1 GDP202      0.0000 
     26 N2         -4.8740  -44.2920   57.0640 N.pl3     1 GDP202      0.0000 
     27 N3         -7.0600  -44.2340   56.1910 N.2       1 GDP202      0.0000 
     28 C4         -8.1500  -43.5620   55.7260 C.2       1 GDP202      0.0000 
     29 H         -12.8775  -45.8096   52.4515 H         1 GDP202      0.0000 
     30 H         -13.9684  -45.9677   53.8390 H         1 GDP202      0.0000 
     31 H         -11.8652  -47.1967   54.1345 H         1 GDP202      0.0000 
     32 H         -12.6849  -45.0317   55.9329 H         1 GDP202      0.0000 
     33 H         -10.7268  -44.7815   56.9535 H         1 GDP202      0.0000 
     34 H          -9.0159  -46.0230   55.1404 H         1 GDP202      0.0000 
     35 H         -10.9398  -42.8263   54.5643 H         1 GDP202      0.0000 
     36 H          -4.9852  -41.7723   56.9198 H         1 GDP202      0.0000 
     37 H          -4.0965  -43.7513   57.3852 H         1 GDP202      0.0000 
     38 H          -4.9591  -45.2881   57.0390 H         1 GDP202      0.0000 
     39 H         -11.8929  -47.4701   56.9472 H         1 GDP202      0.0000 
     40 H          -9.7082  -46.4405   57.7838 H         1 GDP202      0.0000 
@<TRIPOS>BOND
     1    2    1 ar   
     2    3    1 ar   
     3    4    1 ar   
     4    5    1 1    
     5    6    5 1    
     6    7    6 ar   
     7    8    6 ar   
     8    9    6 1    
     9   10    9 1    
    10   11   10 1    
    11   29   10 1    
    12   30   10 1    
    13   12   11 1    
    14   13   11 1    
    15   31   11 1    
    16   17   12 1    
    17   14   13 1    
    18   15   13 1    
    19   32   13 1    
    20   39   14 1    
    21   16   15 1    
    22   17   15 1    
    23   33   15 1    
    24   40   16 1    
    25   18   17 1    
    26   34   17 1    
    27   19   18 1    
    28   28   18 1    
    29   20   19 2    
    30   35   19 1    
    31   21   20 1    
    32   22   21 1    
    33   28   21 2    
    34   23   22 2    
    35   24   22 am   
    36   25   24 1    
    37   36   24 1    
    38   26   25 1    
    39   27   25 2    
    40   37   26 1    
    41   38   26 1    
    42   28   27 1    
@<TRIPOS>SUBSTRUCTURE
     1 GDP202      1 GROUP   
@<TRIPOS>SET

