#    Name: 3et3_ET1_1_INTS_M
#    Modification time : Tue Mar 25 02:26:25 2014

@<TRIPOS>MOLECULE
3et3_ET1_1_INTS_M
   65     0     6     0     0
SMALL
NO_CHARGES


@<TRIPOS>ATOM
      1 CA         34.2825   21.8005   72.1970 C.3       2 GLC5        0.0000 
      2 CA         34.0170   21.7020   74.1640 C.3       6 GLL5        0.0000 
      3 CA         34.5480   21.8990   70.2300 C.3       4 GLP5        0.0000 
      4 CA         35.8105   22.0175   73.7580 C.3       2 GLC5        0.0000 
      5 CA         37.6040   22.3330   73.3520 C.3       4 GLP5        0.0000 
      6 CA         26.3510   18.2550   70.7315 C.3       2 GLC5        0.0000 
      7 CA         26.7210   17.9050   72.4390 C.3       6 GLL5        0.0000 
      8 CA         25.9810   18.6050   69.0240 C.3       4 GLP5        0.0000 
      9 CA         28.4715   17.6405   71.4160 C.3       2 GLC5        0.0000 
     10 CA         30.2220   17.3760   70.3930 C.3       4 GLP5        0.0000 
     11 CA         25.1700   16.9495   71.7745 C.3       2 GLC5        0.0000 
     12 CA         23.6190   15.9940   71.1100 C.3       4 GLP5        0.0000 
     13 CA         26.3500   15.9440   73.2855 C.3       2 GLC5        0.0000 
     14 CA         25.9790   13.9830   74.1320 C.3       4 GLP5        0.0000 
     15 CA         32.5035   18.8505   74.3885 C.3       2 GLC5        0.0000 
     16 CA         32.7650   20.7970   74.2560 C.3       6 GLL5        0.0000 
     17 CA         32.2420   16.9040   74.5210 C.3       4 GLP5        0.0000 
     18 CA         26.9900   24.8425   73.6205 C.3       2 GLC5        0.0000 
     19 CA         29.1050   25.3430   73.4160 C.3       6 GLL5        0.0000 
     20 CA         24.8750   24.3420   73.8250 C.3       4 GLP5        0.0000 
     21 N          33.2170   22.0410   77.4260 N.am      1 SEC2        0.0000 
     22 N          34.2650   22.1490   76.5340 N.am      5 SEL2        0.0000 
     23 N          32.1690   21.9330   78.3180 N.am      3 SEP2        0.0000 
     24 N          34.7365   22.8425   77.6240 N.am      1 SEC2        0.0000 
     25 N          35.2080   23.5360   78.7140 N.am      3 SEP2        0.0000 
     26 N          34.1030   24.6045   73.9215 N.am      1 SEC2        0.0000 
     27 N          34.6210   23.8880   75.2180 N.am      5 SEL2        0.0000 
     28 N          33.5850   25.3210   72.6250 N.am      3 SEP2        0.0000 
     29 N          35.1720   24.8650   76.2240 N.am      1 SEC2        0.0000 
     30 N          35.7230   25.8420   77.2300 N.am      3 SEP2        0.0000 
     31 CA         29.4850   27.1045   68.3745 C.3       2 GLC5        0.0000 
     32 CA         27.5150   26.4120   68.7500 C.3       6 GLL5        0.0000 
     33 CA         31.4550   27.7970   67.9990 C.3       4 GLP5        0.0000 
     34 CA         26.1890   26.0715   67.4320 C.3       2 GLC5        0.0000 
     35 CA         24.8630   25.7310   66.1140 C.3       4 GLP5        0.0000 
     36 CA         30.7370   27.8798   73.4445 C.3       2 GLC5        0.0000 
     37 CA         29.9880   26.6470   71.4950 C.3       6 GLL5        0.0000 
     38 CA         31.4230   29.3780   74.7460 C.3       4 GLP5        0.0000 
     39 CA         28.1240   23.6070   71.1015 C.3       2 GLC5        0.0000 
     40 CA         27.9800   25.1270   72.5870 C.3       6 GLL5        0.0000 
     41 CA         28.3520   21.8320   70.2610 C.3       4 GLP5        0.0000 
     42 CA         27.2075   27.4433   71.6478 C.3       2 GLC5        0.0000 
     43 CA         27.8120   25.6370   71.2970 C.3       6 GLL5        0.0000 
     44 CA         26.0940   28.8610   72.2820 C.3       4 GLP5        0.0000 
     45 CA         26.4810   24.3880   72.1255 C.3       2 GLC5        0.0000 
     46 CA         25.0660   23.3940   72.3090 C.3       4 GLP5        0.0000 
     47 CA         27.3957   26.7155   73.8672 C.3       2 GLC5        0.0000 
     48 CA         26.2490   28.1960   74.7330 C.3       4 GLP5        0.0000 
     49 CA         30.7297   22.0677   72.5475 C.3       2 GLC5        0.0000 
     50 CA         31.2570   22.8490   74.6580 C.3       6 GLL5        0.0000 
     51 CA         30.1030   21.9470   70.6010 C.3       4 GLP5        0.0000 
     52 CA         27.5862   20.5640   75.4680 C.3       2 GLC5        0.0000 
     53 CA         29.1960   21.9830   74.2540 C.3       6 GLL5        0.0000 
     54 CA         26.6560   19.2960   76.7840 C.3       4 GLP5        0.0000 
     55 CA         29.6220   18.4408   71.9845 C.3       2 GLC5        0.0000 
     56 CA         28.3430   19.3670   73.4750 C.3       6 GLL5        0.0000 
     57 CA         26.3462   22.2183   73.0855 C.3       2 GLC5        0.0000 
     58 CA         27.4160   20.4040   73.6740 C.3       6 GLL5        0.0000 
     59 CA         28.1051   21.3076   72.0366 C.3       2 GLC5        0.0000 
     60 CA         27.8370   21.6810   74.0500 C.3       6 GLL5        0.0000 
     61 CA         29.8936   21.2492   72.2588 C.3       2 GLC5        0.0000 
     62 CA         29.7010   19.6440   73.6770 C.3       6 GLL5        0.0000 
     63 CA         27.7231   19.5304   75.2049 C.3       2 GLC5        0.0000 
     64 CA         30.4320   27.1638   69.5557 C.3       2 GLC5        0.0000 
     65 CA         28.8300   26.4140   70.7300 C.3       6 GLL5        0.0000 
@<TRIPOS>BOND
@<TRIPOS>SUBSTRUCTURE
     1 SEC2       21 GROUP        1 X    SEC  0     ROOT SEC X 2
     2 GLC5        1 GROUP        1 X    GLC  0     **** GLC X 6
     3 SEP2       23 GROUP        1 Y    SEP  0     ROOT SEP Y 9
     4 GLP5        3 GROUP        1 Y    GLP  0     **** GLP Y 13
     5 SEL2       22 GROUP        1 Z    SEL  0     ROOT SEL Z 16
     6 GLL5        2 GROUP        1 Z    GLL  0     **** GLL Z 20
@<TRIPOS>SET

