#    Name: 3et3_ET1_1_ligand
#    Modification time : Tue Mar 25 02:26:25 2014

@<TRIPOS>MOLECULE
3et3_ET1_1_ligand
   45    47     1     0     0
SMALL
NO_CHARGES


@<TRIPOS>ATOM
      1 C13        34.0170   21.7020   74.1640 C.3       1 ET11        0.0000 
      2 C17        30.1140   26.1160   72.7910 C.ar      1 ET11        0.0000 
      3 C20        27.8120   25.6370   71.2970 C.ar      1 ET11        0.0000 
      4 C21        27.9800   25.1270   72.5870 C.ar      1 ET11        0.0000 
      5 N01        29.8670   23.2160   74.6630 N.pl3     1 ET11        0.0000 
      6 C02        31.2570   22.8490   74.6580 C.2       1 ET11        0.0000 
      7 C03        31.4560   21.5280   74.3300 C.2       1 ET11        0.0000 
      8 C04        30.1390   20.9350   74.0580 C.ar      1 ET11        0.0000 
      9 C05        29.1960   21.9830   74.2540 C.ar      1 ET11        0.0000 
     10 C06        28.3430   19.3670   73.4750 C.ar      1 ET11        0.0000 
     11 C07        27.4160   20.4040   73.6740 C.ar      1 ET11        0.0000 
     12 C08        27.8370   21.6810   74.0500 C.ar      1 ET11        0.0000 
     13 C09        29.7010   19.6440   73.6770 C.ar      1 ET11        0.0000 
     14 O10        27.9630   18.0830   73.1060 O.3       1 ET11        0.0000 
     15 C11        26.7210   17.9050   72.4390 C.3       1 ET11        0.0000 
     16 C12        32.7650   20.7970   74.2560 C.3       1 ET11        0.0000 
     17 C14        34.3030   22.5720   75.3920 C.2       1 ET11        0.0000 
     18 S15        29.2930   24.6840   74.9350 S.o2      1 ET11        0.0000 
     19 C16        29.1050   25.3430   73.4160 C.ar      1 ET11        0.0000 
     20 C18        29.9880   26.6470   71.4950 C.ar      1 ET11        0.0000 
     21 C19        28.8300   26.4140   70.7300 C.ar      1 ET11        0.0000 
     22 O22        30.2630   25.4090   75.6850 O.2       1 ET11        0.0000 
     23 O23        28.0340   24.5410   75.5680 O.2       1 ET11        0.0000 
     24 O24        34.2650   22.1490   76.5340 O.co2     1 ET11        0.0000 
     25 O25        34.6210   23.8880   75.2180 O.co2     1 ET11        0.0000 
     26 O26        28.6440   26.9070   69.4590 O.3       1 ET11        0.0000 
     27 C27        27.5150   26.4120   68.7500 C.3       1 ET11        0.0000 
     28 H          33.9083   22.3573   73.2770 H         1 ET11        0.0000 
     29 H          34.8975   21.0588   73.9665 H         1 ET11        0.0000 
     30 H          30.9946   26.2985   73.3231 H         1 ET11        0.0000 
     31 H          26.9577   25.4463   70.7727 H         1 ET11        0.0000 
     32 H          27.1996   24.5248   72.9848 H         1 ET11        0.0000 
     33 H          31.9575   23.4900   74.8686 H         1 ET11        0.0000 
     34 H          26.4108   20.2152   73.5394 H         1 ET11        0.0000 
     35 H          27.1325   22.4304   74.1837 H         1 ET11        0.0000 
     36 H          30.4005   18.8971   73.5472 H         1 ET11        0.0000 
     37 H          32.8803   20.1457   75.1451 H         1 ET11        0.0000 
     38 H          32.7672   20.1223   73.3769 H         1 ET11        0.0000 
     39 H          30.7513   27.2127   71.1009 H         1 ET11        0.0000 
     40 H          26.6870   18.4098   71.5764 H         1 ET11        0.0000 
     41 H          26.5499   16.9437   72.2230 H         1 ET11        0.0000 
     42 H          25.9523   18.2219   72.9946 H         1 ET11        0.0000 
     43 H          27.4452   26.8127   67.8365 H         1 ET11        0.0000 
     44 H          27.5560   25.4198   68.6325 H         1 ET11        0.0000 
     45 H          26.6592   26.6157   69.2256 H         1 ET11        0.0000 
@<TRIPOS>BOND
     1   16    1 1    
     2   17    1 1    
     3   28    1 1    
     4   29    1 1    
     5   19    2 ar   
     6   20    2 ar   
     7   30    2 1    
     8    4    3 ar   
     9   21    3 ar   
    10   31    3 1    
    11   19    4 ar   
    12   32    4 1    
    13    6    5 1    
    14    9    5 1    
    15   18    5 1    
    16    7    6 2    
    17   33    6 1    
    18    8    7 1    
    19   16    7 1    
    20    9    8 ar   
    21   13    8 ar   
    22   12    9 ar   
    23   11   10 ar   
    24   13   10 ar   
    25   14   10 1    
    26   12   11 ar   
    27   34   11 1    
    28   35   12 1    
    29   36   13 1    
    30   15   14 1    
    31   40   15 1    
    32   41   15 1    
    33   42   15 1    
    34   37   16 1    
    35   38   16 1    
    36   24   17 ar   
    37   25   17 ar   
    38   19   18 1    
    39   22   18 2    
    40   23   18 2    
    41   21   20 ar   
    42   39   20 1    
    43   26   21 1    
    44   27   26 1    
    45   43   27 1    
    46   44   27 1    
    47   45   27 1    
@<TRIPOS>SUBSTRUCTURE
     1 ET11        1 GROUP   
@<TRIPOS>SET

