#    Name: 3f17_HS4_1_INTS_M
#    Modification time : Tue Mar 25 03:03:36 2014

@<TRIPOS>MOLECULE
3f17_HS4_1_INTS_M
   55     0     9     0     0
SMALL
NO_CHARGES


@<TRIPOS>ATOM
      1 N          -1.4360   -6.1205    5.7060 N.am      1 SEC2        0.0000 
      2 N          -0.2930   -5.3680    5.1730 N.am      7 SEL2        0.0000 
      3 N          -2.5790   -6.8730    6.2390 N.am      4 SEP2        0.0000 
      4 N          -1.2985   -5.0115    6.5235 N.am      1 SEC2        0.0000 
      5 N          -2.3040   -4.6550    7.8740 N.am      4 SEP2        0.0000 
      6 Zn          2.4805   -3.1750    4.0640 Zn        2 ZIC7        0.0000 
      7 Zn          0.7600   -4.7210    3.2140 Zn        8 ZIL7        0.0000 
      8 Zn          4.2010   -1.6290    4.9140 Zn        5 ZIP7        0.0000 
      9 CA         -0.9835   -4.3690    2.5545 C.3       3 GLC5        0.0000 
     10 CA          0.5100   -3.3290    3.4630 C.3       9 GLL5        0.0000 
     11 CA         -2.4770   -5.4090    1.6460 C.3       6 GLP5        0.0000 
     12 Zn          3.5075   -2.1570    4.3350 Zn        2 ZIC7        0.0000 
     13 Zn          2.8140   -2.6850    3.7560 Zn        8 ZIL7        0.0000 
     14 Zn          3.2635   -1.5555    5.4760 Zn        2 ZIC7        0.0000 
     15 Zn          2.3260   -1.4820    6.0380 Zn        8 ZIL7        0.0000 
     16 CA          4.6270   -8.8380    6.5245 C.3       3 GLC5        0.0000 
     17 CA          4.0380   -7.0280    5.8320 C.3       9 GLL5        0.0000 
     18 CA          5.2160  -10.6480    7.2170 C.3       6 GLP5        0.0000 
     19 CA          0.3130   -6.5555    7.3910 C.3       3 GLC5        0.0000 
     20 CA          1.8870   -5.4460    6.6500 C.3       9 GLL5        0.0000 
     21 CA         -1.2610   -7.6650    8.1320 C.3       6 GLP5        0.0000 
     22 CA          1.7630   -7.5060    7.6475 C.3       3 GLC5        0.0000 
     23 CA          2.9740   -5.6630    7.5010 C.3       9 GLL5        0.0000 
     24 CA          0.5520   -9.3490    7.7940 C.3       6 GLP5        0.0000 
     25 CA          2.1725   -5.6555    9.4815 C.3       3 GLC5        0.0000 
     26 CA          1.3710   -5.6480   11.4620 C.3       6 GLP5        0.0000 
     27 CA          3.9355   -8.5640    7.4530 C.3       3 GLC5        0.0000 
     28 CA          4.0660   -6.4360    7.0930 C.3       9 GLL5        0.0000 
     29 CA          3.8050  -10.6920    7.8130 C.3       6 GLP5        0.0000 
     30 CA          6.2635   -8.0045   12.2050 C.3       3 GLC5        0.0000 
     31 CA          5.8940   -7.3770   10.2380 C.3       9 GLL5        0.0000 
     32 CA          6.6330   -8.6320   14.1720 C.3       6 GLP5        0.0000 
     33 CA          4.3495   -8.8750    8.5720 C.3       3 GLC5        0.0000 
     34 CA          4.8940   -7.0580    9.3310 C.3       9 GLL5        0.0000 
     35 CA          1.4810   -7.8847    6.4880 C.3       3 GLC5        0.0000 
     36 CA          2.9560   -6.8100    4.9840 C.3       9 GLL5        0.0000 
     37 CA          5.0925   -6.4045    4.1925 C.3       3 GLC5        0.0000 
     38 CA          6.6880   -5.8900    2.9770 C.3       6 GLP5        0.0000 
     39 CA          4.8330   -8.2620    4.5530 C.3       3 GLC5        0.0000 
     40 CA          6.1690   -9.6050    3.6980 C.3       6 GLP5        0.0000 
     41 CA          4.1106   -4.3081    7.3641 C.3       3 GLC5        0.0000 
     42 CA          4.9730   -2.6210    7.6440 C.3       6 GLP5        0.0000 
     43 CA          5.9310   -4.9612    8.0715 C.3       3 GLC5        0.0000 
     44 CA          5.2040   -6.7240    8.0100 C.3       9 GLL5        0.0000 
     45 CA          5.9940   -3.1730    8.3380 C.3       6 GLP5        0.0000 
     46 CA          6.7737   -5.3262    9.4890 C.3       3 GLC5        0.0000 
     47 CA          7.5390   -7.0950    8.5130 C.3       9 GLL5        0.0000 
     48 CA          6.1670   -3.4070    9.8060 C.3       6 GLP5        0.0000 
     49 CA          8.7298   -6.1333   10.2075 C.3       3 GLC5        0.0000 
     50 CA          7.2220   -7.3960    9.8310 C.3       9 GLL5        0.0000 
     51 CA         10.0790   -5.0210   11.2430 C.3       6 GLP5        0.0000 
     52 CA          5.9597   -8.7851    7.6880 C.3       3 GLC5        0.0000 
     53 CA          4.4750   -6.5068   11.2222 C.3       3 GLC5        0.0000 
     54 CA          3.5560   -5.7960   12.6600 C.3       6 GLP5        0.0000 
     55 CA          5.7805   -5.3122    9.7952 C.3       3 GLC5        0.0000 
@<TRIPOS>BOND
@<TRIPOS>SUBSTRUCTURE
     1 SEC2        1 GROUP        1 X    SEC  0     ROOT SEC X 2
     2 ZIC7        6 GROUP        1 X    ZIC  0     **** ZIC X 5
     3 GLC5        9 GROUP        1 X    GLC  0     **** GLC X 6
     4 SEP2        3 GROUP        1 Y    SEP  0     ROOT SEP Y 9
     5 ZIP7        8 GROUP        1 Y    ZIP  0     **** ZIP Y 12
     6 GLP5       11 GROUP        1 Y    GLP  0     **** GLP Y 13
     7 SEL2        2 GROUP        1 Z    SEL  0     ROOT SEL Z 16
     8 ZIL7        7 GROUP        1 Z    ZIL  0     **** ZIL Z 19
     9 GLL5       10 GROUP        1 Z    GLL  0     **** GLL Z 20
@<TRIPOS>SET

