#    Name: 3f17_HS4_1_ligand
#    Modification time : Tue Mar 25 03:03:36 2014

@<TRIPOS>MOLECULE
3f17_HS4_1_ligand
   33    34     1     0     0
SMALL
NO_CHARGES


@<TRIPOS>ATOM
      1 O4         -0.2930   -5.3680    5.1730 O.2       1 HS40        0.0000 
      2 S1          0.7070   -5.9110    4.2810 S.o2      1 HS40        0.0000 
      3 O3          0.4190   -7.0990    3.6070 O.2       1 HS40        0.0000 
      4 N1          0.7600   -4.7210    3.2140 N.pl3     1 HS40        0.0000 
      5 C12         0.5100   -3.3290    3.4630 C.3       1 HS40        0.0000 
      6 C14         1.6640   -2.6940    4.1890 C.2       1 HS40        0.0000 
      7 O1          2.8140   -2.6850    3.7560 O.2       1 HS40        0.0000 
      8 N2          1.3410   -2.1240    5.3270 N.2       1 HS40        0.0000 
      9 O2          2.3260   -1.4820    6.0380 O.2       1 HS40        0.0000 
     10 C13         1.8640   -6.0310    5.3800 C.ar      1 HS40        0.0000 
     11 C10         2.9560   -6.8100    4.9840 C.ar      1 HS40        0.0000 
     12 C5          4.0380   -7.0280    5.8320 C.ar      1 HS40        0.0000 
     13 C11         1.8870   -5.4460    6.6500 C.ar      1 HS40        0.0000 
     14 C8          2.9740   -5.6630    7.5010 C.ar      1 HS40        0.0000 
     15 C2          4.0660   -6.4360    7.0930 C.ar      1 HS40        0.0000 
     16 C1          5.2040   -6.7240    8.0100 C.ar      1 HS40        0.0000 
     17 C4          6.5320   -6.7750    7.6000 C.ar      1 HS40        0.0000 
     18 C7          7.5390   -7.0950    8.5130 C.ar      1 HS40        0.0000 
     19 C9          7.2220   -7.3960    9.8310 C.ar      1 HS40        0.0000 
     20 C6          5.8940   -7.3770   10.2380 C.ar      1 HS40        0.0000 
     21 C3          4.8940   -7.0580    9.3310 C.ar      1 HS40        0.0000 
     22 H           1.0063   -5.0507    2.2572 H         1 HS40        0.0000 
     23 H          -0.3997   -3.1926    4.0716 H         1 HS40        0.0000 
     24 H           0.3498   -2.7804    2.5197 H         1 HS40        0.0000 
     25 H           2.9568   -7.2332    4.0374 H         1 HS40        0.0000 
     26 H           4.8170   -7.6258    5.5285 H         1 HS40        0.0000 
     27 H           1.1047   -4.8569    6.9569 H         1 HS40        0.0000 
     28 H           2.9716   -5.2463    8.4462 H         1 HS40        0.0000 
     29 H           6.7762   -6.5765    6.6201 H         1 HS40        0.0000 
     30 H           8.5216   -7.1069    8.2036 H         1 HS40        0.0000 
     31 H           7.9634   -7.6309   10.4999 H         1 HS40        0.0000 
     32 H           5.6526   -7.5999   11.2136 H         1 HS40        0.0000 
     33 H           3.9050   -7.0662    9.6320 H         1 HS40        0.0000 
@<TRIPOS>BOND
     1    2    1 2    
     2    3    2 2    
     3    4    2 1    
     4   10    2 1    
     5    5    4 1    
     6   22    4 1    
     7    6    5 1    
     8   23    5 1    
     9   24    5 1    
    10    7    6 2    
    11    8    6 1    
    12    9    8 2    
    13   11   10 ar   
    14   13   10 ar   
    15   12   11 ar   
    16   25   11 1    
    17   15   12 ar   
    18   26   12 1    
    19   14   13 ar   
    20   27   13 1    
    21   15   14 ar   
    22   28   14 1    
    23   16   15 1    
    24   17   16 ar   
    25   21   16 ar   
    26   18   17 ar   
    27   29   17 1    
    28   19   18 ar   
    29   30   18 1    
    30   20   19 ar   
    31   31   19 1    
    32   21   20 ar   
    33   32   20 1    
    34   33   21 1    
@<TRIPOS>SUBSTRUCTURE
     1 HS40        1 GROUP   
@<TRIPOS>SET

