#    Name: 1gve_NAP_1_INTS_M
#    Modification time : Tue Mar 25 04:02:35 2014

@<TRIPOS>MOLECULE
1gve_NAP_1_INTS_M
  118     0    12     0     0
SMALL
NO_CHARGES


@<TRIPOS>ATOM
      1 N          24.6955   10.0240   11.0955 N.am      2 SEC2        0.0000 
      2 N          25.1820    8.9350   10.2240 N.am     10 SEL2        0.0000 
      3 N          24.2090   11.1130   11.9670 N.am      6 SEP2        0.0000 
      4 N          24.4270    7.8390   10.6905 N.am      2 SEC2        0.0000 
      5 N          23.6720    6.7430   11.1570 N.am      6 SEP2        0.0000 
      6 CA         25.9930    9.6820    5.8100 C.3       4 GLC5        0.0000 
      7 CA         24.5360    8.4960    6.5380 C.3      12 GLL5        0.0000 
      8 CA         27.4500   10.8680    5.0820 C.3       8 GLP5        0.0000 
      9 CA         21.7185    7.8040    7.5255 C.3       4 GLC5        0.0000 
     10 CA         23.2360    7.9030    6.0210 C.3      12 GLL5        0.0000 
     11 CA         20.2010    7.7050    9.0300 C.3       8 GLP5        0.0000 
     12 CA         24.1420    9.2010    3.2785 C.3       4 GLC5        0.0000 
     13 CA         23.0860    7.9900    4.4930 C.3      12 GLL5        0.0000 
     14 CA         25.1980   10.4120    2.0640 C.3       8 GLP5        0.0000 
     15 N          24.9635    6.2275    4.8125 N.am      2 SEC2        0.0000 
     16 N          23.7880    6.9600    3.8460 N.am     10 SEL2        0.0000 
     17 N          26.1390    5.4950    5.7790 N.am      6 SEP2        0.0000 
     18 CA         20.6515    8.2105    7.2800 C.3       4 GLC5        0.0000 
     19 CA         21.1020    8.7160    5.5300 C.3      12 GLL5        0.0000 
     20 N          22.5935   13.3545    4.6655 N.am      2 SEC2        0.0000 
     21 N          21.6380   12.2310    4.7420 N.am     10 SEL2        0.0000 
     22 N          23.5490   14.4780    4.5890 N.am      6 SEP2        0.0000 
     23 CA         21.1820   12.3650    6.4935 C.3       4 GLC5        0.0000 
     24 CA         20.3270   12.1200    4.5310 C.3      12 GLL5        0.0000 
     25 CA         22.0370   12.6100    8.4560 C.3       8 GLP5        0.0000 
     26 O          18.5030   15.1305    3.4085 O.2       1 ALC1        0.0000 
     27 O          19.5280   14.2720    3.7100 O.2       9 ALL1        0.0000 
     28 O          17.4780   15.9890    3.1070 O.2       5 ALP1        0.0000 
     29 O          20.6475   15.0180    4.3190 O.2       1 ALC1        0.0000 
     30 O          21.7670   15.7640    4.9280 O.2       5 ALP1        0.0000 
     31 CA         17.9050   11.0960    6.2310 C.3       4 GLC5        0.0000 
     32 CA         17.7260   11.2150    4.2170 C.3      12 GLL5        0.0000 
     33 CA         18.0840   10.9770    8.2450 C.3       8 GLP5        0.0000 
     34 CA         18.9640   11.4565    2.5890 C.3       4 GLC5        0.0000 
     35 CA         20.2020   11.6980    0.9610 C.3       8 GLP5        0.0000 
     36 N          18.1980    8.9490    4.4160 N.am      2 SEC2        0.0000 
     37 N          18.6600   10.3380    4.6440 N.am     10 SEL2        0.0000 
     38 N          17.7360    7.5600    4.1880 N.am      6 SEP2        0.0000 
     39 NZ         26.9840    6.6450    6.2065 N.4       3 LYC4        0.0000 
     40 NZ         27.8290    7.7950    6.6340 N.4      11 LYL4        0.0000 
     41 NZ         25.8200    4.4560    6.5520 N.4       7 LYP4        0.0000 
     42 N          26.9840    6.6450    6.2065 N.am      2 SEC2        0.0000 
     43 N          27.8290    7.7950    6.6340 N.am     10 SEL2        0.0000 
     44 NZ         26.8300    5.5910    8.3420 N.4       3 LYC4        0.0000 
     45 NZ         27.4850    6.7420    8.8530 N.4      11 LYL4        0.0000 
     46 N          27.7535    6.2870   10.1325 N.am      2 SEC2        0.0000 
     47 N          27.4850    6.7420    8.8530 N.am     10 SEL2        0.0000 
     48 N          28.0220    5.8320   11.4120 N.am      6 SEP2        0.0000 
     49 N          26.8300    5.5910    8.3420 N.am      2 SEC2        0.0000 
     50 N          26.1750    4.4400    7.8310 N.am      6 SEP2        0.0000 
     51 N          29.1145    8.7480   10.1125 N.am      2 SEC2        0.0000 
     52 N          29.3370    8.5370    8.3990 N.am     10 SEL2        0.0000 
     53 N          28.8920    8.9590   11.8260 N.am      6 SEP2        0.0000 
     54 CA         28.6045   10.1775    6.2605 C.3       4 GLC5        0.0000 
     55 CA         29.7590    9.4870    7.4390 C.3      12 GLL5        0.0000 
     56 N          31.8315    7.5990    3.2020 N.am      2 SEC2        0.0000 
     57 N          31.1850    8.2230    4.6590 N.am     10 SEL2        0.0000 
     58 N          32.4780    6.9750    1.7450 N.am      6 SEP2        0.0000 
     59 CA         33.9430    6.0145    5.8435 C.3       4 GLC5        0.0000 
     60 CA         32.7290    7.5390    6.3580 C.3      12 GLL5        0.0000 
     61 CA         35.1570    4.4900    5.3290 C.3       8 GLP5        0.0000 
     62 O          34.9385    8.5775    6.0580 O.2       1 ALC1        0.0000 
     63 O          33.5960    8.4040    5.6430 O.2       9 ALL1        0.0000 
     64 O          36.2810    8.7510    6.4730 O.2       5 ALP1        0.0000 
     65 CA         32.4125    8.2865    9.6925 C.3       4 GLC5        0.0000 
     66 CA         32.9410    7.9080    7.8340 C.3      12 GLL5        0.0000 
     67 CA         31.8840    8.6650   11.5510 C.3       8 GLP5        0.0000 
     68 N          35.5700    2.9660   12.6285 N.am      2 SEC2        0.0000 
     69 N          34.7300    3.3470   11.5090 N.am     10 SEL2        0.0000 
     70 N          36.4100    2.5850   13.7480 N.am      6 SEP2        0.0000 
     71 O          36.8275    5.3730   12.1355 O.2       1 ALC1        0.0000 
     72 O          35.9650    5.3160   10.9500 O.2       9 ALL1        0.0000 
     73 O          37.6900    5.4300   13.3210 O.2       5 ALP1        0.0000 
     74 O          35.9220    6.6530   10.4810 O.2       1 ALC1        0.0000 
     75 O          35.8790    7.9900   10.0120 O.2       5 ALP1        0.0000 
     76 NZ         21.6085    4.2495    1.2035 N.4       3 LYC4        0.0000 
     77 NZ         21.8840    5.0690    2.7420 N.4      11 LYL4        0.0000 
     78 NZ         21.3330    3.4300   -0.3350 N.4       7 LYP4        0.0000 
     79 N          21.8130    6.0870    1.4865 N.am      2 SEC2        0.0000 
     80 N          21.8840    5.0690    2.7420 N.am     10 SEL2        0.0000 
     81 N          21.7420    7.1050    0.2310 N.am      6 SEP2        0.0000 
     82 NZ         18.3750    4.9535    4.1735 N.4       3 LYC4        0.0000 
     83 NZ         19.8900    4.4630    4.0580 N.4      11 LYL4        0.0000 
     84 NZ         16.7600    6.7360    4.5630 N.4       7 LYP4        0.0000 
     85 N          18.3750    4.9535    4.1735 N.am      2 SEC2        0.0000 
     86 N          19.8900    4.4630    4.0580 N.am     10 SEL2        0.0000 
     87 N          16.8600    5.4440    4.2890 N.am      6 SEP2        0.0000 
     88 N          20.3690    3.2295    4.3135 N.am      2 SEC2        0.0000 
     89 N          20.8480    1.9960    4.5690 N.am      6 SEP2        0.0000 
     90 NZ         18.8060    7.0030    3.2535 N.4       3 LYC4        0.0000 
     91 NZ         19.8760    6.4460    2.3190 N.4      11 LYL4        0.0000 
     92 N          18.8060    7.0030    3.2535 N.am      2 SEC2        0.0000 
     93 N          19.8760    6.4460    2.3190 N.am     10 SEL2        0.0000 
     94 N          20.8090    6.7755    1.2750 N.am      2 SEC2        0.0000 
     95 N          19.7255    7.9060    1.7955 N.am      2 SEC2        0.0000 
     96 N          19.5750    9.3660    1.2720 N.am      6 SEP2        0.0000 
     97 CA         23.6785    7.0868    8.1077 C.3       4 GLC5        0.0000 
     98 CA         23.4710    5.9740    9.9360 C.3       8 GLP5        0.0000 
     99 CA         19.1088   11.2070    6.4532 C.3       4 GLC5        0.0000 
    100 CA         19.9400   10.7540    4.7920 C.3      12 GLL5        0.0000 
    101 CA         19.3975   13.5953    5.6142 C.3       4 GLC5        0.0000 
    102 CA         18.9930   14.6270    6.9270 C.3       8 GLP5        0.0000 
    103 CA         20.0365   11.6784    2.7539 C.3       4 GLC5        0.0000 
    104 CA         19.2770   13.0070    4.0720 C.3      12 GLL5        0.0000 
    105 CA         31.6580   10.6002    7.3055 C.3       4 GLC5        0.0000 
    106 CA         32.8600   11.9150    7.3950 C.3       8 GLP5        0.0000 
    107 CA         31.7670    6.5332    4.7298 C.3       4 GLC5        0.0000 
    108 CA         31.2990    7.9100    6.0450 C.3      12 GLL5        0.0000 
    109 CA         31.5200    5.3420    3.2580 C.3       8 GLP5        0.0000 
    110 CA         32.2138    9.4775    5.1348 C.3       4 GLC5        0.0000 
    111 CA         32.4500   10.9370    3.8310 C.3       8 GLP5        0.0000 
    112 CA         32.8475    9.8193    7.2455 C.3       4 GLC5        0.0000 
    113 CA         32.8363    7.1337   10.6517 C.3       4 GLC5        0.0000 
    114 CA         33.8620    6.2090    9.3740 C.3      12 GLL5        0.0000 
    115 CA         31.1855    4.7603    7.2957 C.3       4 GLC5        0.0000 
    116 CA         31.5590    6.1140    8.7430 C.3      12 GLL5        0.0000 
    117 CA         30.9510    3.9860    5.4270 C.3       8 GLP5        0.0000 
    118 CA         31.6520    7.0998   10.3577 C.3       4 GLC5        0.0000 
@<TRIPOS>BOND
@<TRIPOS>SUBSTRUCTURE
     1 ALC1       26 GROUP        1 X    ALC  0     ROOT ALC X 1
     2 SEC2        1 GROUP        1 X    SEC  0     **** SEC X 2
     3 LYC4       39 GROUP        1 X    LYC  0     **** LYC X 4
     4 GLC5        6 GROUP        1 X    GLC  0     **** GLC X 6
     5 ALP1       28 GROUP        1 Y    ALP  0     ROOT ALP Y 8
     6 SEP2        3 GROUP        1 Y    SEP  0     **** SEP Y 9
     7 LYP4       41 GROUP        1 Y    LYP  0     **** LYP Y 11
     8 GLP5        8 GROUP        1 Y    GLP  0     **** GLP Y 13
     9 ALL1       27 GROUP        1 Z    ALL  0     ROOT ALL Z 15
    10 SEL2        2 GROUP        1 Z    SEL  0     **** SEL Z 16
    11 LYL4       40 GROUP        1 Z    LYL  0     **** LYL Z 18
    12 GLL5        7 GROUP        1 Z    GLL  0     **** GLL Z 20
@<TRIPOS>SET

