#    Name: 1gve_NAP_1_ligand
#    Modification time : Tue Mar 25 04:02:35 2014

@<TRIPOS>MOLECULE
1gve_NAP_1_ligand
   73    77     1     0     0
SMALL
NO_CHARGES


@<TRIPOS>ATOM
      1 PA         25.4310    9.3710    8.8140 P.3       1 NAP1328     0.0000 
      2 O1A        25.1820    8.9350   10.2240 O.co2     1 NAP1328     0.0000 
      3 O2A        25.0150   10.7540    8.4100 O.co2     1 NAP1328     0.0000 
      4 O5B        24.6900    8.2650    7.9200 O.3       1 NAP1328     0.0000 
      5 C5B        24.5360    8.4960    6.5380 C.3       1 NAP1328     0.0000 
      6 C4B        23.2360    7.9030    6.0210 C.3       1 NAP1328     0.0000 
      7 O4B        22.0950    8.6020    6.5410 O.3       1 NAP1328     0.0000 
      8 C3B        23.0860    7.9900    4.4930 C.3       1 NAP1328     0.0000 
      9 O3B        23.7880    6.9600    3.8460 O.3       1 NAP1328     0.0000 
     10 C2B        21.5780    7.8910    4.3570 C.3       1 NAP1328     0.0000 
     11 O2B        21.0820    6.5540    4.5730 O.3       1 NAP1328     0.0000 
     12 C1B        21.1020    8.7160    5.5300 C.3       1 NAP1328     0.0000 
     13 N9A        21.0620   10.1460    5.1800 N.pl3     1 NAP1328     0.0000 
     14 C8A        22.1000   11.0340    5.1400 C.2       1 NAP1328     0.0000 
     15 N7A        21.6380   12.2310    4.7420 N.2       1 NAP1328     0.0000 
     16 C5A        20.3270   12.1200    4.5310 C.ar      1 NAP1328     0.0000 
     17 C6A        19.2770   13.0070    4.0720 C.ar      1 NAP1328     0.0000 
     18 N6A        19.5280   14.2720    3.7100 N.pl3     1 NAP1328     0.0000 
     19 N1A        18.0370   12.5130    3.9490 N.ar      1 NAP1328     0.0000 
     20 C2A        17.7260   11.2150    4.2170 C.ar      1 NAP1328     0.0000 
     21 N3A        18.6600   10.3380    4.6440 N.ar      1 NAP1328     0.0000 
     22 C4A        19.9400   10.7540    4.7920 C.ar      1 NAP1328     0.0000 
     23 O3         26.9660    9.2250    8.4190 O.3       1 NAP1328     0.0000 
     24 PN         27.8790    7.9600    8.1210 P.3       1 NAP1328     0.0000 
     25 O1N        27.8290    7.7950    6.6340 O.co2     1 NAP1328     0.0000 
     26 O2N        27.4850    6.7420    8.8530 O.co2     1 NAP1328     0.0000 
     27 O5D        29.3370    8.5370    8.3990 O.3       1 NAP1328     0.0000 
     28 C5D        29.7590    9.4870    7.4390 C.3       1 NAP1328     0.0000 
     29 C4D        31.1530    9.0840    6.9930 C.3       1 NAP1328     0.0000 
     30 O4D        31.8890    8.7780    8.1920 O.3       1 NAP1328     0.0000 
     31 C3D        31.2990    7.9100    6.0450 C.3       1 NAP1328     0.0000 
     32 O3D        31.1850    8.2230    4.6590 O.3       1 NAP1328     0.0000 
     33 C2D        32.7290    7.5390    6.3580 C.3       1 NAP1328     0.0000 
     34 O2D        33.5960    8.4040    5.6430 O.3       1 NAP1328     0.0000 
     35 C1D        32.9410    7.9080    7.8340 C.3       1 NAP1328     0.0000 
     36 N1N        32.7880    6.8120    8.7190 N.pl3     1 NAP1328     0.0000 
     37 C2N        33.8620    6.2090    9.3740 C.ar      1 NAP1328     0.0000 
     38 C3N        33.7150    4.9960   10.1310 C.ar      1 NAP1328     0.0000 
     39 C7N        34.8220    4.5140   10.8940 C.2       1 NAP1328     0.0000 
     40 O7N        34.7300    3.3470   11.5090 O.2       1 NAP1328     0.0000 
     41 N7N        35.9650    5.3160   10.9500 N.am      1 NAP1328     0.0000 
     42 C4N        32.4410    4.3460   10.1910 C.ar      1 NAP1328     0.0000 
     43 C5N        31.2810    4.9550    9.5860 C.ar      1 NAP1328     0.0000 
     44 C6N        31.5590    6.1140    8.7430 C.ar      1 NAP1328     0.0000 
     45 P2B        20.6120    5.5900    3.3570 P.3       1 NAP1328     0.0000 
     46 O1X        21.8840    5.0690    2.7420 O.co2     1 NAP1328     0.0000 
     47 O2X        19.8900    4.4630    4.0580 O.co2     1 NAP1328     0.0000 
     48 O3X        19.8760    6.4460    2.3190 O.co2     1 NAP1328     0.0000 
     49 H          25.3608    8.0510    5.9511 H         1 NAP1328     0.0000 
     50 H          24.5271    9.5755    6.2988 H         1 NAP1328     0.0000 
     51 H          23.1807    6.8567    6.2903 H         1 NAP1328     0.0000 
     52 H          23.3749    8.9786    4.2142 H         1 NAP1328     0.0000 
     53 H          21.2601    8.3357    3.4783 H         1 NAP1328     0.0000 
     54 H          20.1668    8.3774    5.8589 H         1 NAP1328     0.0000 
     55 H          23.0168   10.8214    5.3650 H         1 NAP1328     0.0000 
     56 H          20.2642   14.7335    4.2050 H         1 NAP1328     0.0000 
     57 H          18.9567   14.6416    2.9772 H         1 NAP1328     0.0000 
     58 H          16.7346   10.8925    4.0871 H         1 NAP1328     0.0000 
     59 H          29.8150   10.4924    7.8518 H         1 NAP1328     0.0000 
     60 H          29.1152    9.4996    6.5616 H         1 NAP1328     0.0000 
     61 H          31.6279    9.9648    6.5301 H         1 NAP1328     0.0000 
     62 H          30.6865    7.1223    6.3816 H         1 NAP1328     0.0000 
     63 H          32.9035    6.5397    6.2213 H         1 NAP1328     0.0000 
     64 H          33.8787    8.3881    7.9415 H         1 NAP1328     0.0000 
     65 H          34.8045    6.6360    9.3239 H         1 NAP1328     0.0000 
     66 H          35.9339    6.1639   10.4208 H         1 NAP1328     0.0000 
     67 H          36.7159    4.9731   11.5145 H         1 NAP1328     0.0000 
     68 H          32.3476    3.4505   10.6611 H         1 NAP1328     0.0000 
     69 H          30.3771    4.6239    9.7245 H         1 NAP1328     0.0000 
     70 H          30.7827    6.4364    8.1196 H         1 NAP1328     0.0000 
     71 H          23.0807    6.3551    3.4801 H         1 NAP1328     0.0000 
     72 H          30.2075    8.1572    4.4585 H         1 NAP1328     0.0000 
     73 H          34.4666    8.3605    6.1330 H         1 NAP1328     0.0000 
@<TRIPOS>BOND
     1    2    1 ar   
     2    3    1 ar   
     3    4    1 1    
     4   23    1 1    
     5    5    4 1    
     6    6    5 1    
     7   49    5 1    
     8   50    5 1    
     9    7    6 1    
    10    8    6 1    
    11   51    6 1    
    12   12    7 1    
    13    9    8 1    
    14   10    8 1    
    15   52    8 1    
    16   71    9 1    
    17   11   10 1    
    18   12   10 1    
    19   53   10 1    
    20   45   11 1    
    21   13   12 1    
    22   54   12 1    
    23   14   13 1    
    24   22   13 1    
    25   15   14 2    
    26   55   14 1    
    27   16   15 1    
    28   17   16 ar   
    29   22   16 ar   
    30   18   17 1    
    31   19   17 ar   
    32   56   18 1    
    33   57   18 1    
    34   20   19 ar   
    35   21   20 ar   
    36   58   20 1    
    37   22   21 ar   
    38   24   23 1    
    39   25   24 ar   
    40   26   24 ar   
    41   27   24 1    
    42   28   27 1    
    43   29   28 1    
    44   59   28 1    
    45   60   28 1    
    46   30   29 1    
    47   31   29 1    
    48   61   29 1    
    49   35   30 1    
    50   32   31 1    
    51   33   31 1    
    52   62   31 1    
    53   72   32 1    
    54   34   33 1    
    55   35   33 1    
    56   63   33 1    
    57   73   34 1    
    58   36   35 1    
    59   64   35 1    
    60   37   36 ar   
    61   44   36 ar   
    62   38   37 ar   
    63   65   37 1    
    64   39   38 1    
    65   42   38 ar   
    66   40   39 2    
    67   41   39 am   
    68   66   41 1    
    69   67   41 1    
    70   43   42 ar   
    71   68   42 1    
    72   44   43 ar   
    73   69   43 1    
    74   70   44 1    
    75   46   45 ar   
    76   47   45 ar   
    77   48   45 ar   
@<TRIPOS>SUBSTRUCTURE
     1 NAP1328     1 GROUP   
@<TRIPOS>SET

