#    Name: 1ict_T44_1_INTS_M
#    Modification time : Tue Mar 25 06:55:24 2014

@<TRIPOS>MOLECULE
1ict_T44_1_INTS_M
   73     0     9     0     0
SMALL
NO_CHARGES


@<TRIPOS>ATOM
      1 CA         -5.1080  -43.2820   34.3720 C.3       3 GLC5        0.0000 
      2 CA         -4.3460  -44.9080   33.1790 C.3       9 GLL5        0.0000 
      3 CA         -5.8700  -41.6560   35.5650 C.3       6 GLP5        0.0000 
      4 CA         -1.9020  -45.5590   32.5495 C.3       3 GLC5        0.0000 
      5 CA         -3.4150  -45.2450   34.1740 C.3       9 GLL5        0.0000 
      6 CA         -0.3890  -45.8730   30.9250 C.3       6 GLP5        0.0000 
      7 CA         -2.8200  -47.7400   35.4440 C.3       3 GLC5        0.0000 
      8 CA         -3.7900  -45.8680   35.3930 C.3       9 GLL5        0.0000 
      9 CA         -1.8500  -49.6120   35.4950 C.3       6 GLP5        0.0000 
     10 CA         -7.1275  -44.0450   34.3530 C.3       3 GLC5        0.0000 
     11 CA         -6.6950  -44.7420   32.3350 C.3       9 GLL5        0.0000 
     12 CA         -7.5600  -43.3480   36.3710 C.3       6 GLP5        0.0000 
     13 CA          0.9920  -43.1655   34.9315 C.3       3 GLC5        0.0000 
     14 CA          0.1320  -44.0750   36.7890 C.3       9 GLL5        0.0000 
     15 CA          1.8520  -42.2560   33.0740 C.3       6 GLP5        0.0000 
     16 NZ         -6.2740  -47.9845   30.7025 N.4       2 LYC4        0.0000 
     17 NZ         -7.7720  -48.0660   31.2030 N.4       8 LYL4        0.0000 
     18 NZ         -4.7760  -47.9030   30.2020 N.4       5 LYP4        0.0000 
     19 N          -6.2740  -47.9845   30.7025 N.am      1 SEC2        0.0000 
     20 N          -7.7720  -48.0660   31.2030 N.am      7 SEL2        0.0000 
     21 N          -4.7760  -47.9030   30.2020 N.am      4 SEP2        0.0000 
     22 CA         -1.5035  -42.8920   34.0905 C.3       3 GLC5        0.0000 
     23 CA         -1.4430  -44.7710   33.7380 C.3       9 GLL5        0.0000 
     24 CA         -1.5640  -41.0130   34.4430 C.3       6 GLP5        0.0000 
     25 CA          0.2045  -43.5135   33.4060 C.3       3 GLC5        0.0000 
     26 CA         -0.9160  -45.3220   32.3315 C.3       3 GLC5        0.0000 
     27 CA          2.1330  -49.5400   35.3370 C.3       3 GLC5        0.0000 
     28 CA          2.2820  -47.7880   36.6120 C.3       9 GLL5        0.0000 
     29 CA          1.9840  -51.2920   34.0620 C.3       6 GLP5        0.0000 
     30 CA          3.4300  -47.5250   35.1170 C.3       3 GLC5        0.0000 
     31 CA          4.5780  -47.2620   33.6220 C.3       6 GLP5        0.0000 
     32 CA          4.1845  -48.2370   37.1310 C.3       3 GLC5        0.0000 
     33 CA          6.0870  -48.6860   37.6500 C.3       6 GLP5        0.0000 
     34 CA          2.4780  -49.7450   37.4270 C.3       3 GLC5        0.0000 
     35 CA          2.6740  -51.7020   38.2420 C.3       6 GLP5        0.0000 
     36 CA          1.5025  -47.9925   38.2130 C.3       3 GLC5        0.0000 
     37 CA          0.7230  -48.1970   39.8140 C.3       6 GLP5        0.0000 
     38 CA         -6.7375  -45.1960   36.8095 C.3       3 GLC5        0.0000 
     39 CA         -5.9150  -47.0440   37.2480 C.3       9 GLL5        0.0000 
     40 CA         -4.7330  -46.0550   38.1910 C.3       3 GLC5        0.0000 
     41 CA         -3.5510  -45.0660   39.1340 C.3       6 GLP5        0.0000 
     42 CA         -6.4310  -48.9695   36.5010 C.3       3 GLC5        0.0000 
     43 CA         -6.9470  -50.8950   35.7540 C.3       6 GLP5        0.0000 
     44 CA         -5.9595  -47.6620   38.8735 C.3       3 GLC5        0.0000 
     45 CA         -6.0040  -48.2800   40.4990 C.3       6 GLP5        0.0000 
     46 CA         -0.4720  -41.5400   35.7035 C.3       3 GLC5        0.0000 
     47 CA          0.6200  -42.0670   36.9640 C.3       9 GLL5        0.0000 
     48 CA          0.2815  -40.6775   37.6775 C.3       3 GLC5        0.0000 
     49 CA         -0.0570  -39.2880   38.3910 C.3       6 GLP5        0.0000 
     50 CA          1.0275  -42.6330   38.8675 C.3       3 GLC5        0.0000 
     51 CA          1.4350  -43.1990   40.7710 C.3       6 GLP5        0.0000 
     52 CA          1.2360  -42.1615   35.0190 C.3       3 GLC5        0.0000 
     53 CA         -4.7545  -46.5010   32.4735 C.3       3 GLC5        0.0000 
     54 CA         -5.6820  -45.1800   33.3750 C.3       9 GLL5        0.0000 
     55 CA         -4.4950  -47.9580   31.6700 C.3       6 GLP5        0.0000 
     56 CA         -4.0488  -46.7572   33.2267 C.3       3 GLC5        0.0000 
     57 CA         -4.0160  -45.5315   37.2968 C.3       3 GLC5        0.0000 
     58 CA         -6.5467  -44.5770   35.5559 C.3       3 GLC5        0.0000 
     59 CA         -5.1720  -46.1260   35.5260 C.3       9 GLL5        0.0000 
     60 CA         -5.5060  -47.4715   33.7065 C.3       3 GLC5        0.0000 
     61 CA         -6.1080  -45.7920   34.5360 C.3       9 GLL5        0.0000 
     62 CA         -5.3720  -48.9840   32.3820 C.3       6 GLP5        0.0000 
     63 CA         -5.6633  -46.6192   31.7392 C.3       3 GLC5        0.0000 
     64 CA         -2.2948  -45.6688   37.8422 C.3       3 GLC5        0.0000 
     65 CA         -1.5420  -45.7970   36.5610 C.3       9 GLL5        0.0000 
     66 CA         -0.9849  -47.9569   36.0469 C.3       3 GLC5        0.0000 
     67 CA          0.7990  -46.3320   36.6470 C.3       9 GLL5        0.0000 
     68 CA          1.0425  -43.8680   38.7758 C.3       3 GLC5        0.0000 
     69 CA          1.1680  -44.9990   36.7720 C.3       9 GLL5        0.0000 
     70 CA          0.6865  -46.9830   38.2484 C.3       3 GLC5        0.0000 
     71 CA         -2.0495  -44.6617   37.9370 C.3       3 GLC5        0.0000 
     72 CA         -1.0560  -42.6352   35.5915 C.3       3 GLC5        0.0000 
     73 CA         -1.2280  -44.4400   36.6910 C.3       9 GLL5        0.0000 
@<TRIPOS>BOND
@<TRIPOS>SUBSTRUCTURE
     1 SEC2       19 GROUP        1 X    SEC  0     ROOT SEC X 2
     2 LYC4       16 GROUP        1 X    LYC  0     **** LYC X 4
     3 GLC5        1 GROUP        1 X    GLC  0     **** GLC X 6
     4 SEP2       21 GROUP        1 Y    SEP  0     ROOT SEP Y 9
     5 LYP4       18 GROUP        1 Y    LYP  0     **** LYP Y 11
     6 GLP5        3 GROUP        1 Y    GLP  0     **** GLP Y 13
     7 SEL2       20 GROUP        1 Z    SEL  0     ROOT SEL Z 16
     8 LYL4       17 GROUP        1 Z    LYL  0     **** LYL Z 18
     9 GLL5        2 GROUP        1 Z    GLL  0     **** GLL Z 20
@<TRIPOS>SET

