#    Name: 1ict_T44_1_ligand
#    Modification time : Tue Mar 25 06:55:24 2014

@<TRIPOS>MOLECULE
1ict_T44_1_ligand
   35    36     1     0     0
SMALL
NO_CHARGES


@<TRIPOS>ATOM
      1 C1         -5.6820  -45.1800   33.3750 C.ar      1 T44128      0.0000 
      2 C2         -4.3460  -44.9080   33.1790 C.ar      1 T44128      0.0000 
      3 C3         -3.4150  -45.2450   34.1740 C.ar      1 T44128      0.0000 
      4 C4         -3.7900  -45.8680   35.3930 C.ar      1 T44128      0.0000 
      5 C5         -5.1720  -46.1260   35.5260 C.ar      1 T44128      0.0000 
      6 C6         -6.1080  -45.7920   34.5360 C.ar      1 T44128      0.0000 
      7 C7         -6.6950  -44.7420   32.3350 C.3       1 T44128      0.0000 
      8 C8         -6.9680  -45.8190   31.2820 C.3       1 T44128      0.0000 
      9 C9         -7.8520  -46.9980   31.8140 C.2       1 T44128      0.0000 
     10 C1'        -1.5420  -45.7970   36.5610 C.ar      1 T44128      0.0000 
     11 C2'        -0.5350  -46.7460   36.5400 C.ar      1 T44128      0.0000 
     12 C3'         0.7990  -46.3320   36.6470 C.ar      1 T44128      0.0000 
     13 C4'         1.1680  -44.9990   36.7720 C.ar      1 T44128      0.0000 
     14 C5'         0.1320  -44.0750   36.7890 C.ar      1 T44128      0.0000 
     15 C6'        -1.2280  -44.4400   36.6910 C.ar      1 T44128      0.0000 
     16 N8         -7.6980  -45.2250   30.1270 N.4       1 T44128      0.0000 
     17 O4         -2.8860  -46.2310   36.4410 O.3       1 T44128      0.0000 
     18 O4'         2.4420  -44.6250   36.8690 O.3       1 T44128      0.0000 
     19 O9         -8.5680  -46.7750   32.8000 O.co2     1 T44128      0.0000 
     20 O10        -7.7720  -48.0660   31.2030 O.co2     1 T44128      0.0000 
     21 I3         -1.4430  -44.7710   33.7380 I         1 T44128      0.0000 
     22 I3'         2.2820  -47.7880   36.6120 I         1 T44128      0.0000 
     23 I5         -5.9150  -47.0440   37.2480 I         1 T44128      0.0000 
     24 I5'         0.6200  -42.0670   36.9640 I         1 T44128      0.0000 
     25 H          -4.0211  -44.4616   32.3142 H         1 T44128      0.0000 
     26 H          -7.0996  -46.0055   34.6839 H         1 T44128      0.0000 
     27 H          -6.3305  -43.8375   31.8299 H         1 T44128      0.0000 
     28 H          -7.6400  -44.4857   32.8324 H         1 T44128      0.0000 
     29 H          -6.0396  -46.2349   30.9369 H         1 T44128      0.0000 
     30 H          -0.7543  -47.7406   36.4477 H         1 T44128      0.0000 
     31 H          -1.9521  -43.7346   36.7147 H         1 T44128      0.0000 
     32 H          -7.1739  -44.4918   29.6938 H         1 T44128      0.0000 
     33 H          -7.8903  -45.9052   29.4197 H         1 T44128      0.0000 
     34 H          -8.5757  -44.8338   30.4038 H         1 T44128      0.0000 
     35 H           3.0194  -44.0476   37.4464 H         1 T44128      0.0000 
@<TRIPOS>BOND
     1    2    1 ar   
     2    6    1 ar   
     3    7    1 1    
     4    3    2 ar   
     5   25    2 1    
     6    4    3 ar   
     7   21    3 1    
     8    5    4 ar   
     9   17    4 1    
    10    6    5 ar   
    11   23    5 1    
    12   26    6 1    
    13    8    7 1    
    14   27    7 1    
    15   28    7 1    
    16    9    8 1    
    17   16    8 1    
    18   29    8 1    
    19   19    9 ar   
    20   20    9 ar   
    21   11   10 ar   
    22   15   10 ar   
    23   17   10 1    
    24   12   11 ar   
    25   30   11 1    
    26   13   12 ar   
    27   22   12 1    
    28   14   13 ar   
    29   18   13 1    
    30   15   14 ar   
    31   24   14 1    
    32   31   15 1    
    33   32   16 1    
    34   33   16 1    
    35   34   16 1    
    36   35   18 1    
@<TRIPOS>SUBSTRUCTURE
     1 T44128      1 GROUP   
@<TRIPOS>SET

