#    Name: 2OGA_3_CAVITY_N1_6.mol2
#    Modification time : Tue Mar 11 02:35:53 2014

@<TRIPOS>MOLECULE
2OGA_3_CAVITY_N1_6.mol2
   77     0     6     0     0
SMALL
NO_CHARGES


@<TRIPOS>ATOM
      1 OG         -0.2342  -67.4972  -45.0111 O.2       1 SER1        0.0000 
      2 O           0.9584  -61.9257  -42.6058 O.2       2 ALA2        0.0000 
      3 O           1.6037  -61.5078  -43.8938 O.2       2 ALA2        0.0000 
      4 O          -2.4569  -61.0377  -45.7756 O.2       2 ALA2        0.0000 
      5 N          -1.8116  -60.6198  -47.0636 N.2       2 ALA2        0.0000 
      6 CA         -3.8104  -60.8810  -46.4029 C.3       5 GLY6        0.0000 
      7 O           2.9799  -61.2249  -39.6188 O.2       2 ALA2        0.0000 
      8 OD1         2.4728  -67.8106  -43.7566 O.3       3 ASP3        0.0000 
      9 OG          3.1181  -67.3927  -45.0446 O.2       1 SER1        0.0000 
     10 OD1         1.1193  -67.6539  -44.3839 O.3       3 ASP3        0.0000 
     11 OG          1.7646  -67.2360  -45.6719 O.2       1 SER1        0.0000 
     12 CA          4.4138  -64.2457  -39.8805 C.3       5 GLY6        0.0000 
     13 OG          5.0591  -63.8278  -41.1685 O.2       1 SER1        0.0000 
     14 OG          3.0603  -64.0890  -40.5078 O.2       1 SER1        0.0000 
     15 OG          3.7056  -63.6711  -41.7958 O.2       1 SER1        0.0000 
     16 OG          4.3509  -63.2532  -43.0838 O.2       1 SER1        0.0000 
     17 CA          1.7068  -63.9323  -41.1351 C.3       5 GLY6        0.0000 
     18 DU          2.3521  -63.5144  -42.4231 H         6 CUB7        0.0000 
     19 CZ          2.9974  -63.0965  -43.7111 C.ar      4 PHE5        0.0000 
     20 CZ          0.9986  -63.3577  -43.0503 C.ar      4 PHE5        0.0000 
     21 CZ          1.6439  -62.9398  -44.3383 C.ar      4 PHE5        0.0000 
     22 OG          2.2892  -62.5219  -45.6263 O.2       1 SER1        0.0000 
     23 CZ          0.2904  -62.7831  -44.9656 C.ar      4 PHE5        0.0000 
     24 O           0.9357  -62.3652  -46.2536 O.2       2 ALA2        0.0000 
     25 CZ          1.5809  -61.9473  -47.5416 C.ar      4 PHE5        0.0000 
     26 OG         -1.0631  -62.6264  -45.5929 O.2       1 SER1        0.0000 
     27 O          -0.4178  -62.2085  -46.8809 O.2       2 ALA2        0.0000 
     28 N           0.2274  -61.7906  -48.1689 N.2       2 ALA2        0.0000 
     29 O           0.8727  -61.3727  -49.4569 O.2       2 ALA2        0.0000 
     30 OG         -2.4166  -62.4698  -46.2201 O.2       1 SER1        0.0000 
     31 N          -1.7714  -62.0518  -47.5081 N.2       2 ALA2        0.0000 
     32 O          -1.1261  -61.6339  -48.7961 O.2       2 ALA2        0.0000 
     33 OG         -3.7702  -62.3131  -46.8474 O.2       1 SER1        0.0000 
     34 CA         -3.1249  -61.8951  -48.1354 C.3       5 GLY6        0.0000 
     35 O          -2.4796  -61.4772  -49.4234 O.2       2 ALA2        0.0000 
     36 O           4.3736  -62.8136  -39.4360 O.2       2 ALA2        0.0000 
     37 OG          5.0189  -62.3957  -40.7240 O.2       1 SER1        0.0000 
     38 OG          3.0201  -62.6570  -40.0633 O.2       1 SER1        0.0000 
     39 OG          3.6654  -62.2390  -41.3513 O.2       1 SER1        0.0000 
     40 CA          1.6666  -62.5003  -40.6906 C.3       5 GLY6        0.0000 
     41 O           2.3119  -62.0824  -41.9786 O.2       2 ALA2        0.0000 
     42 CA          4.4541  -65.6778  -40.3251 C.3       5 GLY6        0.0000 
     43 CZ          5.0993  -65.2598  -41.6131 C.ar      4 PHE5        0.0000 
     44 OD1         3.7458  -65.1032  -42.2403 O.3       3 ASP3        0.0000 
     45 OD1         2.3923  -64.9465  -42.8676 O.3       3 ASP3        0.0000 
     46 CZ          3.0376  -64.5286  -44.1556 C.ar      4 PHE5        0.0000 
     47 OD1         1.0388  -64.7898  -43.4949 O.3       3 ASP3        0.0000 
     48 OG          1.6841  -64.3719  -44.7829 O.2       1 SER1        0.0000 
     49 CZ         -0.3147  -64.6331  -44.1221 C.ar      4 PHE5        0.0000 
     50 OG          0.3306  -64.2152  -45.4101 O.2       1 SER1        0.0000 
     51 OG          0.9759  -63.7973  -46.6981 O.2       1 SER1        0.0000 
     52 OG          1.6212  -63.3793  -47.9861 O.2       1 SER1        0.0000 
     53 OG          2.2665  -62.9614  -49.2741 O.2       1 SER1        0.0000 
     54 OG         -1.0229  -64.0585  -46.0374 O.2       1 SER1        0.0000 
     55 CA         -0.3776  -63.6406  -47.3254 C.3       5 GLY6        0.0000 
     56 CA          0.2677  -63.2227  -48.6134 C.3       5 GLY6        0.0000 
     57 OG          0.9130  -62.8047  -49.9014 O.2       1 SER1        0.0000 
     58 OG         -2.3764  -63.9018  -46.6647 O.2       1 SER1        0.0000 
     59 CA         -1.7311  -63.4839  -47.9527 C.3       5 GLY6        0.0000 
     60 CA         -1.0858  -63.0660  -49.2407 C.3       5 GLY6        0.0000 
     61 CA         -0.4406  -62.6481  -50.5287 C.3       5 GLY6        0.0000 
     62 OD1        -3.7299  -63.7451  -47.2919 O.3       3 ASP3        0.0000 
     63 CA         -3.0846  -63.3272  -48.5799 C.3       5 GLY6        0.0000 
     64 CA         -2.4394  -62.9093  -49.8679 C.3       5 GLY6        0.0000 
     65 OD1         3.7861  -66.5352  -42.6848 O.3       3 ASP3        0.0000 
     66 OD1         2.4326  -66.3785  -43.3121 O.3       3 ASP3        0.0000 
     67 CZ          3.0778  -65.9606  -44.6001 C.ar      4 PHE5        0.0000 
     68 OD1         1.0790  -66.2218  -43.9394 O.3       3 ASP3        0.0000 
     69 CZ          1.7243  -65.8039  -45.2274 C.ar      4 PHE5        0.0000 
     70 CZ          2.3696  -65.3860  -46.5154 C.ar      4 PHE5        0.0000 
     71 CZ         -0.2745  -66.0652  -44.5666 C.ar      4 PHE5        0.0000 
     72 OD1         0.3708  -65.6472  -45.8546 O.3       3 ASP3        0.0000 
     73 CZ          1.0161  -65.2293  -47.1426 C.ar      4 PHE5        0.0000 
     74 CZ          1.6614  -64.8114  -48.4306 C.ar      4 PHE5        0.0000 
     75 CA         -0.3374  -65.0726  -47.7699 C.3       5 GLY6        0.0000 
     76 CA          0.3079  -64.6547  -49.0579 C.3       5 GLY6        0.0000 
     77 O           0.9532  -64.2368  -50.3459 O.2       2 ALA2        0.0000 
@<TRIPOS>BOND
@<TRIPOS>SUBSTRUCTURE
     1 SER1        1 GROUP   
     2 ALA2        2 GROUP   
     3 ASP3        8 GROUP   
     4 PHE5       19 GROUP   
     5 GLY6        6 GROUP   
     6 CUB7       18 GROUP   
@<TRIPOS>SET

