#    Name: 2oga_PGU_3_INTS_M
#    Modification time : Tue Mar 25 22:31:51 2014

@<TRIPOS>MOLECULE
2oga_PGU_3_INTS_M
   77     0     9     0     0
SMALL
NO_CHARGES


@<TRIPOS>ATOM
      1 CA          8.6875  -70.5200  -40.7265 C.3       3 GLC5        0.0000 
      2 CA          7.1430  -69.2980  -41.0510 C.3       9 GLL5        0.0000 
      3 CA         10.2320  -71.7420  -40.4020 C.3       6 GLP5        0.0000 
      4 CA          7.6610  -71.2495  -41.9535 C.3       3 GLC5        0.0000 
      5 CA          8.1790  -73.2010  -42.8560 C.3       6 GLP5        0.0000 
      6 N           4.4725  -69.9070  -42.0635 N.am      1 SEC2        0.0000 
      7 N           4.5170  -68.4650  -41.7180 N.am      7 SEL2        0.0000 
      8 N           4.4280  -71.3490  -42.4090 N.am      4 SEP2        0.0000 
      9 CA          5.0405  -65.7335  -43.2760 C.3       3 GLC5        0.0000 
     10 CA          3.5990  -65.7280  -41.8120 C.3       9 GLL5        0.0000 
     11 CA          6.4820  -65.7390  -44.7400 C.3       6 GLP5        0.0000 
     12 CA          5.8705  -62.8905  -39.2390 C.3       3 GLC5        0.0000 
     13 CA          5.5790  -63.6860  -41.1520 C.3       9 GLL5        0.0000 
     14 CA          6.1620  -62.0950  -37.3260 C.3       6 GLP5        0.0000 
     15 CA          5.7115  -64.1375  -43.1800 C.3       3 GLC5        0.0000 
     16 CA          5.8440  -64.5890  -45.2080 C.3       6 GLP5        0.0000 
     17 CA          5.6260  -62.2975  -42.7620 C.3       3 GLC5        0.0000 
     18 CA          5.6730  -60.9090  -44.3720 C.3       6 GLP5        0.0000 
     19 N           5.1000  -61.0170  -42.0720 N.am      1 SEC2        0.0000 
     20 N           4.2940  -60.9630  -41.1040 N.am      7 SEL2        0.0000 
     21 N           5.9060  -61.0710  -43.0400 N.am      4 SEP2        0.0000 
     22 N           3.3275  -59.8865  -41.3070 N.am      1 SEC2        0.0000 
     23 N           2.3610  -58.8100  -41.5100 N.am      4 SEP2        0.0000 
     24 N           4.1455  -61.3780  -38.1720 N.am      1 SEC2        0.0000 
     25 N           3.0950  -61.7320  -38.9070 N.am      7 SEL2        0.0000 
     26 N           5.1960  -61.0240  -37.4370 N.am      4 SEP2        0.0000 
     27 N           2.6540  -62.8120  -38.2585 N.am      1 SEC2        0.0000 
     28 N           2.2130  -63.8920  -37.6100 N.am      4 SEP2        0.0000 
     29 CA          3.6110  -65.4290  -45.0090 C.3       3 GLC5        0.0000 
     30 CA          2.1280  -66.2090  -43.6330 C.3       9 GLL5        0.0000 
     31 CA          5.0940  -64.6490  -46.3850 C.3       6 GLP5        0.0000 
     32 CA         -0.4585  -64.9570  -42.7675 C.3       3 GLC5        0.0000 
     33 CA          1.3940  -64.9220  -43.3740 C.3       9 GLL5        0.0000 
     34 CA         -2.3110  -64.9920  -42.1610 C.3       6 GLP5        0.0000 
     35 CA          3.4685  -64.2930  -45.4230 C.3       3 GLC5        0.0000 
     36 CA          1.8430  -63.9370  -44.4610 C.3       9 GLL5        0.0000 
     37 CA          3.1020  -62.3500  -44.6450 C.3       3 GLC5        0.0000 
     38 CA          4.3610  -60.7630  -44.8290 C.3       6 GLP5        0.0000 
     39 NZ          0.6360  -60.7200  -43.1460 N.4       2 LYC4        0.0000 
     40 NZ          1.4950  -61.9350  -43.1810 N.4       8 LYL4        0.0000 
     41 NZ         -0.3810  -58.6680  -44.1440 N.4       5 LYP4        0.0000 
     42 N           0.6360  -60.7200  -43.1460 N.am      1 SEC2        0.0000 
     43 N           1.4950  -61.9350  -43.1810 N.am      7 SEL2        0.0000 
     44 N          -0.2230  -59.5050  -43.1110 N.am      4 SEP2        0.0000 
     45 NZ          0.2755  -60.5415  -45.2340 N.4       2 LYC4        0.0000 
     46 NZ          0.4910  -62.0600  -45.1200 N.4       8 LYL4        0.0000 
     47 N           0.2755  -60.5415  -45.2340 N.am      1 SEC2        0.0000 
     48 N           0.4910  -62.0600  -45.1200 N.am      7 SEL2        0.0000 
     49 N           0.0600  -59.0230  -45.3480 N.am      4 SEP2        0.0000 
     50 N           0.1340  -60.7825  -44.1155 N.am      1 SEC2        0.0000 
     51 N           3.3475  -68.9450  -45.1920 N.am      1 SEC2        0.0000 
     52 N           2.5460  -67.8490  -45.2970 N.am      7 SEL2        0.0000 
     53 N           4.1490  -70.0410  -45.0870 N.am      4 SEP2        0.0000 
     54 N           1.5255  -68.3890  -46.3430 N.am      1 SEC2        0.0000 
     55 N           0.5050  -68.9290  -47.3890 N.am      4 SEP2        0.0000 
     56 NZ         -1.1015  -66.8850  -46.2895 N.4       2 LYC4        0.0000 
     57 NZ          0.4840  -67.0550  -45.1360 N.4       8 LYL4        0.0000 
     58 NZ         -2.6870  -66.7150  -47.4430 N.4       5 LYP4        0.0000 
     59 N           0.4945  -67.9920  -46.2625 N.am      1 SEC2        0.0000 
     60 N           0.4840  -67.0550  -45.1360 N.am      7 SEL2        0.0000 
     61 CA          6.2598  -67.8618  -39.3910 C.3       3 GLC5        0.0000 
     62 CA          6.7200  -67.8390  -41.0750 C.3       9 GLL5        0.0000 
     63 CA          5.5880  -67.1550  -37.7190 C.3       6 GLP5        0.0000 
     64 CA          6.6326  -68.1056  -43.0888 C.3       3 GLC5        0.0000 
     65 CA          7.1020  -68.1780  -44.9400 C.3       6 GLP5        0.0000 
     66 CA          5.3933  -66.9870  -39.5708 C.3       3 GLC5        0.0000 
     67 CA          5.3950  -67.4980  -41.4120 C.3       9 GLL5        0.0000 
     68 CA          5.2631  -69.7026  -40.6077 C.3       3 GLC5        0.0000 
     69 CA          4.3630  -71.3720  -39.9780 C.3       6 GLP5        0.0000 
     70 CA          2.9604  -66.4667  -40.7476 C.3       3 GLC5        0.0000 
     71 CA          1.5220  -66.6600  -39.8780 C.3       6 GLP5        0.0000 
     72 CA          6.0970  -66.2615  -39.3278 C.3       3 GLC5        0.0000 
     73 CA          7.2620  -65.5680  -40.7700 C.3       9 GLL5        0.0000 
     74 CA          7.3228  -63.9690  -42.2736 C.3       3 GLC5        0.0000 
     75 CA          5.9500  -65.1680  -41.1030 C.3       9 GLL5        0.0000 
     76 CA          8.5530  -63.4110  -43.5030 C.3       6 GLP5        0.0000 
     77 CA          1.6415  -66.1128  -41.6908 C.3       3 GLC5        0.0000 
@<TRIPOS>BOND
@<TRIPOS>SUBSTRUCTURE
     1 SEC2        6 GROUP        1 X    SEC  0     ROOT SEC X 2
     2 LYC4       39 GROUP        1 X    LYC  0     **** LYC X 4
     3 GLC5        1 GROUP        1 X    GLC  0     **** GLC X 6
     4 SEP2        8 GROUP        1 Y    SEP  0     ROOT SEP Y 9
     5 LYP4       41 GROUP        1 Y    LYP  0     **** LYP Y 11
     6 GLP5        3 GROUP        1 Y    GLP  0     **** GLP Y 13
     7 SEL2        7 GROUP        1 Z    SEL  0     ROOT SEL Z 16
     8 LYL4       40 GROUP        1 Z    LYL  0     **** LYL Z 18
     9 GLL5        2 GROUP        1 Z    GLL  0     **** GLL Z 20
@<TRIPOS>SET

