#    Name: 2oga_PGU_3_ligand
#    Modification time : Tue Mar 25 22:31:51 2014

@<TRIPOS>MOLECULE
2oga_PGU_3_ligand
   39    39     1     0     0
SMALL
NO_CHARGES


@<TRIPOS>ATOM
      1 N1          7.6110  -66.8780  -40.7640 N.ar      1 PGU1023     0.0000 
      2 C2          6.7200  -67.8390  -41.0750 C.ar      1 PGU1023     0.0000 
      3 C2A         7.1430  -69.2980  -41.0510 C.3       1 PGU1023     0.0000 
      4 C3          5.3950  -67.4980  -41.4120 C.ar      1 PGU1023     0.0000 
      5 O3          4.5170  -68.4650  -41.7180 O.3       1 PGU1023     0.0000 
      6 C4          5.0020  -66.1400  -41.4330 C.ar      1 PGU1023     0.0000 
      7 C4A         3.5990  -65.7280  -41.8120 C.3       1 PGU1023     0.0000 
      8 C5          5.9500  -65.1680  -41.1030 C.ar      1 PGU1023     0.0000 
      9 C6          7.2620  -65.5680  -40.7700 C.ar      1 PGU1023     0.0000 
     10 C5A         5.5790  -63.6860  -41.1520 C.3       1 PGU1023     0.0000 
     11 O4P         4.8410  -63.3330  -40.0800 O.3       1 PGU1023     0.0000 
     12 P           3.6850  -62.2250  -40.3220 P.3       1 PGU1023     0.0000 
     13 O1P         2.5040  -62.8790  -41.2130 O.co2     1 PGU1023     0.0000 
     14 O2P         4.2940  -60.9630  -41.1040 O.co2     1 PGU1023     0.0000 
     15 O3P         3.0950  -61.7320  -38.9070 O.co2     1 PGU1023     0.0000 
     16 N           3.1370  -66.5550  -42.9180 N.4       1 PGU1023     0.0000 
     17 CA          2.1280  -66.2090  -43.6330 C.3       1 PGU1023     0.0000 
     18 CB          1.3940  -64.9220  -43.3740 C.3       1 PGU1023     0.0000 
     19 CG          1.8430  -63.9370  -44.4610 C.3       1 PGU1023     0.0000 
     20 CD          1.2330  -62.5780  -44.2340 C.2       1 PGU1023     0.0000 
     21 OE1         1.4950  -61.9350  -43.1810 O.co2     1 PGU1023     0.0000 
     22 OE2         0.4910  -62.0600  -45.1200 O.co2     1 PGU1023     0.0000 
     23 C           1.6980  -67.0790  -44.7380 C.2       1 PGU1023     0.0000 
     24 O           2.5460  -67.8490  -45.2970 O.co2     1 PGU1023     0.0000 
     25 OXT         0.4840  -67.0550  -45.1360 O.co2     1 PGU1023     0.0000 
     26 H           3.6082  -64.6723  -42.0928 H         1 PGU1023     0.0000 
     27 H           2.9518  -65.8472  -40.9400 H         1 PGU1023     0.0000 
     28 H           7.9512  -64.8306  -40.5301 H         1 PGU1023     0.0000 
     29 H           5.0571  -63.5271  -42.1219 H         1 PGU1023     0.0000 
     30 H           6.5377  -63.1271  -41.2343 H         1 PGU1023     0.0000 
     31 H           1.2097  -66.8912  -42.7555 H         1 PGU1023     0.0000 
     32 H           1.6599  -64.5284  -42.4118 H         1 PGU1023     0.0000 
     33 H           0.3348  -65.0744  -43.4539 H         1 PGU1023     0.0000 
     34 H           1.5363  -64.3232  -45.4330 H         1 PGU1023     0.0000 
     35 H           2.9303  -63.8633  -44.4405 H         1 PGU1023     0.0000 
     36 H           7.8923  -69.4780  -41.6883 H         1 PGU1023     0.0000 
     37 H           7.4559  -69.5791  -40.1438 H         1 PGU1023     0.0000 
     38 H           6.3910  -69.9069  -41.3033 H         1 PGU1023     0.0000 
     39 H           3.7240  -68.2884  -41.1349 H         1 PGU1023     0.0000 
@<TRIPOS>BOND
     1    2    1 ar   
     2    9    1 ar   
     3    3    2 1    
     4    4    2 ar   
     5   36    3 1    
     6   37    3 1    
     7   38    3 1    
     8    5    4 1    
     9    6    4 ar   
    10   39    5 1    
    11    7    6 1    
    12    8    6 ar   
    13   16    7 1    
    14   26    7 1    
    15   27    7 1    
    16    9    8 ar   
    17   10    8 1    
    18   28    9 1    
    19   11   10 1    
    20   29   10 1    
    21   30   10 1    
    22   12   11 1    
    23   13   12 ar   
    24   14   12 ar   
    25   15   12 ar   
    26   17   16 1    
    27   18   17 1    
    28   23   17 1    
    29   31   17 1    
    30   19   18 1    
    31   32   18 1    
    32   33   18 1    
    33   20   19 1    
    34   34   19 1    
    35   35   19 1    
    36   21   20 ar   
    37   22   20 ar   
    38   24   23 ar   
    39   25   23 ar   
@<TRIPOS>SUBSTRUCTURE
     1 PGU1023     1 GROUP   
@<TRIPOS>SET

