#    Name: 1kht_AMP_2_INTS_M
#    Modification time : Tue Mar 25 10:01:22 2014

@<TRIPOS>MOLECULE
1kht_AMP_2_INTS_M
   42     0    12     0     0
SMALL
NO_CHARGES


@<TRIPOS>ATOM
      1 N          -9.5315   48.6625  122.2015 N.am      2 SEC2        0.0000 
      2 N         -10.6940   47.7600  122.0200 N.am     10 SEL2        0.0000 
      3 N          -8.3690   49.5650  122.3830 N.am      6 SEP2        0.0000 
      4 N          -8.5985   48.0645  122.8825 N.am      2 SEC2        0.0000 
      5 N          -8.8280   46.5640  123.3820 N.am     10 SEL2        0.0000 
      6 NZ        -11.5875   44.7420  124.3560 N.4       3 LYC4        0.0000 
      7 NZ        -11.1720   45.5450  123.1310 N.4      11 LYL4        0.0000 
      8 NZ        -12.0030   43.9390  125.5810 N.4       7 LYP4        0.0000 
      9 CA        -13.6075   47.1225  125.2860 C.3       4 GLC5        0.0000 
     10 CA        -12.1410   48.2000  124.6450 C.3      12 GLL5        0.0000 
     11 CA        -15.0740   46.0450  125.9270 C.3       8 GLP5        0.0000 
     12 CA         -9.9180   53.0785  125.3295 C.3       4 GLC5        0.0000 
     13 CA        -11.2170   51.6810  125.8020 C.3      12 GLL5        0.0000 
     14 CA         -8.6190   54.4760  124.8570 C.3       8 GLP5        0.0000 
     15 CA        -10.9605   51.4455  128.7480 C.3       4 GLC5        0.0000 
     16 CA        -10.7080   50.7470  126.8950 C.3      12 GLL5        0.0000 
     17 CA        -11.2130   52.1440  130.6010 C.3       8 GLP5        0.0000 
     18 N          -5.6615   50.2195  127.0190 N.am      2 SEC2        0.0000 
     19 N          -7.0260   50.3560  127.2870 N.am     10 SEL2        0.0000 
     20 N          -4.2970   50.0830  126.7510 N.am      6 SEP2        0.0000 
     21 CA         -6.3395   53.2930  130.3125 C.3       4 GLC5        0.0000 
     22 CA         -6.3220   52.4370  128.3080 C.3      12 GLL5        0.0000 
     23 CA         -6.3570   54.1490  132.3170 C.3       8 GLP5        0.0000 
     24 CA         -5.1215   53.7950  127.8325 C.3       4 GLC5        0.0000 
     25 CA         -3.9210   55.1530  127.3570 C.3       8 GLP5        0.0000 
     26 O          -4.6620   51.0990  127.5755 O.2       1 ALC1        0.0000 
     27 O          -5.0270   52.1150  128.4000 O.2       9 ALL1        0.0000 
     28 O          -4.2970   50.0830  126.7510 O.2       5 ALP1        0.0000 
     29 O          -4.0915   53.0220  128.8260 O.2       1 ALC1        0.0000 
     30 O          -3.1560   53.9290  129.2520 O.2       5 ALP1        0.0000 
     31 CA         -8.8855   52.6940  129.9340 C.3       4 GLC5        0.0000 
     32 CA         -8.1120   53.9880  128.6990 C.3      12 GLL5        0.0000 
     33 CA         -9.6590   51.4000  131.1690 C.3       8 GLP5        0.0000 
     34 CA         -7.2345   54.0685  130.5080 C.3       4 GLC5        0.0000 
     35 CA         -8.3655   54.2320  126.7780 C.3       4 GLC5        0.0000 
     36 CA         -8.9235   56.0425  128.6105 C.3       4 GLC5        0.0000 
     37 CA         -9.7350   58.0970  128.5220 C.3       8 GLP5        0.0000 
     38 CA         -9.6315   50.8327  124.2620 C.3       4 GLC5        0.0000 
     39 CA         -7.8330   50.4540  123.2830 C.3       8 GLP5        0.0000 
     40 CA         -8.8055   51.5757  129.4527 C.3       4 GLC5        0.0000 
     41 CA         -8.6270   51.9210  127.7020 C.3      12 GLL5        0.0000 
     42 CA         -8.2855   53.1137  126.2968 C.3       4 GLC5        0.0000 
@<TRIPOS>BOND
@<TRIPOS>SUBSTRUCTURE
     1 ALC1       26 GROUP        1 X    ALC  0     ROOT ALC X 1
     2 SEC2        1 GROUP        1 X    SEC  0     **** SEC X 2
     3 LYC4        6 GROUP        1 X    LYC  0     **** LYC X 4
     4 GLC5        9 GROUP        1 X    GLC  0     **** GLC X 6
     5 ALP1       28 GROUP        1 Y    ALP  0     ROOT ALP Y 8
     6 SEP2        3 GROUP        1 Y    SEP  0     **** SEP Y 9
     7 LYP4        8 GROUP        1 Y    LYP  0     **** LYP Y 11
     8 GLP5       11 GROUP        1 Y    GLP  0     **** GLP Y 13
     9 ALL1       27 GROUP        1 Z    ALL  0     ROOT ALL Z 15
    10 SEL2        2 GROUP        1 Z    SEL  0     **** SEL Z 16
    11 LYL4        7 GROUP        1 Z    LYL  0     **** LYL Z 18
    12 GLL5       10 GROUP        1 Z    GLL  0     **** GLL Z 20
@<TRIPOS>SET

