#    Name: 1kht_AMP_2_ligand
#    Modification time : Tue Mar 25 10:01:22 2014

@<TRIPOS>MOLECULE
1kht_AMP_2_ligand
   35    37     1     0     0
SMALL
NO_CHARGES


@<TRIPOS>ATOM
      1 P         -10.2790   46.9180  123.1950 P.3       1 AMP3193     0.0000 
      2 O1P       -10.6940   47.7600  122.0200 O.co2     1 AMP3193     0.0000 
      3 O2P        -8.8280   46.5640  123.3820 O.co2     1 AMP3193     0.0000 
      4 O3P       -11.1720   45.5450  123.1310 O.co2     1 AMP3193     0.0000 
      5 O5'       -10.8110   47.6160  124.5830 O.3       1 AMP3193     0.0000 
      6 C5'       -12.1410   48.2000  124.6450 C.3       1 AMP3193     0.0000 
      7 C4'       -12.1390   49.5110  125.4530 C.3       1 AMP3193     0.0000 
      8 O4'       -11.2180   49.4120  126.5840 O.3       1 AMP3193     0.0000 
      9 C3'       -11.6430   50.7420  124.6800 C.3       1 AMP3193     0.0000 
     10 O3'       -12.6560   51.3760  123.8760 O.3       1 AMP3193     0.0000 
     11 C2'       -11.2170   51.6810  125.8020 C.3       1 AMP3193     0.0000 
     12 O2'       -12.3170   52.4320  126.3380 O.3       1 AMP3193     0.0000 
     13 C1'       -10.7080   50.7470  126.8950 C.3       1 AMP3193     0.0000 
     14 N9         -9.2200   50.8550  127.1200 N.pl3     1 AMP3193     0.0000 
     15 C8         -8.2460   49.9330  126.9140 C.2       1 AMP3193     0.0000 
     16 N7         -7.0260   50.3560  127.2870 N.2       1 AMP3193     0.0000 
     17 C5         -7.2770   51.5820  127.7710 C.ar      1 AMP3193     0.0000 
     18 C6         -6.3220   52.4370  128.3080 C.ar      1 AMP3193     0.0000 
     19 N6         -5.0270   52.1150  128.4000 N.pl3     1 AMP3193     0.0000 
     20 N1         -6.8080   53.6390  128.7510 N.ar      1 AMP3193     0.0000 
     21 C2         -8.1120   53.9880  128.6990 C.ar      1 AMP3193     0.0000 
     22 N3         -9.0170   53.1390  128.1820 N.ar      1 AMP3193     0.0000 
     23 C4         -8.6270   51.9210  127.7020 C.ar      1 AMP3193     0.0000 
     24 H         -12.8535   47.5141  125.1224 H         1 AMP3193     0.0000 
     25 H         -12.5217   48.4270  123.6403 H         1 AMP3193     0.0000 
     26 H         -13.1276   49.7183  125.8165 H         1 AMP3193     0.0000 
     27 H         -10.7724   50.4701  124.1394 H         1 AMP3193     0.0000 
     28 H         -10.4137   52.2773  125.4762 H         1 AMP3193     0.0000 
     29 H         -11.2214   51.0928  127.8326 H         1 AMP3193     0.0000 
     30 H          -8.4245   49.0330  126.5242 H         1 AMP3193     0.0000 
     31 H          -4.4261   52.8145  128.7868 H         1 AMP3193     0.0000 
     32 H          -4.7759   51.2037  128.0737 H         1 AMP3193     0.0000 
     33 H          -8.4142   54.9185  129.0614 H         1 AMP3193     0.0000 
     34 H         -13.0643   52.0673  124.4722 H         1 AMP3193     0.0000 
     35 H         -12.6460   51.8918  127.1125 H         1 AMP3193     0.0000 
@<TRIPOS>BOND
     1    2    1 ar   
     2    3    1 ar   
     3    4    1 ar   
     4    5    1 1    
     5    6    5 1    
     6    7    6 1    
     7   24    6 1    
     8   25    6 1    
     9    8    7 1    
    10    9    7 1    
    11   26    7 1    
    12   13    8 1    
    13   10    9 1    
    14   11    9 1    
    15   27    9 1    
    16   34   10 1    
    17   12   11 1    
    18   13   11 1    
    19   28   11 1    
    20   35   12 1    
    21   14   13 1    
    22   29   13 1    
    23   15   14 1    
    24   23   14 1    
    25   16   15 2    
    26   30   15 1    
    27   17   16 1    
    28   18   17 ar   
    29   23   17 ar   
    30   19   18 1    
    31   20   18 ar   
    32   31   19 1    
    33   32   19 1    
    34   21   20 ar   
    35   22   21 ar   
    36   33   21 1    
    37   23   22 ar   
@<TRIPOS>SUBSTRUCTURE
     1 AMP3193     1 GROUP   
@<TRIPOS>SET

