#    Name: 3UWR_3_CAVITY_N1_6.mol2
#    Modification time : Tue Mar 11 09:28:07 2014

@<TRIPOS>MOLECULE
3UWR_3_CAVITY_N1_6.mol2
   69     0     5     0     0
SMALL
NO_CHARGES


@<TRIPOS>ATOM
      1 O          38.9357   44.6445  138.2076 O.2       2 ALA2        0.0000 
      2 O          39.3690   43.8990  136.9802 O.2       2 ALA2        0.0000 
      3 CA         40.1808   42.9686  137.8319 C.3       4 GLY6        0.0000 
      4 OG         40.6141   42.2231  136.6046 O.2       1 SER1        0.0000 
      5 N          42.4290   49.9615  138.0442 N.2       2 ALA2        0.0000 
      6 N          43.2408   49.0311  138.8959 N.2       2 ALA2        0.0000 
      7 O          42.0505   50.1463  135.9651 O.2       2 ALA2        0.0000 
      8 O          42.8623   49.2159  136.8168 O.2       2 ALA2        0.0000 
      9 N          43.6741   48.2856  137.6685 N.2       2 ALA2        0.0000 
     10 O          44.1074   47.5400  136.4411 O.2       2 ALA2        0.0000 
     11 N          40.1203   45.5548  138.0728 N.2       2 ALA2        0.0000 
     12 O          39.7418   45.7396  135.9937 O.2       2 ALA2        0.0000 
     13 O          40.5536   44.8092  136.8455 O.2       2 ALA2        0.0000 
     14 N          41.3654   43.8789  137.6972 N.2       2 ALA2        0.0000 
     15 CA         42.1772   42.9485  138.5489 C.3       4 GLY6        0.0000 
     16 CA         42.9890   42.0182  139.4006 C.3       4 GLY6        0.0000 
     17 CA         44.6126   40.1575  141.1040 C.3       4 GLY6        0.0000 
     18 OG         40.9869   44.0637  135.6181 O.2       1 SER1        0.0000 
     19 NZ         41.7987   43.1333  136.4698 N.2       3 LYS4        0.0000 
     20 CA         42.6105   42.2030  137.3215 C.3       4 GLY6        0.0000 
     21 CA         44.2340   40.3423  139.0250 C.3       4 GLY6        0.0000 
     22 CA         45.0458   39.4119  139.8767 C.3       4 GLY6        0.0000 
     23 OG         40.4327   49.9816  137.3272 O.2       1 SER1        0.0000 
     24 CA         41.2445   49.0512  138.1789 C.3       4 GLY6        0.0000 
     25 N          42.0563   48.1209  139.0306 N.2       2 ALA2        0.0000 
     26 CA         40.0541   50.1664  135.2481 C.3       4 GLY6        0.0000 
     27 O          40.8659   49.2360  136.0998 O.2       2 ALA2        0.0000 
     28 DU         41.6777   48.3057  136.9516 H         5 CUB7        0.0000 
     29 N          42.4895   47.3753  137.8033 N.2       2 ALA2        0.0000 
     30 N          41.2992   48.4905  134.8725 N.2       2 ALA2        0.0000 
     31 N          42.1110   47.5601  135.7242 N.2       2 ALA2        0.0000 
     32 N          42.9228   46.6298  136.5759 N.2       2 ALA2        0.0000 
     33 O          43.7346   45.6994  137.4276 O.2       2 ALA2        0.0000 
     34 O          44.5464   44.7690  138.2793 O.2       2 ALA2        0.0000 
     35 CA         45.3582   43.8387  139.1311 C.3       4 GLY6        0.0000 
     36 CA         46.1700   42.9083  139.9828 C.3       4 GLY6        0.0000 
     37 N          43.3560   45.8842  135.3486 N.2       2 ALA2        0.0000 
     38 CA         44.1678   44.9538  136.2003 C.3       4 GLY6        0.0000 
     39 CA         44.9796   44.0235  137.0520 C.3       4 GLY6        0.0000 
     40 CA         45.7914   43.0931  137.9037 C.3       4 GLY6        0.0000 
     41 CA         46.6032   42.1628  138.7554 C.3       4 GLY6        0.0000 
     42 NZ         45.4129   43.2779  135.8246 N.2       3 LYS4        0.0000 
     43 O          46.2247   42.3476  136.6763 O.2       2 ALA2        0.0000 
     44 CA         38.0635   48.1611  137.5967 C.3       4 GLY6        0.0000 
     45 CA         38.8753   47.2307  138.4485 C.3       4 GLY6        0.0000 
     46 O          38.4967   47.4155  136.3694 O.2       2 ALA2        0.0000 
     47 O          39.3085   46.4852  137.2211 O.2       2 ALA2        0.0000 
     48 CA         39.2481   49.0713  137.4620 C.3       4 GLY6        0.0000 
     49 CA         40.0599   48.1410  138.3137 C.3       4 GLY6        0.0000 
     50 CA         38.8695   49.2561  135.3829 C.3       4 GLY6        0.0000 
     51 O          39.6813   48.3258  136.2346 O.2       2 ALA2        0.0000 
     52 DU         40.4931   47.3954  137.0863 H         5 CUB7        0.0000 
     53 N          41.3049   46.4651  137.9380 N.2       2 ALA2        0.0000 
     54 N          43.7403   43.6740  140.4932 N.2       2 ALA2        0.0000 
     55 CA         40.1146   47.5802  135.0073 C.3       4 GLY6        0.0000 
     56 O          40.9264   46.6499  135.8590 O.2       2 ALA2        0.0000 
     57 N          41.7382   45.7195  136.7107 N.2       2 ALA2        0.0000 
     58 N          42.5500   44.7891  137.5624 N.2       2 ALA2        0.0000 
     59 N          43.3618   43.8588  138.4141 N.2       2 ALA2        0.0000 
     60 O          44.1736   42.9284  139.2658 O.2       2 ALA2        0.0000 
     61 CA         44.9854   41.9981  140.1175 C.3       4 GLY6        0.0000 
     62 CA         45.7972   41.0677  140.9693 C.3       4 GLY6        0.0000 
     63 CA         41.3597   45.9043  134.6316 C.3       4 GLY6        0.0000 
     64 NZ         42.1715   44.9739  135.4833 N.2       3 LYS4        0.0000 
     65 NZ         42.9832   44.0436  136.3350 N.2       3 LYS4        0.0000 
     66 CA         43.7950   43.1132  137.1868 C.3       4 GLY6        0.0000 
     67 CA         44.6068   42.1829  138.0385 C.3       4 GLY6        0.0000 
     68 CA         45.4186   41.2525  138.8902 C.3       4 GLY6        0.0000 
     69 NZ         46.2304   40.3222  139.7419 N.2       3 LYS4        0.0000 
@<TRIPOS>BOND
@<TRIPOS>SUBSTRUCTURE
     1 SER1        4 GROUP   
     2 ALA2        1 GROUP   
     3 LYS4       19 GROUP   
     4 GLY6        3 GROUP   
     5 CUB7       28 GROUP   
@<TRIPOS>SET

