#    Name: 3uwr_NAD_3_INTS_M
#    Modification time : Mon Mar 24 23:41:12 2014

@<TRIPOS>MOLECULE
3uwr_NAD_3_INTS_M
  122     0    12     0     0
SMALL
NO_CHARGES


@<TRIPOS>ATOM
      1 NZ         37.8530   45.8395  136.8255 N.4       3 LYC4        0.0000 
      2 NZ         38.8720   46.7580  137.4080 N.4      11 LYL4        0.0000 
      3 NZ         36.8640   44.8600  134.9140 N.4       7 LYP4        0.0000 
      4 N          37.8530   45.8395  136.8255 N.am      2 SEC2        0.0000 
      5 N          38.8720   46.7580  137.4080 N.am     10 SEL2        0.0000 
      6 N          36.8340   44.9210  136.2430 N.am      6 SEP2        0.0000 
      7 NZ         37.9755   47.0895  134.8235 N.4       3 LYC4        0.0000 
      8 NZ         38.3880   48.4090  135.4100 N.4      11 LYL4        0.0000 
      9 N          37.9755   47.0895  134.8235 N.am      2 SEC2        0.0000 
     10 N          38.3880   48.4090  135.4100 N.am     10 SEL2        0.0000 
     11 N          37.5630   45.7700  134.2370 N.am      6 SEP2        0.0000 
     12 CA         44.2125   45.9135  135.3915 C.3       4 GLC5        0.0000 
     13 CA         42.3650   45.9590  136.0930 C.3      12 GLL5        0.0000 
     14 CA         46.0600   45.8680  134.6900 C.3       8 GLP5        0.0000 
     15 N          40.4850   43.9045  133.8915 N.am      2 SEC2        0.0000 
     16 N          41.5480   44.6010  134.2700 N.am     10 SEL2        0.0000 
     17 N          39.4220   43.2080  133.5130 N.am      6 SEP2        0.0000 
     18 O          42.7850   44.2645  133.8510 O.2       1 ALC1        0.0000 
     19 O          41.5480   44.6010  134.2700 O.2       9 ALL1        0.0000 
     20 O          44.0220   43.9280  133.4320 O.2       5 ALP1        0.0000 
     21 O          42.4685   43.2155  133.9795 O.2       1 ALC1        0.0000 
     22 O          43.3890   41.8300  133.6890 O.2       5 ALP1        0.0000 
     23 CA         42.7935   41.5535  136.5575 C.3       4 GLC5        0.0000 
     24 CA         42.0170   43.6130  136.4400 C.3      12 GLL5        0.0000 
     25 CA         43.5700   39.4940  136.6750 C.3       8 GLP5        0.0000 
     26 N          40.6970   42.8005  134.5995 N.am      2 SEC2        0.0000 
     27 N          41.9720   42.3930  135.6860 N.am     10 SEL2        0.0000 
     28 O          42.9970   43.1605  134.5590 O.2       1 ALC1        0.0000 
     29 O          41.9720   42.3930  135.6860 O.2       9 ALL1        0.0000 
     30 O          42.6805   42.1115  134.6875 O.2       1 ALC1        0.0000 
     31 CA         44.7580   44.9400  135.6965 C.3       4 GLC5        0.0000 
     32 CA         43.4560   44.0120  136.7030 C.3      12 GLL5        0.0000 
     33 CA         45.3255   44.7330  137.4450 C.3       4 GLC5        0.0000 
     34 CA         47.1950   45.4540  138.1870 C.3       8 GLP5        0.0000 
     35 CA         43.1890   41.0425  139.6470 C.3       4 GLC5        0.0000 
     36 CA         45.0940   41.8550  139.1920 C.3      12 GLL5        0.0000 
     37 CA         41.2840   40.2300  140.1020 C.3       8 GLP5        0.0000 
     38 CA         45.4980   39.7685  137.9640 C.3       4 GLC5        0.0000 
     39 CA         46.2130   40.9310  139.4570 C.3      12 GLL5        0.0000 
     40 CA         44.7830   38.6060  136.4710 C.3       8 GLP5        0.0000 
     41 CA         47.5260   39.3330  138.6645 C.3       4 GLC5        0.0000 
     42 CA         48.8390   37.7350  137.8720 C.3       8 GLP5        0.0000 
     43 CA         47.8000   41.5270  140.0940 C.3       4 GLC5        0.0000 
     44 CA         49.3870   42.1230  140.7310 C.3       8 GLP5        0.0000 
     45 O          47.1910   39.1990  140.6265 O.2       1 ALC1        0.0000 
     46 O          46.3530   40.3390  140.6710 O.2       9 ALL1        0.0000 
     47 O          48.0290   38.0590  140.5820 O.2       5 ALP1        0.0000 
     48 N          48.4685   40.2085  138.6805 N.am      2 SEC2        0.0000 
     49 N          47.0830   40.7070  138.4460 N.am     10 SEL2        0.0000 
     50 N          49.8540   39.7100  138.9150 N.am      6 SEP2        0.0000 
     51 CA         48.6595   41.8580  135.9460 C.3       4 GLC5        0.0000 
     52 CA         46.9460   41.2900  137.2390 C.3      12 GLL5        0.0000 
     53 CA         50.3730   42.4260  134.6530 C.3       8 GLP5        0.0000 
     54 CA         46.7210   41.4895  135.1710 C.3       4 GLC5        0.0000 
     55 CA         46.4960   41.6890  133.1030 C.3       8 GLP5        0.0000 
     56 CA         45.8645   39.9480  136.8550 C.3       4 GLC5        0.0000 
     57 CA         47.8925   39.5125  137.5555 C.3       4 GLC5        0.0000 
     58 CA         48.6810   42.0000  137.8620 C.3       4 GLC5        0.0000 
     59 CA         50.4160   42.7100  138.4850 C.3       8 GLP5        0.0000 
     60 CA         47.0705   43.3720  137.7130 C.3       4 GLC5        0.0000 
     61 N          45.7700   41.0685  135.7630 N.am      2 SEC2        0.0000 
     62 N          45.9490   42.1360  136.9220 N.am     10 SEL2        0.0000 
     63 N          45.5910   40.0010  134.6040 N.am      6 SEP2        0.0000 
     64 N          40.2375   52.8470  137.9490 N.am      2 SEC2        0.0000 
     65 N          39.3780   51.7150  137.8420 N.am     10 SEL2        0.0000 
     66 N          41.0970   53.9790  138.0560 N.am      6 SEP2        0.0000 
     67 N          38.1065   51.7095  137.5145 N.am      2 SEC2        0.0000 
     68 N          36.8350   51.7040  137.1870 N.am      6 SEP2        0.0000 
     69 N          41.0435   51.3065  134.7740 N.am      2 SEC2        0.0000 
     70 N          40.8130   50.5480  135.9680 N.am     10 SEL2        0.0000 
     71 N          41.2740   52.0650  133.5800 N.am      6 SEP2        0.0000 
     72 CA         42.7150   52.1850  136.5750 C.3       4 GLC5        0.0000 
     73 CA         42.7360   50.8690  138.1800 C.3      12 GLL5        0.0000 
     74 CA         42.6940   53.5010  134.9700 C.3       8 GLP5        0.0000 
     75 CA         43.7405   48.4955  141.0390 C.3       4 GLC5        0.0000 
     76 CA         43.2770   50.3760  140.6130 C.3      12 GLL5        0.0000 
     77 CA         44.2040   46.6150  141.4650 C.3       8 GLP5        0.0000 
     78 CA         41.4785   49.3270  140.7705 C.3       4 GLC5        0.0000 
     79 CA         39.6800   48.2780  140.9280 C.3       8 GLP5        0.0000 
     80 N          44.8660   50.7870  142.7415 N.am      2 SEC2        0.0000 
     81 N          44.5340   50.3750  141.3110 N.am     10 SEL2        0.0000 
     82 N          45.1980   51.1990  144.1720 N.am      6 SEP2        0.0000 
     83 O          45.1970   49.9185  140.0770 O.2       1 ALC1        0.0000 
     84 O          44.5340   50.3750  141.3110 O.2       9 ALL1        0.0000 
     85 O          45.8600   49.4620  138.8430 O.2       5 ALP1        0.0000 
     86 CA         43.3135   51.1295  143.5065 C.3       4 GLC5        0.0000 
     87 CA         42.2220   50.9090  141.5570 C.3      12 GLL5        0.0000 
     88 CA         44.4050   51.3500  145.4560 C.3       8 GLP5        0.0000 
     89 N          43.8670   50.8955  143.5450 N.am      2 SEC2        0.0000 
     90 N          42.5360   50.5920  142.9180 N.am     10 SEL2        0.0000 
     91 O          41.7990   51.3060  143.9615 O.2       1 ALC1        0.0000 
     92 O          42.5360   50.5920  142.9180 O.2       9 ALL1        0.0000 
     93 O          41.0620   52.0200  145.0050 O.2       5 ALP1        0.0000 
     94 CA         44.0225   53.1535  140.9355 C.3       4 GLC5        0.0000 
     95 CA         42.2710   52.4060  141.3080 C.3      12 GLL5        0.0000 
     96 CA         45.7740   53.9010  140.5630 C.3       8 GLP5        0.0000 
     97 N          41.0675   55.5445  145.7920 N.am      2 SEC2        0.0000 
     98 N          40.3720   55.4690  144.8480 N.am     10 SEL2        0.0000 
     99 N          41.7630   55.6200  146.7360 N.am      6 SEP2        0.0000 
    100 CA         37.1710   55.8975  142.0340 C.3       4 GLC5        0.0000 
    101 CA         38.5360   54.2170  142.0250 C.3      12 GLL5        0.0000 
    102 CA         35.8060   57.5780  142.0430 C.3       8 GLP5        0.0000 
    103 CA         36.3400   53.8670  141.7765 C.3       4 GLC5        0.0000 
    104 CA         34.1440   53.5170  141.5280 C.3       8 GLP5        0.0000 
    105 CA         40.7200   43.0632  134.5387 C.3       4 GLC5        0.0000 
    106 CA         41.4590   44.8060  135.6890 C.3      12 GLL5        0.0000 
    107 CA         39.7020   41.9170  133.0130 C.3       8 GLP5        0.0000 
    108 CA         44.3113   40.8220  137.5967 C.3       4 GLC5        0.0000 
    109 CA         45.0110   42.4450  137.8450 C.3      12 GLL5        0.0000 
    110 CA         46.1238   43.8020  138.3528 C.3       4 GLC5        0.0000 
    111 CA         45.6032   42.2580  141.2397 C.3       4 GLC5        0.0000 
    112 CA         45.5530   43.1230  143.1550 C.3       8 GLP5        0.0000 
    113 CA         44.5422   52.3933  140.3060 C.3       4 GLC5        0.0000 
    114 CA         40.5628   50.5992  141.6637 C.3       4 GLC5        0.0000 
    115 CA         38.8790   49.5410  141.8950 C.3       8 GLP5        0.0000 
    116 CA         40.9888   55.9710  141.8970 C.3       4 GLC5        0.0000 
    117 CA         40.8220   53.8230  142.6340 C.3      12 GLL5        0.0000 
    118 CA         41.7680   57.8170  141.0290 C.3       8 GLP5        0.0000 
    119 CA         38.8062   55.3293  140.1750 C.3       4 GLC5        0.0000 
    120 CA         38.9800   56.8530  138.8780 C.3       8 GLP5        0.0000 
    121 CA         39.1150   51.3208  141.3530 C.3       4 GLC5        0.0000 
    122 CA         38.7290   53.3940  140.9190 C.3      12 GLL5        0.0000 
@<TRIPOS>BOND
@<TRIPOS>SUBSTRUCTURE
     1 ALC1       18 GROUP        1 X    ALC  0     ROOT ALC X 1
     2 SEC2        4 GROUP        1 X    SEC  0     **** SEC X 2
     3 LYC4        1 GROUP        1 X    LYC  0     **** LYC X 4
     4 GLC5       12 GROUP        1 X    GLC  0     **** GLC X 6
     5 ALP1       20 GROUP        1 Y    ALP  0     ROOT ALP Y 8
     6 SEP2        6 GROUP        1 Y    SEP  0     **** SEP Y 9
     7 LYP4        3 GROUP        1 Y    LYP  0     **** LYP Y 11
     8 GLP5       14 GROUP        1 Y    GLP  0     **** GLP Y 13
     9 ALL1       19 GROUP        1 Z    ALL  0     ROOT ALL Z 15
    10 SEL2        5 GROUP        1 Z    SEL  0     **** SEL Z 16
    11 LYL4        2 GROUP        1 Z    LYL  0     **** LYL Z 18
    12 GLL5       13 GROUP        1 Z    GLL  0     **** GLL Z 20
@<TRIPOS>SET

