#    Name: 3uwr_NAD_3_ligand
#    Modification time : Mon Mar 24 23:41:12 2014

@<TRIPOS>MOLECULE
3uwr_NAD_3_ligand
   70    74     1     0     0
SMALL
NO_CHARGES


@<TRIPOS>ATOM
      1 PA         39.2420   47.9790  136.5910 P.3       1 NAD288      0.0000 
      2 O1A        38.8720   46.7580  137.4080 O.co2     1 NAD288      0.0000 
      3 O2A        38.3880   48.4090  135.4100 O.co2     1 NAD288      0.0000 
      4 O5B        40.7470   47.7470  136.0780 O.3       1 NAD288      0.0000 
      5 C5B        41.6100   46.9870  136.9140 C.3       1 NAD288      0.0000 
      6 C4B        42.3650   45.9590  136.0930 C.3       1 NAD288      0.0000 
      7 O4B        43.4060   45.4150  136.9120 O.3       1 NAD288      0.0000 
      8 C3B        41.4590   44.8060  135.6890 C.3       1 NAD288      0.0000 
      9 O3B        41.5480   44.6010  134.2700 O.3       1 NAD288      0.0000 
     10 C2B        42.0170   43.6130  136.4400 C.3       1 NAD288      0.0000 
     11 O2B        41.9720   42.3930  135.6860 O.3       1 NAD288      0.0000 
     12 C1B        43.4560   44.0120  136.7030 C.3       1 NAD288      0.0000 
     13 N9A        43.9440   43.2360  137.8620 N.pl3     1 NAD288      0.0000 
     14 C8A        43.3590   43.1620  139.0760 C.2       1 NAD288      0.0000 
     15 N7A        44.0510   42.3310  139.8940 N.2       1 NAD288      0.0000 
     16 C5A        45.0940   41.8550  139.1920 C.ar      1 NAD288      0.0000 
     17 C6A        46.2130   40.9310  139.4570 C.ar      1 NAD288      0.0000 
     18 N6A        46.3530   40.3390  140.6710 N.pl3     1 NAD288      0.0000 
     19 N1A        47.0830   40.7070  138.4460 N.ar      1 NAD288      0.0000 
     20 C2A        46.9460   41.2900  137.2390 C.ar      1 NAD288      0.0000 
     21 N3A        45.9490   42.1360  136.9220 N.ar      1 NAD288      0.0000 
     22 C4A        45.0110   42.4450  137.8450 C.ar      1 NAD288      0.0000 
     23 O3         39.3540   49.2140  137.6290 O.3       1 NAD288      0.0000 
     24 PN         40.2220   50.5530  137.3700 P.3       1 NAD288      0.0000 
     25 O1N        39.3780   51.7150  137.8420 O.co2     1 NAD288      0.0000 
     26 O2N        40.8130   50.5480  135.9680 O.co2     1 NAD288      0.0000 
     27 O5D        41.4220   50.3690  138.4340 O.3       1 NAD288      0.0000 
     28 C5D        42.7360   50.8690  138.1800 C.3       1 NAD288      0.0000 
     29 C4D        43.3440   51.3950  139.4850 C.3       1 NAD288      0.0000 
     30 O4D        42.6050   52.5420  139.9250 O.3       1 NAD288      0.0000 
     31 C3D        43.2770   50.3760  140.6130 C.3       1 NAD288      0.0000 
     32 O3D        44.5340   50.3750  141.3110 O.3       1 NAD288      0.0000 
     33 C2D        42.2220   50.9090  141.5570 C.3       1 NAD288      0.0000 
     34 O2D        42.5360   50.5920  142.9180 O.3       1 NAD288      0.0000 
     35 C1D        42.2710   52.4060  141.3080 C.3       1 NAD288      0.0000 
     36 N1N        40.9790   53.0340  141.5580 N.pl3     1 NAD288      0.0000 
     37 C2N        40.8220   53.8230  142.6340 C.ar      1 NAD288      0.0000 
     38 C3N        39.5970   54.4270  142.8960 C.ar      1 NAD288      0.0000 
     39 C7N        39.4250   55.3020  144.1010 C.2       1 NAD288      0.0000 
     40 O7N        40.3720   55.4690  144.8480 O.2       1 NAD288      0.0000 
     41 N7N        38.2430   55.8720  144.3260 N.am      1 NAD288      0.0000 
     42 C4N        38.5360   54.2170  142.0250 C.ar      1 NAD288      0.0000 
     43 C5N        38.7290   53.3940  140.9190 C.ar      1 NAD288      0.0000 
     44 C6N        39.9730   52.8070  140.7030 C.ar      1 NAD288      0.0000 
     45 H          41.0510   46.4506  137.6951 H         1 NAD288      0.0000 
     46 H          42.3502   47.6240  137.4206 H         1 NAD288      0.0000 
     47 H          42.7593   46.4186  135.2199 H         1 NAD288      0.0000 
     48 H          40.4832   45.0056  136.0272 H         1 NAD288      0.0000 
     49 H          41.5224   43.5452  137.3830 H         1 NAD288      0.0000 
     50 H          44.0140   43.7635  135.8193 H         1 NAD288      0.0000 
     51 H          42.5451   43.6420  139.3345 H         1 NAD288      0.0000 
     52 H          45.6467   40.5491  141.3471 H         1 NAD288      0.0000 
     53 H          47.1499   39.7452  140.7817 H         1 NAD288      0.0000 
     54 H          47.6744   41.0662  136.4878 H         1 NAD288      0.0000 
     55 H          42.7263   51.6946  137.4615 H         1 NAD288      0.0000 
     56 H          43.4010   50.0902  137.7939 H         1 NAD288      0.0000 
     57 H          44.3723   51.6513  139.3141 H         1 NAD288      0.0000 
     58 H          42.9956   49.4509  140.2445 H         1 NAD288      0.0000 
     59 H          41.2759   50.5486  141.2414 H         1 NAD288      0.0000 
     60 H          43.0352   52.8240  141.9227 H         1 NAD288      0.0000 
     61 H          41.6109   53.9968  143.2896 H         1 NAD288      0.0000 
     62 H          37.5396   55.7147  143.6329 H         1 NAD288      0.0000 
     63 H          38.1652   56.4061  145.1679 H         1 NAD288      0.0000 
     64 H          37.6310   54.6571  142.1913 H         1 NAD288      0.0000 
     65 H          37.9575   53.2205  140.2652 H         1 NAD288      0.0000 
     66 H          40.0968   52.1977  139.8731 H         1 NAD288      0.0000 
     67 H          42.5029   44.3552  134.1035 H         1 NAD288      0.0000 
     68 H          42.6565   42.5084  134.9662 H         1 NAD288      0.0000 
     69 H          45.0887   49.6865  140.8438 H         1 NAD288      0.0000 
     70 H          41.9445   51.1846  143.4647 H         1 NAD288      0.0000 
@<TRIPOS>BOND
     1    2    1 ar   
     2    3    1 ar   
     3    4    1 1    
     4   23    1 1    
     5    5    4 1    
     6    6    5 1    
     7   45    5 1    
     8   46    5 1    
     9    7    6 1    
    10    8    6 1    
    11   47    6 1    
    12   12    7 1    
    13    9    8 1    
    14   10    8 1    
    15   48    8 1    
    16   67    9 1    
    17   11   10 1    
    18   12   10 1    
    19   49   10 1    
    20   68   11 1    
    21   13   12 1    
    22   50   12 1    
    23   14   13 1    
    24   22   13 1    
    25   15   14 2    
    26   51   14 1    
    27   16   15 1    
    28   17   16 ar   
    29   22   16 ar   
    30   18   17 1    
    31   19   17 ar   
    32   52   18 1    
    33   53   18 1    
    34   20   19 ar   
    35   21   20 ar   
    36   54   20 1    
    37   22   21 ar   
    38   24   23 1    
    39   25   24 ar   
    40   26   24 ar   
    41   27   24 1    
    42   28   27 1    
    43   29   28 1    
    44   55   28 1    
    45   56   28 1    
    46   30   29 1    
    47   31   29 1    
    48   57   29 1    
    49   35   30 1    
    50   32   31 1    
    51   33   31 1    
    52   58   31 1    
    53   69   32 1    
    54   34   33 1    
    55   35   33 1    
    56   59   33 1    
    57   70   34 1    
    58   36   35 1    
    59   60   35 1    
    60   37   36 ar   
    61   44   36 ar   
    62   38   37 ar   
    63   61   37 1    
    64   39   38 1    
    65   42   38 ar   
    66   40   39 2    
    67   41   39 am   
    68   62   41 1    
    69   63   41 1    
    70   43   42 ar   
    71   64   42 1    
    72   44   43 ar   
    73   65   43 1    
    74   66   44 1    
@<TRIPOS>SUBSTRUCTURE
     1 NAD288      1 GROUP   
@<TRIPOS>SET

