#    Name: 3r9h_Z67_1_INTS_M
#    Modification time : Tue Mar 25 11:18:01 2014

@<TRIPOS>MOLECULE
3r9h_Z67_1_INTS_M
   65     0     9     0     0
SMALL
NO_CHARGES


@<TRIPOS>ATOM
      1 CA        -65.8180  -11.4240  -52.2175 C.3       3 GLC5        0.0000 
      2 CA        -66.4650   -9.7470  -51.0020 C.3       9 GLL5        0.0000 
      3 CA        -65.1710  -13.1010  -53.4330 C.3       6 GLP5        0.0000 
      4 N         -64.2900  -11.1275  -51.6880 N.am      2 SEC2        0.0000 
      5 N         -65.3230  -10.4740  -50.6790 N.am      8 SEL2        0.0000 
      6 N         -63.2570  -11.7810  -52.6970 N.am      5 SEP2        0.0000 
      7 CA        -65.8875  -10.1075  -46.8560 C.3       3 GLC5        0.0000 
      8 CA        -65.9050   -9.1300  -48.5540 C.3       9 GLL5        0.0000 
      9 CA        -65.8700  -11.0850  -45.1580 C.3       6 GLP5        0.0000 
     10 CA        -65.1470   -8.1080  -49.8885 C.3       3 GLC5        0.0000 
     11 CA        -64.3890   -7.0860  -51.2230 C.3       6 GLP5        0.0000 
     12 O         -66.9170  -10.4770  -53.3375 O.2       1 ALC1        0.0000 
     13 O         -67.0380   -9.8380  -52.2680 O.2       7 ALL1        0.0000 
     14 O         -66.7960  -11.1160  -54.4070 O.2       4 ALP1        0.0000 
     15 O         -62.8810  -11.3385  -49.6795 O.2       1 ALC1        0.0000 
     16 O         -63.7650  -10.8060  -48.9430 O.2       7 ALL1        0.0000 
     17 O         -61.9970  -11.8710  -50.4160 O.2       4 ALP1        0.0000 
     18 CA        -63.0900   -7.8760  -48.1440 C.3       3 GLC5        0.0000 
     19 CA        -63.2230   -9.5230  -46.9730 C.3       9 GLL5        0.0000 
     20 CA        -62.9570   -6.2290  -49.3150 C.3       6 GLP5        0.0000 
     21 N         -59.3385   -8.3665  -45.8795 N.am      2 SEC2        0.0000 
     22 N         -59.3380   -9.3120  -44.6450 N.am      8 SEL2        0.0000 
     23 N         -59.3390   -7.4210  -47.1140 N.am      5 SEP2        0.0000 
     24 O         -61.2975   -7.9830  -43.5090 O.2       1 ALC1        0.0000 
     25 O         -61.2970   -9.2300  -42.9570 O.2       7 ALL1        0.0000 
     26 O         -61.2980   -6.7360  -44.0610 O.2       4 ALP1        0.0000 
     27 N         -58.6485  -11.9140  -42.8940 N.am      2 SEC2        0.0000 
     28 N         -60.1180  -11.4690  -43.5560 N.am      8 SEL2        0.0000 
     29 N         -57.1790  -12.3590  -42.2320 N.am      5 SEP2        0.0000 
     30 CA        -71.0265   -4.0985  -49.3435 C.3       3 GLC5        0.0000 
     31 CA        -71.6840   -5.7540  -48.2420 C.3       9 GLL5        0.0000 
     32 CA        -70.3690   -2.4430  -50.4450 C.3       6 GLP5        0.0000 
     33 CA        -66.2835   -3.4930  -47.6410 C.3       3 GLC5        0.0000 
     34 CA        -67.5660   -5.1510  -47.4420 C.3       9 GLL5        0.0000 
     35 CA        -65.0010   -1.8350  -47.8400 C.3       6 GLP5        0.0000 
     36 CA        -67.0280   -4.6465  -49.4100 C.3       3 GLC5        0.0000 
     37 CA        -66.4900   -4.1420  -51.3780 C.3       6 GLP5        0.0000 
     38 CA        -71.5040   -8.2575  -50.8100 C.3       3 GLC5        0.0000 
     39 CA        -71.1790   -7.8840  -49.2480 C.3       9 GLL5        0.0000 
     40 CA        -71.8290   -8.6310  -52.3720 C.3       6 GLP5        0.0000 
     41 CA        -67.6683  -10.7125  -50.5565 C.3       3 GLC5        0.0000 
     42 CA        -66.9160   -8.9650  -49.9820 C.3       9 GLL5        0.0000 
     43 CA        -68.6460  -12.0690  -50.6210 C.3       6 GLP5        0.0000 
     44 CA        -65.5397   -8.2210  -50.8575 C.3       3 GLC5        0.0000 
     45 CA        -60.5345  -12.0907  -48.5127 C.3       3 GLC5        0.0000 
     46 CA        -61.3170  -11.5430  -46.3140 C.3       9 GLL5        0.0000 
     47 CA        -59.3530  -12.5590  -50.1350 C.3       6 GLP5        0.0000 
     48 CA        -64.2315  -11.1415  -46.3987 C.3       3 GLC5        0.0000 
     49 CA        -62.1150  -11.7020  -47.4670 C.3       9 GLL5        0.0000 
     50 CA        -60.1451  -10.4096  -47.3920 C.3       3 GLC5        0.0000 
     51 CA        -58.5340   -9.4910  -48.0960 C.3       6 GLP5        0.0000 
     52 CA        -64.2291  -10.3893  -45.7379 C.3       3 GLC5        0.0000 
     53 CA        -62.4290   -9.3620  -45.8210 C.3       9 GLL5        0.0000 
     54 CA        -61.9015   -7.6188  -46.3075 C.3       3 GLC5        0.0000 
     55 CA        -60.9770   -5.7950  -46.2180 C.3       6 GLP5        0.0000 
     56 CA        -70.1950   -3.1052  -48.3203 C.3       3 GLC5        0.0000 
     57 CA        -69.8470   -4.3590  -47.3140 C.3       9 GLL5        0.0000 
     58 CA        -69.8460   -1.7510  -49.1900 C.3       6 GLP5        0.0000 
     59 CA        -69.0375   -3.5010  -48.3803 C.3       3 GLC5        0.0000 
     60 CA        -68.8920   -5.3510  -47.6990 C.3       9 GLL5        0.0000 
     61 CA        -70.9480   -7.9916  -47.2117 C.3       3 GLC5        0.0000 
     62 CA        -71.1750   -8.8390  -45.6020 C.3       6 GLP5        0.0000 
     63 CA        -72.5867   -7.6925  -48.2729 C.3       3 GLC5        0.0000 
     64 CA        -70.7320   -6.7580  -48.6290 C.3       9 GLL5        0.0000 
     65 CA        -73.9800   -8.3150  -47.7040 C.3       6 GLP5        0.0000 
@<TRIPOS>BOND
@<TRIPOS>SUBSTRUCTURE
     1 ALC1       12 GROUP        1 X    ALC  0     ROOT ALC X 1
     2 SEC2        4 GROUP        1 X    SEC  0     **** SEC X 2
     3 GLC5        1 GROUP        1 X    GLC  0     **** GLC X 6
     4 ALP1       14 GROUP        1 Y    ALP  0     ROOT ALP Y 8
     5 SEP2        6 GROUP        1 Y    SEP  0     **** SEP Y 9
     6 GLP5        3 GROUP        1 Y    GLP  0     **** GLP Y 13
     7 ALL1       13 GROUP        1 Z    ALL  0     ROOT ALL Z 15
     8 SEL2        5 GROUP        1 Z    SEL  0     **** SEL Z 16
     9 GLL5        2 GROUP        1 Z    GLL  0     **** GLL Z 20
@<TRIPOS>SET

