#    Name: 3r9h_Z67_1_ligand
#    Modification time : Tue Mar 25 11:18:01 2014

@<TRIPOS>MOLECULE
3r9h_Z67_1_ligand
   41    43     1     0     0
SMALL
NO_CHARGES


@<TRIPOS>ATOM
      1 C1        -66.9160   -8.9650  -49.9820 C.2       1 Z67606      0.0000 
      2 C2        -66.4650   -9.7470  -51.0020 C.2       1 Z67606      0.0000 
      3 N3        -65.3230  -10.4740  -50.6790 N.2       1 Z67606      0.0000 
      4 C4        -64.9060  -10.2450  -49.4460 C.2       1 Z67606      0.0000 
      5 S5        -65.9050   -9.1300  -48.5540 S.3       1 Z67606      0.0000 
      6 C6        -68.0550   -8.0330  -49.9260 C.2       1 Z67606      0.0000 
      7 N7        -67.0380   -9.8380  -52.2680 N.pl3     1 Z67606      0.0000 
      8 N8        -63.7650  -10.8060  -48.9430 N.pl3     1 Z67606      0.0000 
      9 O9        -68.6460   -7.7390  -50.9680 O.2       1 Z67606      0.0000 
     10 C10       -61.4780  -10.3660  -45.5040 C.ar      1 Z67606      0.0000 
     11 C11       -61.3170  -11.5430  -46.3140 C.ar      1 Z67606      0.0000 
     12 C12       -62.1150  -11.7020  -47.4670 C.ar      1 Z67606      0.0000 
     13 C13       -63.0710  -10.6940  -47.8120 C.ar      1 Z67606      0.0000 
     14 C14       -63.2230   -9.5230  -46.9730 C.ar      1 Z67606      0.0000 
     15 C15       -62.4290   -9.3620  -45.8210 C.ar      1 Z67606      0.0000 
     16 S16       -60.4260  -10.1420  -44.1230 S.o2      1 Z67606      0.0000 
     17 O17       -59.3380   -9.3120  -44.6450 O.2       1 Z67606      0.0000 
     18 N18       -61.2970   -9.2300  -42.9570 N.pl3     1 Z67606      0.0000 
     19 O19       -60.1180  -11.4690  -43.5560 O.2       1 Z67606      0.0000 
     20 N20       -68.3350   -7.5150  -48.7200 N.am      1 Z67606      0.0000 
     21 C21       -71.2410   -4.5600  -47.5870 C.ar      1 Z67606      0.0000 
     22 C22       -71.6840   -5.7540  -48.2420 C.ar      1 Z67606      0.0000 
     23 C23       -70.7320   -6.7580  -48.6290 C.ar      1 Z67606      0.0000 
     24 C24       -69.3180   -6.5530  -48.3540 C.ar      1 Z67606      0.0000 
     25 C25       -68.8920   -5.3510  -47.6990 C.ar      1 Z67606      0.0000 
     26 C26       -69.8470   -4.3590  -47.3140 C.ar      1 Z67606      0.0000 
     27 F27       -67.5660   -5.1510  -47.4420 F         1 Z67606      0.0000 
     28 F28       -71.1790   -7.8840  -49.2480 F         1 Z67606      0.0000 
     29 H         -66.5822  -10.4500  -52.9143 H         1 Z67606      0.0000 
     30 H         -67.8559   -9.2835  -52.4217 H         1 Z67606      0.0000 
     31 H         -63.3002  -11.5541  -49.6839 H         1 Z67606      0.0000 
     32 H         -60.6355  -12.2429  -46.0500 H         1 Z67606      0.0000 
     33 H         -62.0183  -12.5245  -48.0552 H         1 Z67606      0.0000 
     34 H         -63.9142   -8.8207  -47.2331 H         1 Z67606      0.0000 
     35 H         -62.5311   -8.5489  -45.2286 H         1 Z67606      0.0000 
     36 H         -61.1749   -8.2382  -42.9934 H         1 Z67606      0.0000 
     37 H         -61.8654   -9.7545  -42.3232 H         1 Z67606      0.0000 
     38 H         -67.7321   -7.8674  -47.8712 H         1 Z67606      0.0000 
     39 H         -71.9161   -3.8514  -47.3140 H         1 Z67606      0.0000 
     40 H         -72.6701   -5.8929  -48.4337 H         1 Z67606      0.0000 
     41 H         -69.5407   -3.5117  -46.8473 H         1 Z67606      0.0000 
@<TRIPOS>BOND
     1    2    1 2    
     2    5    1 1    
     3    6    1 1    
     4    3    2 1    
     5    7    2 1    
     6    4    3 2    
     7    5    4 1    
     8    8    4 1    
     9    9    6 2    
    10   20    6 am   
    11   29    7 1    
    12   30    7 1    
    13   13    8 1    
    14   31    8 1    
    15   11   10 ar   
    16   15   10 ar   
    17   16   10 1    
    18   12   11 ar   
    19   32   11 1    
    20   13   12 ar   
    21   33   12 1    
    22   14   13 ar   
    23   15   14 ar   
    24   34   14 1    
    25   35   15 1    
    26   17   16 2    
    27   18   16 1    
    28   19   16 2    
    29   36   18 1    
    30   37   18 1    
    31   24   20 1    
    32   38   20 1    
    33   22   21 ar   
    34   26   21 ar   
    35   39   21 1    
    36   23   22 ar   
    37   40   22 1    
    38   24   23 ar   
    39   28   23 1    
    40   25   24 ar   
    41   26   25 ar   
    42   27   25 1    
    43   41   26 1    
@<TRIPOS>SUBSTRUCTURE
     1 Z67606      1 GROUP   
@<TRIPOS>SET

