#    Name: 4gid_0GH_3_INTS_M
#    Modification time : Mon Mar 24 22:14:59 2014

@<TRIPOS>MOLECULE
4gid_0GH_3_INTS_M
  114     0    12     0     0
SMALL
NO_CHARGES


@<TRIPOS>ATOM
      1 CA         87.0035   -3.1955   54.1885 C.3       4 GLC5        0.0000 
      2 CA         87.3490   -1.1410   54.1160 C.3      12 GLL5        0.0000 
      3 CA         86.6580   -5.2500   54.2610 C.3       8 GLP5        0.0000 
      4 CA         86.7945    1.7545   51.1495 C.3       4 GLC5        0.0000 
      5 CA         86.3810    0.4720   52.4940 C.3      12 GLL5        0.0000 
      6 CA         87.2080    3.0370   49.8050 C.3       8 GLP5        0.0000 
      7 CA         84.2005   -1.6005   54.6330 C.3       4 GLC5        0.0000 
      8 CA         85.0990   -0.0970   54.5570 C.3      12 GLL5        0.0000 
      9 CA         83.3020   -3.1040   54.7090 C.3       8 GLP5        0.0000 
     10 N          82.7100   -0.3070   57.4800 N.am      2 SEC2        0.0000 
     11 N          82.8950    0.0030   55.9610 N.am     10 SEL2        0.0000 
     12 N          82.5250   -0.6170   58.9990 N.am      6 SEP2        0.0000 
     13 CA         81.6665    1.9895   52.4605 C.3       4 GLC5        0.0000 
     14 CA         81.7810    1.6510   54.5670 C.3      12 GLL5        0.0000 
     15 CA         81.5520    2.3280   50.3540 C.3       8 GLP5        0.0000 
     16 CA         81.8035    4.7310   54.2165 C.3       4 GLC5        0.0000 
     17 CA         81.8550    3.0070   55.2810 C.3      12 GLL5        0.0000 
     18 CA         81.7520    6.4550   53.1520 C.3       8 GLP5        0.0000 
     19 CA         81.1380    2.1645   58.1825 C.3       4 GLC5        0.0000 
     20 CA         81.1080    3.0470   56.6160 C.3      12 GLL5        0.0000 
     21 CA         81.1680    1.2820   59.7490 C.3       8 GLP5        0.0000 
     22 OD1        79.5315    1.5840   53.0695 O.co2     3 ASC3        0.0000 
     23 OD1        80.4460    1.0450   54.6950 O.co2    11 ASL3        0.0000 
     24 OD1        78.6170    2.1230   51.4440 O.co2     7 ASP3        0.0000 
     25 OD1        79.7390    1.9670   54.0835 O.co2     3 ASC3        0.0000 
     26 OD1        79.0320    2.8890   53.4720 O.co2     7 ASP3        0.0000 
     27 CA         80.9185    1.1035   52.0830 C.3       4 GLC5        0.0000 
     28 CA         80.2850   -0.1210   53.8120 C.3      12 GLL5        0.0000 
     29 CA         77.9885   -1.4810   52.5680 C.3       4 GLC5        0.0000 
     30 CA         79.6370   -2.5120   53.6250 C.3      12 GLL5        0.0000 
     31 CA         76.3400   -0.4500   51.5110 C.3       8 GLP5        0.0000 
     32 CA         77.1040   -2.2880   52.4875 C.3       4 GLC5        0.0000 
     33 CA         77.8680   -4.1260   53.4640 C.3      12 GLL5        0.0000 
     34 CA         80.8590   -3.4635   56.2995 C.3       4 GLC5        0.0000 
     35 CA         79.1700   -3.9900   55.4810 C.3      12 GLL5        0.0000 
     36 CA         82.5480   -2.9370   57.1180 C.3       8 GLP5        0.0000 
     37 O          77.2450   -1.0855   54.5505 O.2       1 ALC1        0.0000 
     38 O          78.5740   -1.1000   55.3320 O.2       9 ALL1        0.0000 
     39 O          75.9160   -1.0710   53.7690 O.2       5 ALP1        0.0000 
     40 N          80.0185   -1.1605   58.6610 N.am      2 SEC2        0.0000 
     41 N          79.5690   -0.4480   57.2530 N.am     10 SEL2        0.0000 
     42 N          80.4680   -1.8730   60.0690 N.am      6 SEP2        0.0000 
     43 CA         78.6460    1.9900   60.6115 C.3       4 GLC5        0.0000 
     44 CA         76.7550    2.0150   60.2380 C.3      12 GLL5        0.0000 
     45 CA         80.5370    1.9650   60.9850 C.3       8 GLP5        0.0000 
     46 CA         76.6785    3.7100   59.7170 C.3       4 GLC5        0.0000 
     47 CA         76.6020    5.4050   59.1960 C.3       8 GLP5        0.0000 
     48 N          72.6000    2.8800   57.7425 N.am      2 SEC2        0.0000 
     49 N          73.5030    2.0880   58.6230 N.am     10 SEL2        0.0000 
     50 N          71.6970    3.6720   56.8620 N.am      6 SEP2        0.0000 
     51 CA         72.8235    0.1970   57.5795 C.3       4 GLC5        0.0000 
     52 CA         74.7880   -0.4430   58.3990 C.3      12 GLL5        0.0000 
     53 CA         70.8590    0.8370   56.7600 C.3       8 GLP5        0.0000 
     54 N          74.1840   -3.4250   58.5375 N.am      2 SEC2        0.0000 
     55 N          73.1920   -2.6660   57.7420 N.am     10 SEL2        0.0000 
     56 N          75.1760   -4.1840   59.3330 N.am      6 SEP2        0.0000 
     57 O          74.9240   -1.7420   54.6925 O.2       1 ALC1        0.0000 
     58 O          73.9320   -2.4130   55.6160 O.2       9 ALL1        0.0000 
     59 CA         72.1665   -4.5570   52.7360 C.3       4 GLC5        0.0000 
     60 CA         73.4910   -4.4460   54.3090 C.3      12 GLL5        0.0000 
     61 CA         70.8420   -4.6680   51.1630 C.3       8 GLP5        0.0000 
     62 CA         73.8285   -5.0485   52.3845 C.3       4 GLC5        0.0000 
     63 CA         74.1660   -5.6510   50.4600 C.3       8 GLP5        0.0000 
     64 CA         74.1475   -6.3450   53.7975 C.3       4 GLC5        0.0000 
     65 CA         74.8040   -8.2440   53.2860 C.3       8 GLP5        0.0000 
     66 CA         69.6200   -4.0205   54.0795 C.3       4 GLC5        0.0000 
     67 CA         70.7780   -2.3390   54.2140 C.3      12 GLL5        0.0000 
     68 CA         68.4620   -5.7020   53.9450 C.3       8 GLP5        0.0000 
     69 CA         70.8185   -0.7510   55.4870 C.3       4 GLC5        0.0000 
     70 CA         69.6830   -0.3455   54.9740 C.3       4 GLC5        0.0000 
     71 CA         70.0590   -1.5190   53.3520 C.3      12 GLL5        0.0000 
     72 CA         69.3070    0.8280   56.5960 C.3       8 GLP5        0.0000 
     73 CA         74.0005   -0.1355   53.8025 C.3       4 GLC5        0.0000 
     74 CA         72.8020   -1.8190   53.0330 C.3      12 GLL5        0.0000 
     75 CA         75.1990    1.5480   54.5720 C.3       8 GLP5        0.0000 
     76 CA         85.9877    2.3020   52.9483 C.3       4 GLC5        0.0000 
     77 CA         85.5380    4.3090   52.6620 C.3       8 GLP5        0.0000 
     78 CA         84.9456   -0.6110   52.2734 C.3       4 GLC5        0.0000 
     79 CA         86.4940    0.1180   53.9750 C.3      12 GLL5        0.0000 
     80 CA         84.1230   -1.3210   50.6510 C.3       8 GLP5        0.0000 
     81 CA         81.5744   -2.3638   54.3126 C.3       4 GLC5        0.0000 
     82 CA         79.7507   -4.1647   52.4280 C.3       4 GLC5        0.0000 
     83 CA         80.2370   -5.3050   50.9460 C.3       8 GLP5        0.0000 
     84 CA         77.0042   -4.7462   52.0750 C.3       4 GLC5        0.0000 
     85 CA         76.5030   -4.8370   50.4170 C.3       8 GLP5        0.0000 
     86 CA         78.8713   -4.9802   52.3395 C.3       4 GLC5        0.0000 
     87 CA         77.4507   -1.8220   58.6158 C.3       4 GLC5        0.0000 
     88 CA         76.2560   -1.3970   56.7470 C.3      12 GLL5        0.0000 
     89 CA         78.1360   -2.6740   60.2790 C.3       8 GLP5        0.0000 
     90 CA         75.9822    0.2890   55.7623 C.3       4 GLC5        0.0000 
     91 CA         77.2750   -0.5430   57.1580 C.3      12 GLL5        0.0000 
     92 CA         77.2715   -1.1360   59.3863 C.3       4 GLC5        0.0000 
     93 CA         77.0350    0.3550   58.1930 C.3      12 GLL5        0.0000 
     94 CA         75.8655    1.9340   57.3413 C.3       4 GLC5        0.0000 
     95 CA         75.3240    3.4660   56.1890 C.3       8 GLP5        0.0000 
     96 CA         76.5197   -1.7895   59.0850 C.3       4 GLC5        0.0000 
     97 CA         75.0513    0.3215   56.2315 C.3       4 GLC5        0.0000 
     98 CA         72.9585   -5.4335   55.6185 C.3       4 GLC5        0.0000 
     99 CA         72.8730   -3.2280   54.9990 C.3      12 GLL5        0.0000 
    100 CA         72.7350   -7.0300   56.5830 C.3       8 GLP5        0.0000 
    101 CA         71.1543   -3.5397   52.6520 C.3       4 GLC5        0.0000 
    102 CA         72.1550   -2.4840   54.0680 C.3      12 GLL5        0.0000 
    103 CA         72.0088   -0.2697   54.5693 C.3       4 GLC5        0.0000 
    104 CA         71.5390    1.6120   55.5880 C.3       8 GLP5        0.0000 
    105 CA         68.9908   -2.1945   54.7920 C.3       4 GLC5        0.0000 
    106 CA         67.5630   -2.4600   55.8010 C.3       8 GLP5        0.0000 
    107 CA         70.6135   -2.9228   52.0020 C.3       4 GLC5        0.0000 
    108 CA         71.4677    0.3475   53.9185 C.3       4 GLC5        0.0000 
    109 CA         70.7110   -0.8360   52.3300 C.3      12 GLL5        0.0000 
    110 CA         71.6420   -3.0383   51.8817 C.3       4 GLC5        0.0000 
    111 CA         72.0820   -0.9980   52.1680 C.3      12 GLL5        0.0000 
    112 CA         74.3910   -0.9293   52.0558 C.3       4 GLC5        0.0000 
    113 CA         70.6337    0.7276   52.2073 C.3       4 GLC5        0.0000 
    114 CA         70.0340    2.5430   51.9100 C.3       8 GLP5        0.0000 
@<TRIPOS>BOND
@<TRIPOS>SUBSTRUCTURE
     1 ALC1       37 GROUP        1 X    ALC  0     ROOT ALC X 1
     2 SEC2       10 GROUP        1 X    SEC  0     **** SEC X 2
     3 ASC3       22 GROUP        1 X    ASC  0     **** ASC X 3
     4 GLC5        1 GROUP        1 X    GLC  0     **** GLC X 6
     5 ALP1       39 GROUP        1 Y    ALP  0     ROOT ALP Y 8
     6 SEP2       12 GROUP        1 Y    SEP  0     **** SEP Y 9
     7 ASP3       24 GROUP        1 Y    ASP  0     **** ASP Y 10
     8 GLP5        3 GROUP        1 Y    GLP  0     **** GLP Y 13
     9 ALL1       38 GROUP        1 Z    ALL  0     ROOT ALL Z 15
    10 SEL2       11 GROUP        1 Z    SEL  0     **** SEL Z 16
    11 ASL3       23 GROUP        1 Z    ASL  0     **** ASL Z 17
    12 GLL5        2 GROUP        1 Z    GLL  0     **** GLL Z 20
@<TRIPOS>SET

