#    Name: 4gid_0GH_3_ligand
#    Modification time : Mon Mar 24 22:14:59 2014

@<TRIPOS>MOLECULE
4gid_0GH_3_ligand
   93    95     1     0     0
SMALL
NO_CHARGES


@<TRIPOS>ATOM
      1 CBK        87.3490   -1.1410   54.1160 C.3       1 0GH501      0.0000 
      2 CBL        86.4940    0.1180   53.9750 C.3       1 0GH501      0.0000 
      3 CBM        86.3810    0.4720   52.4940 C.3       1 0GH501      0.0000 
      4 CBN        85.0990   -0.0970   54.5570 C.3       1 0GH501      0.0000 
      5 NBO        84.2660    1.1020   54.4340 N.am      1 0GH501      0.0000 
      6 CBP        82.9510    0.7460   54.9840 C.2       1 0GH501      0.0000 
      7 OBV        82.8950    0.0030   55.9610 O.2       1 0GH501      0.0000 
      8 CBG        81.7810    1.6510   54.5670 C.3       1 0GH501      0.0000 
      9 CBH        81.8550    3.0070   55.2810 C.3       1 0GH501      0.0000 
     10 CBJ        81.1080    3.0470   56.6160 C.3       1 0GH501      0.0000 
     11 OBI        83.1990    3.5000   55.3370 O.3       1 0GH501      0.0000 
     12 NBF        80.4460    1.0450   54.6950 N.4       1 0GH501      0.0000 
     13 CAX        80.2850   -0.1210   53.8120 C.3       1 0GH501      0.0000 
     14 CAW        79.8280   -1.3490   54.6030 C.3       1 0GH501      0.0000 
     15 CAY        79.6370   -2.5120   53.6250 C.3       1 0GH501      0.0000 
     16 CAZ        78.8920   -3.5370   54.1950 C.ar      1 0GH501      0.0000 
     17 CBA        77.8680   -4.1260   53.4640 C.ar      1 0GH501      0.0000 
     18 CBB        77.1430   -5.1850   54.0020 C.ar      1 0GH501      0.0000 
     19 CBC        77.4400   -5.6550   55.2770 C.ar      1 0GH501      0.0000 
     20 CBD        78.4500   -5.0510   56.0180 C.ar      1 0GH501      0.0000 
     21 CBE        79.1700   -3.9900   55.4810 C.ar      1 0GH501      0.0000 
     22 NAV        78.5740   -1.1000   55.3320 N.am      1 0GH501      0.0000 
     23 CAT        78.5480   -0.6980   56.6110 C.2       1 0GH501      0.0000 
     24 OAU        79.5690   -0.4480   57.2530 O.2       1 0GH501      0.0000 
     25 CAP        77.2750   -0.5430   57.1580 C.ar      1 0GH501      0.0000 
     26 CAQ        76.2560   -1.3970   56.7470 C.ar      1 0GH501      0.0000 
     27 CAO        77.0350    0.3550   58.1930 C.ar      1 0GH501      0.0000 
     28 CAN        75.7790    0.4490   58.7940 C.ar      1 0GH501      0.0000 
     29 NAE        75.5960    1.1760   59.8980 N.pl3     1 0GH501      0.0000 
     30 CBT        76.7550    2.0150   60.2380 C.3       1 0GH501      0.0000 
     31 SAB        74.1700    2.0060   59.9970 S.o2      1 0GH501      0.0000 
     32 OAC        74.4140    3.4180   60.5290 O.2       1 0GH501      0.0000 
     33 OAD        73.5030    2.0880   58.6230 O.2       1 0GH501      0.0000 
     34 CAA        73.1090    1.1160   61.1150 C.3       1 0GH501      0.0000 
     35 CAS        74.7880   -0.4430   58.3990 C.ar      1 0GH501      0.0000 
     36 CAR        75.0190   -1.3670   57.3830 C.ar      1 0GH501      0.0000 
     37 CAL        73.9640   -2.1550   56.9320 C.2       1 0GH501      0.0000 
     38 OAM        73.1920   -2.6660   57.7420 O.2       1 0GH501      0.0000 
     39 NBQ        73.9320   -2.4130   55.6160 N.am      1 0GH501      0.0000 
     40 CBR        72.8730   -3.2280   54.9990 C.3       1 0GH501      0.0000 
     41 CBS        73.4910   -4.4460   54.3090 C.3       1 0GH501      0.0000 
     42 CAI        72.1550   -2.4840   54.0680 C.ar      1 0GH501      0.0000 
     43 CAH        70.7780   -2.3390   54.2140 C.ar      1 0GH501      0.0000 
     44 CAG        70.0590   -1.5190   53.3520 C.ar      1 0GH501      0.0000 
     45 CAF        70.7110   -0.8360   52.3300 C.ar      1 0GH501      0.0000 
     46 CAK        72.0820   -0.9980   52.1680 C.ar      1 0GH501      0.0000 
     47 CAJ        72.8020   -1.8190   53.0330 C.ar      1 0GH501      0.0000 
     48 H          86.9731    0.9275   54.4873 H         1 0GH501      0.0000 
     49 H          85.2087   -0.3861   55.6131 H         1 0GH501      0.0000 
     50 H          84.6356   -0.9464   54.0327 H         1 0GH501      0.0000 
     51 H          84.5101    1.9019   54.0891 H         1 0GH501      0.0000 
     52 H          81.9497    1.8871   53.4747 H         1 0GH501      0.0000 
     53 H          81.2664    3.7173   54.5926 H         1 0GH501      0.0000 
     54 H          81.2317   -0.3641   53.3169 H         1 0GH501      0.0000 
     55 H          79.5406    0.0833   53.0345 H         1 0GH501      0.0000 
     56 H          80.6171   -1.6234   55.2885 H         1 0GH501      0.0000 
     57 H          80.6487   -2.8425   53.3174 H         1 0GH501      0.0000 
     58 H          79.1590   -2.0934   52.7175 H         1 0GH501      0.0000 
     59 H          77.6438   -3.7786   52.5208 H         1 0GH501      0.0000 
     60 H          76.3876   -5.6200   53.4567 H         1 0GH501      0.0000 
     61 H          76.9152   -6.4453   55.6697 H         1 0GH501      0.0000 
     62 H          78.6646   -5.3903   56.9656 H         1 0GH501      0.0000 
     63 H          79.9102   -3.5383   56.0352 H         1 0GH501      0.0000 
     64 H          77.6999   -1.2580   54.7842 H         1 0GH501      0.0000 
     65 H          76.4181   -2.0526   55.9703 H         1 0GH501      0.0000 
     66 H          77.8025    0.9669   58.5256 H         1 0GH501      0.0000 
     67 H          73.8650   -0.4206   58.8663 H         1 0GH501      0.0000 
     68 H          74.6560   -2.0493   54.9621 H         1 0GH501      0.0000 
     69 H          72.2217   -3.6120   55.7862 H         1 0GH501      0.0000 
     70 H          70.2882   -2.8446   54.9683 H         1 0GH501      0.0000 
     71 H          69.0415   -1.4164   53.4696 H         1 0GH501      0.0000 
     72 H          70.1853   -0.2200   51.7035 H         1 0GH501      0.0000 
     73 H          72.5702   -0.5083   51.4036 H         1 0GH501      0.0000 
     74 H          73.8172   -1.9327   52.9040 H         1 0GH501      0.0000 
     75 H          88.2683   -1.0090   53.7453 H         1 0GH501      0.0000 
     76 H          87.4549   -1.4128   55.0725 H         1 0GH501      0.0000 
     77 H          86.9471   -1.9189   53.6330 H         1 0GH501      0.0000 
     78 H          87.2764    0.6469   52.0846 H         1 0GH501      0.0000 
     79 H          85.9568   -0.2647   51.9674 H         1 0GH501      0.0000 
     80 H          85.8273    1.2921   52.3494 H         1 0GH501      0.0000 
     81 H          81.4671    2.3742   57.2628 H         1 0GH501      0.0000 
     82 H          81.1795    3.9427   57.0549 H         1 0GH501      0.0000 
     83 H          80.1336    2.8532   56.5023 H         1 0GH501      0.0000 
     84 H          77.5761    1.4670   60.3976 H         1 0GH501      0.0000 
     85 H          76.9720    2.6623   59.5073 H         1 0GH501      0.0000 
     86 H          76.5949    2.5513   61.0667 H         1 0GH501      0.0000 
     87 H          72.9323    0.1845   60.7970 H         1 0GH501      0.0000 
     88 H          73.5097    1.0429   62.0283 H         1 0GH501      0.0000 
     89 H          72.2208    1.5635   61.2195 H         1 0GH501      0.0000 
     90 H          74.1345   -4.1796   53.5914 H         1 0GH501      0.0000 
     91 H          73.9929   -5.0230   54.9534 H         1 0GH501      0.0000 
     92 H          72.7955   -5.0223   53.8798 H         1 0GH501      0.0000 
     93 H          83.1632    4.2779   55.9643 H         1 0GH501      0.0000 
@<TRIPOS>BOND
     1    2    1 1    
     2   75    1 1    
     3   76    1 1    
     4   77    1 1    
     5    3    2 1    
     6    4    2 1    
     7   48    2 1    
     8   78    3 1    
     9   79    3 1    
    10   80    3 1    
    11    5    4 1    
    12   49    4 1    
    13   50    4 1    
    14    6    5 am   
    15   51    5 1    
    16    7    6 2    
    17    8    6 1    
    18    9    8 1    
    19   12    8 1    
    20   52    8 1    
    21   10    9 1    
    22   11    9 1    
    23   53    9 1    
    24   81   10 1    
    25   82   10 1    
    26   83   10 1    
    27   93   11 1    
    28   13   12 1    
    29   14   13 1    
    30   54   13 1    
    31   55   13 1    
    32   15   14 1    
    33   22   14 1    
    34   56   14 1    
    35   16   15 1    
    36   57   15 1    
    37   58   15 1    
    38   17   16 ar   
    39   21   16 ar   
    40   18   17 ar   
    41   59   17 1    
    42   19   18 ar   
    43   60   18 1    
    44   20   19 ar   
    45   61   19 1    
    46   21   20 ar   
    47   62   20 1    
    48   63   21 1    
    49   23   22 am   
    50   64   22 1    
    51   24   23 2    
    52   25   23 1    
    53   26   25 ar   
    54   27   25 ar   
    55   36   26 ar   
    56   65   26 1    
    57   28   27 ar   
    58   66   27 1    
    59   29   28 1    
    60   35   28 ar   
    61   30   29 1    
    62   31   29 1    
    63   84   30 1    
    64   85   30 1    
    65   86   30 1    
    66   32   31 2    
    67   33   31 2    
    68   34   31 1    
    69   87   34 1    
    70   88   34 1    
    71   89   34 1    
    72   36   35 ar   
    73   67   35 1    
    74   37   36 1    
    75   38   37 2    
    76   39   37 am   
    77   40   39 1    
    78   68   39 1    
    79   41   40 1    
    80   42   40 1    
    81   69   40 1    
    82   90   41 1    
    83   91   41 1    
    84   92   41 1    
    85   43   42 ar   
    86   47   42 ar   
    87   44   43 ar   
    88   70   43 1    
    89   45   44 ar   
    90   71   44 1    
    91   46   45 ar   
    92   72   45 1    
    93   47   46 ar   
    94   73   46 1    
    95   74   47 1    
@<TRIPOS>SUBSTRUCTURE
     1 0GH501      1 GROUP   
@<TRIPOS>SET

