#    Name: 1om1_IQA_1_INTS_M
#    Modification time : Mon Mar 24 20:19:29 2014

@<TRIPOS>MOLECULE
1om1_IQA_1_INTS_M
   69     0     9     0     0
SMALL
NO_CHARGES


@<TRIPOS>ATOM
      1 NZ         25.6025    6.6545   13.4860 N.4       2 LYC4        0.0000 
      2 NZ         23.8570    7.3150   14.0900 N.4       8 LYL4        0.0000 
      3 NZ         27.3480    5.9940   12.8820 N.4       5 LYP4        0.0000 
      4 N          23.0515    6.2270   13.4600 N.am      1 SEC2        0.0000 
      5 N          23.8570    7.3150   14.0900 N.am      7 SEL2        0.0000 
      6 N          22.2460    5.1390   12.8300 N.am      4 SEP2        0.0000 
      7 NZ         26.3735    5.7885   13.6410 N.4       2 LYC4        0.0000 
      8 NZ         25.3990    5.5830   14.4000 N.4       8 LYL4        0.0000 
      9 N          26.3735    5.7885   13.6410 N.am      1 SEC2        0.0000 
     10 N          25.3990    5.5830   14.4000 N.am      7 SEL2        0.0000 
     11 N          27.3480    5.9940   12.8820 N.am      4 SEP2        0.0000 
     12 CA         25.6200    6.6345   17.8455 C.3       3 GLC5        0.0000 
     13 CA         24.2740    6.4130   16.4580 C.3       9 GLL5        0.0000 
     14 CA         26.9660    6.8560   19.2330 C.3       6 GLP5        0.0000 
     15 CA         26.0665    7.1205   15.4535 C.3       3 GLC5        0.0000 
     16 CA         27.8590    7.8280   14.4490 C.3       6 GLP5        0.0000 
     17 CA         24.0065    4.8260   14.9005 C.3       3 GLC5        0.0000 
     18 CA         23.7390    3.2390   13.3430 C.3       6 GLP5        0.0000 
     19 CA         23.9160    5.3710   23.1400 C.3       3 GLC5        0.0000 
     20 CA         21.8850    6.0760   22.6850 C.3       9 GLL5        0.0000 
     21 CA         25.9470    4.6660   23.5950 C.3       6 GLP5        0.0000 
     22 CA         22.4085    7.7180   24.2495 C.3       3 GLC5        0.0000 
     23 CA         20.9700    6.8950   23.4230 C.3       9 GLL5        0.0000 
     24 CA         23.8470    8.5410   25.0760 C.3       6 GLP5        0.0000 
     25 CA         21.6335   10.1995   21.3375 C.3       3 GLC5        0.0000 
     26 CA         20.7110    8.3770   21.4610 C.3       9 GLL5        0.0000 
     27 CA         22.5560   12.0220   21.2140 C.3       6 GLP5        0.0000 
     28 CA         19.9140    7.5695   18.3270 C.3       3 GLC5        0.0000 
     29 CA         21.7140    8.8400   18.2880 C.3       9 GLL5        0.0000 
     30 CA         18.1140    6.2990   18.3660 C.3       6 GLP5        0.0000 
     31 CA         19.0640   11.4595   17.3405 C.3       3 GLC5        0.0000 
     32 CA         20.7080   10.8340   17.2070 C.3       9 GLL5        0.0000 
     33 CA         17.4200   12.0850   17.4740 C.3       6 GLP5        0.0000 
     34 CA         19.1345   10.6800   18.5895 C.3       3 GLC5        0.0000 
     35 CA         20.8380    9.9880   18.3580 C.3       9 GLL5        0.0000 
     36 CA         17.4310   11.3720   18.8210 C.3       6 GLP5        0.0000 
     37 CA         24.4237    7.9295   19.1363 C.3       3 GLC5        0.0000 
     38 CA         23.2490    7.3080   17.3260 C.3       9 GLL5        0.0000 
     39 CA         25.7330    8.7290   20.3210 C.3       6 GLP5        0.0000 
     40 CA         22.1584    5.8261   17.2578 C.3       3 GLC5        0.0000 
     41 CA         22.9800    6.9520   18.5770 C.3       9 GLL5        0.0000 
     42 CA         20.9460    4.7460   16.7810 C.3       6 GLP5        0.0000 
     43 CA         23.8342    7.8550   20.6575 C.3       3 GLC5        0.0000 
     44 CA         22.2270    6.3940   21.3240 C.3       9 GLL5        0.0000 
     45 CA         20.4350    5.8835   20.9168 C.3       3 GLC5        0.0000 
     46 CA         18.8140    5.5320   19.8290 C.3       6 GLP5        0.0000 
     47 CA         19.7458    6.4987   21.4770 C.3       3 GLC5        0.0000 
     48 CA         20.3850    8.0360   22.8270 C.3       9 GLL5        0.0000 
     49 CA         22.4120    8.5343   22.9010 C.3       3 GLC5        0.0000 
     50 CA         24.2760    8.8620   23.6580 C.3       6 GLP5        0.0000 
     51 CA         18.8231    7.2881   22.5460 C.3       3 GLC5        0.0000 
     52 CA         16.9520    6.6550   22.7990 C.3       6 GLP5        0.0000 
     53 CA         19.9958    6.7523   20.4458 C.3       3 GLC5        0.0000 
     54 CA         23.0630    7.8818   22.4961 C.3       3 GLC5        0.0000 
     55 CA         21.6440    7.5680   20.6640 C.3       9 GLL5        0.0000 
     56 CA         23.1875   10.1150   18.2730 C.3       3 GLC5        0.0000 
     57 CA         24.2980   11.5340   18.8620 C.3       6 GLP5        0.0000 
     58 CA         20.7170    7.8795   16.4560 C.3       3 GLC5        0.0000 
     59 CA         19.3570    7.0630   15.2280 C.3       6 GLP5        0.0000 
     60 CA         23.0810   10.7600   17.4110 C.3       3 GLC5        0.0000 
     61 CA         22.3050    9.4130   15.9120 C.3       9 GLL5        0.0000 
     62 CA         21.5210   11.5360   18.8173 C.3       3 GLC5        0.0000 
     63 CA         22.2690   12.6610   19.8520 C.3       6 GLP5        0.0000 
     64 CA         20.7750   10.9155   14.8912 C.3       3 GLC5        0.0000 
     65 CA         20.2640   11.4210   13.1990 C.3       6 GLP5        0.0000 
     66 CA         22.1195   11.9840   15.7572 C.3       3 GLC5        0.0000 
     67 CA         21.4230   10.5590   16.0080 C.3       9 GLL5        0.0000 
     68 CA         22.9530   13.5580   14.9310 C.3       6 GLP5        0.0000 
     69 CA         20.3215    8.7365   15.9058 C.3       3 GLC5        0.0000 
@<TRIPOS>BOND
@<TRIPOS>SUBSTRUCTURE
     1 SEC2        4 GROUP        1 X    SEC  0     ROOT SEC X 2
     2 LYC4        1 GROUP        1 X    LYC  0     **** LYC X 4
     3 GLC5       12 GROUP        1 X    GLC  0     **** GLC X 6
     4 SEP2        6 GROUP        1 Y    SEP  0     ROOT SEP Y 9
     5 LYP4        3 GROUP        1 Y    LYP  0     **** LYP Y 11
     6 GLP5       14 GROUP        1 Y    GLP  0     **** GLP Y 13
     7 SEL2        5 GROUP        1 Z    SEL  0     ROOT SEL Z 16
     8 LYL4        2 GROUP        1 Z    LYL  0     **** LYL Z 18
     9 GLL5       13 GROUP        1 Z    GLL  0     **** GLL Z 20
@<TRIPOS>SET

