#    Name: 1om1_IQA_1_ligand
#    Modification time : Mon Mar 24 20:19:29 2014

@<TRIPOS>MOLECULE
1om1_IQA_1_ligand
   33    36     1     0     0
SMALL
NO_CHARGES


@<TRIPOS>ATOM
      1 O21        23.8570    7.3150   14.0900 O.co2     1 IQA338      0.0000 
      2 C20        24.5430    6.4110   14.9470 C.2       1 IQA338      0.0000 
      3 O22        25.3990    5.5830   14.4000 O.co2     1 IQA338      0.0000 
      4 C18        24.2740    6.4130   16.4580 C.3       1 IQA338      0.0000 
      5 C5         23.2490    7.3080   17.3260 C.2       1 IQA338      0.0000 
      6 C8         22.9800    6.9520   18.5770 C.2       1 IQA338      0.0000 
      7 N11        23.5250    5.8420   19.2160 N.am      1 IQA338      0.0000 
      8 C10        23.1860    5.5330   20.5550 C.2       1 IQA338      0.0000 
      9 O19        23.7030    4.5200   21.0930 O.2       1 IQA338      0.0000 
     10 C12        22.2270    6.3940   21.3240 C.ar      1 IQA338      0.0000 
     11 C17        21.8850    6.0760   22.6850 C.ar      1 IQA338      0.0000 
     12 C16        20.9700    6.8950   23.4230 C.ar      1 IQA338      0.0000 
     13 C15        20.3850    8.0360   22.8270 C.ar      1 IQA338      0.0000 
     14 C14        20.7110    8.3770   21.4610 C.ar      1 IQA338      0.0000 
     15 C13        21.6440    7.5680   20.6640 C.ar      1 IQA338      0.0000 
     16 N9         22.0490    7.8370   19.2380 N.pl3     1 IQA338      0.0000 
     17 C7         21.7140    8.8400   18.2880 C.ar      1 IQA338      0.0000 
     18 C6         22.4400    8.5520   17.0800 C.ar      1 IQA338      0.0000 
     19 C4         22.3050    9.4130   15.9120 C.ar      1 IQA338      0.0000 
     20 C1         21.4230   10.5590   16.0080 C.ar      1 IQA338      0.0000 
     21 C2         20.7080   10.8340   17.2070 C.ar      1 IQA338      0.0000 
     22 C3         20.8380    9.9880   18.3580 C.ar      1 IQA338      0.0000 
     23 H          25.3062    6.5349   16.9995 H         1 IQA338      0.0000 
     24 H          24.0467    5.3084   16.7769 H         1 IQA338      0.0000 
     25 H          24.1862    5.2297   18.7155 H         1 IQA338      0.0000 
     26 H          22.3004    5.2570   23.1274 H         1 IQA338      0.0000 
     27 H          20.7436    6.6457   24.3873 H         1 IQA338      0.0000 
     28 H          19.7386    8.6208   23.3436 H         1 IQA338      0.0000 
     29 H          20.2885    9.1976   21.0298 H         1 IQA338      0.0000 
     30 H          22.8045    9.2170   15.0761 H         1 IQA338      0.0000 
     31 H          21.3211   11.1705   15.1978 H         1 IQA338      0.0000 
     32 H          20.0892   11.6480   17.2540 H         1 IQA338      0.0000 
     33 H          20.3305   10.1857   19.2019 H         1 IQA338      0.0000 
@<TRIPOS>BOND
     1    2    1 ar   
     2    3    2 ar   
     3    4    2 1    
     4    5    4 1    
     5   23    4 1    
     6   24    4 1    
     7    6    5 2    
     8   18    5 1    
     9    7    6 1    
    10   16    6 1    
    11    8    7 am   
    12   25    7 1    
    13    9    8 2    
    14   10    8 1    
    15   11   10 ar   
    16   15   10 ar   
    17   12   11 ar   
    18   26   11 1    
    19   13   12 ar   
    20   27   12 1    
    21   14   13 ar   
    22   28   13 1    
    23   15   14 ar   
    24   29   14 1    
    25   16   15 1    
    26   17   16 1    
    27   18   17 ar   
    28   22   17 ar   
    29   19   18 ar   
    30   20   19 ar   
    31   30   19 1    
    32   21   20 ar   
    33   31   20 1    
    34   22   21 ar   
    35   32   21 1    
    36   33   22 1    
@<TRIPOS>SUBSTRUCTURE
     1 IQA338      1 GROUP   
@<TRIPOS>SET

