#    Name: 1erb_ETR_1_INTS_M
#    Modification time : Tue Mar 25 00:11:00 2014

@<TRIPOS>MOLECULE
1erb_ETR_1_INTS_M
   75     0     3     0     0
SMALL
NO_CHARGES


@<TRIPOS>ATOM
      1 CA         28.5005   19.1530   42.1060 C.3       1 GLC5        0.0000 
      2 CA         30.0000   20.3840   43.0340 C.3       3 GLL5        0.0000 
      3 CA         27.0010   17.9220   41.1780 C.3       2 GLP5        0.0000 
      4 CA         28.8405   18.8145   43.8295 C.3       1 GLC5        0.0000 
      5 CA         27.6810   17.2450   44.6250 C.3       2 GLP5        0.0000 
      6 CA         31.6280   16.9685   49.0375 C.3       1 GLC5        0.0000 
      7 CA         31.6720   19.1860   49.1630 C.3       3 GLL5        0.0000 
      8 CA         31.5840   14.7510   48.9120 C.3       2 GLP5        0.0000 
      9 CA         33.7060   21.0300   49.0530 C.3       1 GLC5        0.0000 
     10 CA         32.9770   19.1300   49.5110 C.3       3 GLL5        0.0000 
     11 CA         34.4350   22.9300   48.5950 C.3       2 GLP5        0.0000 
     12 CA         34.8570   20.8940   50.5465 C.3       1 GLC5        0.0000 
     13 CA         34.4980   18.8310   51.1830 C.3       3 GLL5        0.0000 
     14 CA         35.2160   22.9570   49.9100 C.3       2 GLP5        0.0000 
     15 CA         38.1805   17.6535   52.1225 C.3       1 GLC5        0.0000 
     16 CA         36.1710   18.4870   52.6170 C.3       3 GLL5        0.0000 
     17 CA         40.1900   16.8200   51.6280 C.3       2 GLP5        0.0000 
     18 CA         28.2835   19.4320   46.1100 C.3       1 GLC5        0.0000 
     19 CA         28.5990   21.6060   45.8100 C.3       3 GLL5        0.0000 
     20 CA         27.9680   17.2580   46.4100 C.3       2 GLP5        0.0000 
     21 CA         28.7520   23.1740   47.2295 C.3       1 GLC5        0.0000 
     22 CA         28.9050   24.7420   48.6490 C.3       2 GLP5        0.0000 
     23 CA         32.6035   22.1430   44.6925 C.3       1 GLC5        0.0000 
     24 CA         30.7830   22.7870   45.6750 C.3       3 GLL5        0.0000 
     25 CA         34.4240   21.4990   43.7100 C.3       2 GLP5        0.0000 
     26 CA         29.8440   23.7645   47.1620 C.3       1 GLC5        0.0000 
     27 CA         29.7665   24.4665   44.7280 C.3       1 GLC5        0.0000 
     28 CA         28.7500   26.1460   43.7810 C.3       2 GLP5        0.0000 
     29 CA         33.6215   17.8070   45.5295 C.3       1 GLC5        0.0000 
     30 CA         31.5600   17.9330   45.2190 C.3       3 GLL5        0.0000 
     31 CA         35.6830   17.6810   45.8400 C.3       2 GLP5        0.0000 
     32 CA         31.2570   16.2940   43.7850 C.3       1 GLC5        0.0000 
     33 CA         30.9540   14.6550   42.3510 C.3       2 GLP5        0.0000 
     34 CA         29.7640   17.5955   45.8145 C.3       1 GLC5        0.0000 
     35 CA         31.2635   16.1725   45.8635 C.3       1 GLC5        0.0000 
     36 CA         30.9670   14.4120   46.5080 C.3       2 GLP5        0.0000 
     37 CA         30.0465   20.4230   51.0430 C.3       1 GLC5        0.0000 
     38 CA         30.3050   18.9370   49.7900 C.3       3 GLL5        0.0000 
     39 CA         29.7880   21.9090   52.2960 C.3       2 GLP5        0.0000 
     40 CA         29.1365   18.0975   48.1000 C.3       1 GLC5        0.0000 
     41 CA         30.7905   16.8885   50.0305 C.3       1 GLC5        0.0000 
     42 CA         31.2760   14.8400   50.2710 C.3       2 GLP5        0.0000 
     43 CA         28.2395   19.6660   50.0900 C.3       1 GLC5        0.0000 
     44 CA         26.1740   20.3950   50.3900 C.3       2 GLP5        0.0000 
     45 CA         33.6575   20.4805   54.3045 C.3       1 GLC5        0.0000 
     46 CA         34.0830   18.7640   53.5240 C.3       3 GLL5        0.0000 
     47 CA         33.2320   22.1970   55.0850 C.3       2 GLP5        0.0000 
     48 CA         38.3775   15.4745   53.6670 C.3       1 GLC5        0.0000 
     49 CA         37.9900   16.7390   55.0200 C.3       3 GLL5        0.0000 
     50 CA         38.7650   14.2100   52.3140 C.3       2 GLP5        0.0000 
     51 CA         36.1220   15.7480   54.4060 C.3       1 GLC5        0.0000 
     52 CA         34.2540   14.7570   53.7920 C.3       2 GLP5        0.0000 
     53 CA         36.4730   17.1315   57.4090 C.3       1 GLC5        0.0000 
     54 CA         38.3520   17.4810   56.2650 C.3       3 GLL5        0.0000 
     55 CA         34.5940   16.7820   58.5530 C.3       2 GLP5        0.0000 
     56 CA         28.7815   21.5392   41.8085 C.3       1 GLC5        0.0000 
     57 CA         29.5360   21.5490   43.9000 C.3       3 GLL5        0.0000 
     58 CA         27.7950   22.1120   40.1500 C.3       2 GLP5        0.0000 
     59 CA         30.7175   19.5495   41.3635 C.3       1 GLC5        0.0000 
     60 CA         30.8010   19.0150   39.4070 C.3       2 GLP5        0.0000 
     61 CA         32.7715   20.5245   44.0135 C.3       1 GLC5        0.0000 
     62 CA         31.2680   19.7840   43.6060 C.3       3 GLL5        0.0000 
     63 CA         29.2920   18.4800   45.9395 C.3       1 GLC5        0.0000 
     64 CA         30.9700   19.3160   45.0280 C.3       3 GLL5        0.0000 
     65 CA         29.4730   18.3847   46.9540 C.3       1 GLC5        0.0000 
     66 CA         30.3430   19.5080   47.2550 C.3       3 GLL5        0.0000 
     67 CA         33.6732   17.7190   49.0220 C.3       1 GLC5        0.0000 
     68 CA         35.0220   16.2800   48.7070 C.3       2 GLP5        0.0000 
     69 CA         36.7458   20.1220   53.3665 C.3       1 GLC5        0.0000 
     70 CA         35.0440   18.6470   52.4650 C.3       3 GLL5        0.0000 
     71 CA         37.8840   21.6770   54.1920 C.3       2 GLP5        0.0000 
     72 CA         34.7191   17.5240   50.2330 C.3       1 GLC5        0.0000 
     73 CA         34.5496   16.7112   53.4123 C.3       1 GLC5        0.0000 
     74 CA         39.8705   17.9530   56.0968 C.3       1 GLC5        0.0000 
     75 CA         41.5700   18.7960   56.5510 C.3       2 GLP5        0.0000 
@<TRIPOS>BOND
@<TRIPOS>SUBSTRUCTURE
     1 GLC5        1 GROUP        1 X    GLC  0     ROOT GLC X 6
     2 GLP5        3 GROUP        1 Y    GLP  0     ROOT GLP Y 13
     3 GLL5        2 GROUP        1 Z    GLL  0     ROOT GLL Z 20
@<TRIPOS>SET

