#    Name: 1erb_ETR_1_ligand
#    Modification time : Tue Mar 25 00:11:00 2014

@<TRIPOS>MOLECULE
1erb_ETR_1_ligand
   57    57     1     0     0
SMALL
NO_CHARGES


@<TRIPOS>ATOM
      1 C1         30.0350   21.4960   45.3510 C.3       1 ETR184      0.0000 
      2 C2         29.5360   21.5490   43.9000 C.3       1 ETR184      0.0000 
      3 C3         30.0000   20.3840   43.0340 C.3       1 ETR184      0.0000 
      4 C4         31.2680   19.7840   43.6060 C.3       1 ETR184      0.0000 
      5 C5         30.9700   19.3160   45.0280 C.2       1 ETR184      0.0000 
      6 C6         30.2620   20.0880   45.9100 C.2       1 ETR184      0.0000 
      7 C7         30.3430   19.5080   47.2550 C.2       1 ETR184      0.0000 
      8 C8         31.6130   19.5150   47.7410 C.2       1 ETR184      0.0000 
      9 C9         31.6720   19.1860   49.1630 C.2       1 ETR184      0.0000 
     10 C10        32.9770   19.1300   49.5110 C.2       1 ETR184      0.0000 
     11 C11        33.0790   18.9470   50.9230 C.2       1 ETR184      0.0000 
     12 C12        34.4980   18.8310   51.1830 C.2       1 ETR184      0.0000 
     13 C13        35.0440   18.6470   52.4650 C.2       1 ETR184      0.0000 
     14 C14        36.1710   18.4870   52.6170 C.2       1 ETR184      0.0000 
     15 C15        36.5720   18.2850   53.9970 C.2       1 ETR184      0.0000 
     16 O          35.6070   18.3500   54.9850 O.2       1 ETR184      0.0000 
     17 N          37.6270   17.9910   54.1300 N.am      1 ETR184      0.0000 
     18 C16        28.5990   21.6060   45.8100 C.3       1 ETR184      0.0000 
     19 C17        30.7830   22.7870   45.6750 C.3       1 ETR184      0.0000 
     20 C18        31.5600   17.9330   45.2190 C.3       1 ETR184      0.0000 
     21 C19        30.3050   18.9370   49.7900 C.3       1 ETR184      0.0000 
     22 C20        34.0830   18.7640   53.5240 C.3       1 ETR184      0.0000 
     23 C21        37.9900   16.7390   55.0200 C.3       1 ETR184      0.0000 
     24 C22        38.3520   17.4810   56.2650 C.3       1 ETR184      0.0000 
     25 H          29.8758   22.4950   43.4445 H         1 ETR184      0.0000 
     26 H          28.4328   21.5763   43.9072 H         1 ETR184      0.0000 
     27 H          30.1889   20.7413   42.0245 H         1 ETR184      0.0000 
     28 H          29.2199   19.6271   43.0041 H         1 ETR184      0.0000 
     29 H          32.0466   20.5302   43.6311 H         1 ETR184      0.0000 
     30 H          31.5747   18.9396   43.0088 H         1 ETR184      0.0000 
     31 H          29.5506   19.1740   47.6980 H         1 ETR184      0.0000 
     32 H          32.4238   19.7097   47.2427 H         1 ETR184      0.0000 
     33 H          33.7388   19.1975   48.9377 H         1 ETR184      0.0000 
     34 H          32.4082   18.9098   51.5342 H         1 ETR184      0.0000 
     35 H          35.1381   18.8894   50.3609 H         1 ETR184      0.0000 
     36 H          36.9534   18.4613   51.9419 H         1 ETR184      0.0000 
     37 H          38.5397   18.3994   53.7589 H         1 ETR184      0.0000 
     38 H          38.8138   16.2713   54.5998 H         1 ETR184      0.0000 
     39 H          37.1314   16.1730   55.1476 H         1 ETR184      0.0000 
     40 H          28.5349   21.7559   46.7966 H         1 ETR184      0.0000 
     41 H          28.1246   22.3665   45.3666 H         1 ETR184      0.0000 
     42 H          28.0791   20.7767   45.6051 H         1 ETR184      0.0000 
     43 H          31.1258   22.7919   46.6144 H         1 ETR184      0.0000 
     44 H          31.5716   22.9200   45.0746 H         1 ETR184      0.0000 
     45 H          30.1975   23.5912   45.5724 H         1 ETR184      0.0000 
     46 H          32.5501   17.9290   45.0787 H         1 ETR184      0.0000 
     47 H          31.3931   17.5820   46.1404 H         1 ETR184      0.0000 
     48 H          31.1705   17.2713   44.5783 H         1 ETR184      0.0000 
     49 H          30.3770   18.7187   50.7632 H         1 ETR184      0.0000 
     50 H          29.7095   19.7366   49.7122 H         1 ETR184      0.0000 
     51 H          29.8294   18.1737   49.3528 H         1 ETR184      0.0000 
     52 H          34.5021   18.6314   54.4222 H         1 ETR184      0.0000 
     53 H          33.6485   19.6646   53.5334 H         1 ETR184      0.0000 
     54 H          33.3521   18.0868   53.4388 H         1 ETR184      0.0000 
     55 H          38.7845   16.8840   56.9407 H         1 ETR184      0.0000 
     56 H          38.9923   18.2265   56.0801 H         1 ETR184      0.0000 
     57 H          37.5492   17.8859   56.7028 H         1 ETR184      0.0000 
@<TRIPOS>BOND
     1    2    1 1    
     2    6    1 1    
     3   18    1 1    
     4   19    1 1    
     5    3    2 1    
     6   25    2 1    
     7   26    2 1    
     8    4    3 1    
     9   27    3 1    
    10   28    3 1    
    11    5    4 1    
    12   29    4 1    
    13   30    4 1    
    14    6    5 2    
    15   20    5 1    
    16    7    6 1    
    17    8    7 2    
    18   31    7 1    
    19    9    8 1    
    20   32    8 1    
    21   10    9 2    
    22   21    9 1    
    23   11   10 1    
    24   33   10 1    
    25   12   11 2    
    26   34   11 1    
    27   13   12 1    
    28   35   12 1    
    29   14   13 2    
    30   22   13 1    
    31   15   14 1    
    32   36   14 1    
    33   16   15 2    
    34   17   15 am   
    35   23   17 1    
    36   37   17 1    
    37   40   18 1    
    38   41   18 1    
    39   42   18 1    
    40   43   19 1    
    41   44   19 1    
    42   45   19 1    
    43   46   20 1    
    44   47   20 1    
    45   48   20 1    
    46   49   21 1    
    47   50   21 1    
    48   51   21 1    
    49   52   22 1    
    50   53   22 1    
    51   54   22 1    
    52   24   23 1    
    53   38   23 1    
    54   39   23 1    
    55   55   24 1    
    56   56   24 1    
    57   57   24 1    
@<TRIPOS>SUBSTRUCTURE
     1 ETR184      1 GROUP   
@<TRIPOS>SET

