#    Name: 2wez_ZYE_1_INTS_M
#    Modification time : Tue Mar 25 04:15:20 2014

@<TRIPOS>MOLECULE
2wez_ZYE_1_INTS_M
   87     0    12     0     0
SMALL
NO_CHARGES


@<TRIPOS>ATOM
      1 CA         32.2095    1.9045   36.3680 C.3       4 GLC5        0.0000 
      2 CA         31.1310    0.1510   36.4470 C.3      12 GLL5        0.0000 
      3 CA         33.2880    3.6580   36.2890 C.3       8 GLP5        0.0000 
      4 O          28.0435    0.5885   34.0240 O.2       1 ALC1        0.0000 
      5 O          29.1330    1.4490   33.6960 O.2       9 ALL1        0.0000 
      6 O          26.9540   -0.2720   34.3520 O.2       5 ALP1        0.0000 
      7 N          32.7675    1.8970   34.2040 N.am      2 SEC2        0.0000 
      8 N          31.2950    2.1260   34.2290 N.am     10 SEL2        0.0000 
      9 N          34.2400    1.6680   34.1790 N.am      6 SEP2        0.0000 
     10 CA         26.4500    1.1445   32.7170 C.3       4 GLC5        0.0000 
     11 CA         28.1310    1.6760   31.5020 C.3      12 GLL5        0.0000 
     12 CA         24.7690    0.6130   33.9320 C.3       8 GLP5        0.0000 
     13 O          26.7070    4.2635   31.3415 O.2       1 ALC1        0.0000 
     14 O          27.7430    4.6030   32.0050 O.2       9 ALL1        0.0000 
     15 O          25.6710    3.9240   30.6780 O.2       5 ALP1        0.0000 
     16 OD1        26.3275    4.7525   34.9930 O.co2     3 ASC3        0.0000 
     17 OD1        27.9740    5.6700   34.6730 O.co2    11 ASL3        0.0000 
     18 OD1        24.6810    3.8350   35.3130 O.co2     7 ASP3        0.0000 
     19 OD1        27.2025    5.0825   35.5710 O.co2     3 ASC3        0.0000 
     20 OD1        26.4310    4.4950   36.4690 O.co2     7 ASP3        0.0000 
     21 CA         28.0485    8.7490   35.0090 C.3       4 GLC5        0.0000 
     22 CA         28.6600    6.8710   35.3010 C.3      12 GLL5        0.0000 
     23 CA         27.4370   10.6270   34.7170 C.3       8 GLP5        0.0000 
     24 CA         27.3480    7.5890   36.6575 C.3       4 GLC5        0.0000 
     25 CA         26.0360    8.3070   38.0140 C.3       8 GLP5        0.0000 
     26 CA         31.4550    2.0585   31.1610 C.3       4 GLC5        0.0000 
     27 CA         30.4520    0.3320   30.9540 C.3      12 GLL5        0.0000 
     28 CA         32.4580    3.7850   31.3680 C.3       8 GLP5        0.0000 
     29 CA         30.7515   -1.3465   41.9570 C.3       4 GLC5        0.0000 
     30 CA         32.3520   -1.0340   40.7850 C.3      12 GLL5        0.0000 
     31 CA         29.1510   -1.6590   43.1290 C.3       8 GLP5        0.0000 
     32 CA         33.6900    1.2740   38.0725 C.3       4 GLC5        0.0000 
     33 CA         33.3810   -0.6360   38.5910 C.3      12 GLL5        0.0000 
     34 CA         33.9990    3.1840   37.5540 C.3       8 GLP5        0.0000 
     35 CA         33.6820   -0.7035   36.4045 C.3       4 GLC5        0.0000 
     36 CA         33.9830   -0.7710   34.2180 C.3       8 GLP5        0.0000 
     37 N          28.6260   -1.6340   39.0925 N.am      2 SEC2        0.0000 
     38 N          30.1130   -1.5240   39.7940 N.am     10 SEL2        0.0000 
     39 N          27.1390   -1.7440   38.3910 N.am      6 SEP2        0.0000 
     40 N          28.8620   -1.7330   40.5150 N.am      2 SEC2        0.0000 
     41 N          27.6110   -1.9420   41.2360 N.am      6 SEP2        0.0000 
     42 CA         25.7835   -4.5615   33.4695 C.3       4 GLC5        0.0000 
     43 CA         27.6150   -3.8760   33.9080 C.3      12 GLL5        0.0000 
     44 CA         23.9520   -5.2470   33.0310 C.3       8 GLP5        0.0000 
     45 CA         29.7185   -5.4510   32.5850 C.3       4 GLC5        0.0000 
     46 CA         29.1340   -4.0950   33.8530 C.3      12 GLL5        0.0000 
     47 CA         30.3030   -6.8070   31.3170 C.3       8 GLP5        0.0000 
     48 CA         33.2825    5.7775   34.6205 C.3       4 GLC5        0.0000 
     49 CA         32.2670    7.6750   34.0920 C.3      12 GLL5        0.0000 
     50 CA         34.2980    3.8800   35.1490 C.3       8 GLP5        0.0000 
     51 CA         32.2295    5.4420   35.5950 C.3       4 GLC5        0.0000 
     52 CA         31.1710    7.2260   34.9010 C.3      12 GLL5        0.0000 
     53 CA         27.7090    8.0040   30.1320 C.3       4 GLC5        0.0000 
     54 CA         28.9900    9.1080   30.5700 C.3      12 GLL5        0.0000 
     55 CA         26.4280    6.9000   29.6940 C.3       8 GLP5        0.0000 
     56 CA         27.2995   10.3410   31.1220 C.3       4 GLC5        0.0000 
     57 CA         25.6090   11.5740   31.6740 C.3       8 GLP5        0.0000 
     58 CA         32.0448   -1.2615   34.6178 C.3       4 GLC5        0.0000 
     59 CA         30.0150   -1.1550   34.6390 C.3      12 GLL5        0.0000 
     60 CA         28.5723   -0.1067   35.9935 C.3       4 GLC5        0.0000 
     61 CA         26.8900    0.3000   37.0820 C.3       8 GLP5        0.0000 
     62 CA         32.3978   -0.3157   35.0135 C.3       4 GLC5        0.0000 
     63 CA         30.4940    0.1280   35.1710 C.3      12 GLL5        0.0000 
     64 CA         29.7022    0.3420   37.9627 C.3       4 GLC5        0.0000 
     65 CA         28.1800    1.1380   39.0930 C.3       8 GLP5        0.0000 
     66 CA         32.5280   -1.2432   35.5813 C.3       4 GLC5        0.0000 
     67 CA         31.3180   -1.0590   37.2180 C.3      12 GLL5        0.0000 
     68 CA         29.4823    3.3987   31.0963 C.3       4 GLC5        0.0000 
     69 CA         28.8460    2.4470   32.6370 C.3      12 GLL5        0.0000 
     70 CA         30.4760    4.7360   30.1230 C.3       8 GLP5        0.0000 
     71 CA         29.4097    4.4085   31.8783 C.3       4 GLC5        0.0000 
     72 CA         27.9930    3.6920   33.0700 C.3      12 GLL5        0.0000 
     73 CA         26.8850   -2.2620   30.4577 C.3       4 GLC5        0.0000 
     74 CA         28.1310   -0.7990   31.0000 C.3      12 GLL5        0.0000 
     75 CA         25.3240   -3.0750   30.0760 C.3       8 GLP5        0.0000 
     76 CA         27.4902    0.9627   29.6700 C.3       4 GLC5        0.0000 
     77 CA         26.6460    1.8000   28.1790 C.3       8 GLP5        0.0000 
     78 CA         31.9327    0.8675   40.8695 C.3       4 GLC5        0.0000 
     79 CA         33.6710   -0.6600   40.0750 C.3      12 GLL5        0.0000 
     80 CA         30.8540    2.5820   41.3090 C.3       8 GLP5        0.0000 
     81 CA         29.0346   -3.9114   37.7993 C.3       4 GLC5        0.0000 
     82 CA         30.8280   -2.3720   36.6710 C.3      12 GLL5        0.0000 
     83 CA         27.5300   -4.0880   39.0620 C.3       8 GLP5        0.0000 
     84 CA         27.5877   -5.8287   33.7678 C.3       4 GLC5        0.0000 
     85 CA         26.8010   -7.6720   33.6550 C.3       8 GLP5        0.0000 
     86 CA         32.8025    6.4417   32.5225 C.3       4 GLC5        0.0000 
     87 CA         33.4600    4.9170   31.5950 C.3       8 GLP5        0.0000 
@<TRIPOS>BOND
@<TRIPOS>SUBSTRUCTURE
     1 ALC1        4 GROUP        1 X    ALC  0     ROOT ALC X 1
     2 SEC2        7 GROUP        1 X    SEC  0     **** SEC X 2
     3 ASC3       16 GROUP        1 X    ASC  0     **** ASC X 3
     4 GLC5        1 GROUP        1 X    GLC  0     **** GLC X 6
     5 ALP1        6 GROUP        1 Y    ALP  0     ROOT ALP Y 8
     6 SEP2        9 GROUP        1 Y    SEP  0     **** SEP Y 9
     7 ASP3       18 GROUP        1 Y    ASP  0     **** ASP Y 10
     8 GLP5        3 GROUP        1 Y    GLP  0     **** GLP Y 13
     9 ALL1        5 GROUP        1 Z    ALL  0     ROOT ALL Z 15
    10 SEL2        8 GROUP        1 Z    SEL  0     **** SEL Z 16
    11 ASL3       17 GROUP        1 Z    ASL  0     **** ASL Z 17
    12 GLL5        2 GROUP        1 Z    GLL  0     **** GLL Z 20
@<TRIPOS>SET

