#    Name: 2wez_ZYE_1_ligand
#    Modification time : Tue Mar 25 04:15:20 2014

@<TRIPOS>MOLECULE
2wez_ZYE_1_ligand
   76    80     1     0     0
SMALL
NO_CHARGES


@<TRIPOS>ATOM
      1 C1         30.1980   -2.3490   35.3960 C.ar      1 ZYE2000     0.0000 
      2 C2         30.0150   -1.1550   34.6390 C.ar      1 ZYE2000     0.0000 
      3 C3         30.4940    0.1280   35.1710 C.ar      1 ZYE2000     0.0000 
      4 C4         31.1310    0.1510   36.4470 C.ar      1 ZYE2000     0.0000 
      5 C5         31.3180   -1.0590   37.2180 C.ar      1 ZYE2000     0.0000 
      6 C6         30.8280   -2.3720   36.6710 C.ar      1 ZYE2000     0.0000 
      7 C7         30.3130    1.3550   34.3740 C.2       1 ZYE2000     0.0000 
      8 N8         29.1330    1.4490   33.6960 N.am      1 ZYE2000     0.0000 
      9 O9         31.2950    2.1260   34.2290 O.2       1 ZYE2000     0.0000 
     10 C10        28.8460    2.4470   32.6370 C.3       1 ZYE2000     0.0000 
     11 C11        28.1310    1.6760   31.5020 C.3       1 ZYE2000     0.0000 
     12 C12        27.9930    3.6920   33.0700 C.3       1 ZYE2000     0.0000 
     13 O13        27.7430    4.6030   32.0050 O.3       1 ZYE2000     0.0000 
     14 C14        28.9450    0.4240   31.1420 C.ar      1 ZYE2000     0.0000 
     15 C15        28.6940    4.4700   34.1970 C.3       1 ZYE2000     0.0000 
     16 N16        27.9740    5.6700   34.6730 N.4       1 ZYE2000     0.0000 
     17 C17        28.6600    6.8710   35.3010 C.3       1 ZYE2000     0.0000 
     18 C18        28.1310   -0.7990   31.0000 C.ar      1 ZYE2000     0.0000 
     19 C19        28.7610   -2.0990   30.6790 C.ar      1 ZYE2000     0.0000 
     20 C20        30.2260   -2.1920   30.5000 C.ar      1 ZYE2000     0.0000 
     21 C21        31.0730   -0.9710   30.6370 C.ar      1 ZYE2000     0.0000 
     22 C22        30.4520    0.3320   30.9540 C.ar      1 ZYE2000     0.0000 
     23 N23        29.8280   -3.6580   35.0920 N.pl3     1 ZYE2000     0.0000 
     24 C24        33.6710   -0.6600   40.0750 C.2       1 ZYE2000     0.0000 
     25 C25        32.3520   -1.0340   40.7850 C.3       1 ZYE2000     0.0000 
     26 C26        31.3260   -1.2140   39.6780 C.2       1 ZYE2000     0.0000 
     27 N27        31.9730   -0.9770   38.5010 N.am      1 ZYE2000     0.0000 
     28 C28        33.3810   -0.6360   38.5910 C.2       1 ZYE2000     0.0000 
     29 O29        30.1130   -1.5240   39.7940 O.2       1 ZYE2000     0.0000 
     30 C30        30.2330   -4.4400   36.1540 C.2       1 ZYE2000     0.0000 
     31 C31        30.8630   -3.6870   37.1670 C.2       1 ZYE2000     0.0000 
     32 C32        27.6150   -3.8760   33.9080 C.3       1 ZYE2000     0.0000 
     33 C33        29.1340   -4.0950   33.8530 C.3       1 ZYE2000     0.0000 
     34 C34        30.6680    8.4080   32.2950 C.ar      1 ZYE2000     0.0000 
     35 C35        32.0230    8.2580   32.8080 C.ar      1 ZYE2000     0.0000 
     36 C36        32.2670    7.6750   34.0920 C.ar      1 ZYE2000     0.0000 
     37 C37        31.1710    7.2260   34.9010 C.ar      1 ZYE2000     0.0000 
     38 C38        29.8110    7.3560   34.4280 C.ar      1 ZYE2000     0.0000 
     39 C39        29.5670    7.9450   33.1340 C.ar      1 ZYE2000     0.0000 
     40 O40        30.3390    8.9780   31.0320 O.3       1 ZYE2000     0.0000 
     41 C41        28.9900    9.1080   30.5700 C.3       1 ZYE2000     0.0000 
     42 H          29.5605   -1.1707   33.7392 H         1 ZYE2000     0.0000 
     43 H          31.4658    1.0374   36.8329 H         1 ZYE2000     0.0000 
     44 H          28.3410    0.7883   33.9046 H         1 ZYE2000     0.0000 
     45 H          29.7840    2.8103   32.2118 H         1 ZYE2000     0.0000 
     46 H          28.0525    2.3163   30.6359 H         1 ZYE2000     0.0000 
     47 H          27.1483    1.3822   31.8400 H         1 ZYE2000     0.0000 
     48 H          27.0570    3.3126   33.4862 H         1 ZYE2000     0.0000 
     49 H          29.7071    4.7511   33.8349 H         1 ZYE2000     0.0000 
     50 H          28.8619    3.7656   35.0409 H         1 ZYE2000     0.0000 
     51 H          29.0457    6.5955   36.2828 H         1 ZYE2000     0.0000 
     52 H          27.9374    7.6782   35.4230 H         1 ZYE2000     0.0000 
     53 H          27.1336   -0.7499   31.1229 H         1 ZYE2000     0.0000 
     54 H          28.1937   -2.9172   30.5829 H         1 ZYE2000     0.0000 
     55 H          30.6531   -3.0670   30.2879 H         1 ZYE2000     0.0000 
     56 H          32.0609   -1.0411   30.5130 H         1 ZYE2000     0.0000 
     57 H          30.9979    1.1527   31.0476 H         1 ZYE2000     0.0000 
     58 H          34.4424   -0.4942   40.4770 H         1 ZYE2000     0.0000 
     59 H          32.0616   -0.2342   41.4285 H         1 ZYE2000     0.0000 
     60 H          32.4865   -1.9507   41.3137 H         1 ZYE2000     0.0000 
     61 H          33.9634   -0.4514   37.9514 H         1 ZYE2000     0.0000 
     62 H          30.1059   -5.4044   36.2133 H         1 ZYE2000     0.0000 
     63 H          31.2095   -3.9852   37.9551 H         1 ZYE2000     0.0000 
     64 H          29.3204   -5.1657   33.6711 H         1 ZYE2000     0.0000 
     65 H          29.5290   -3.5461   32.9830 H         1 ZYE2000     0.0000 
     66 H          32.8025    8.5768   32.2350 H         1 ZYE2000     0.0000 
     67 H          33.2190    7.5782   34.4329 H         1 ZYE2000     0.0000 
     68 H          31.3460    6.8139   35.8116 H         1 ZYE2000     0.0000 
     69 H          28.6139    8.0426   32.7938 H         1 ZYE2000     0.0000 
     70 H          27.3832   -2.9117   34.0363 H         1 ZYE2000     0.0000 
     71 H          27.1658   -4.1760   33.0664 H         1 ZYE2000     0.0000 
     72 H          27.1939   -4.3814   34.6612 H         1 ZYE2000     0.0000 
     73 H          28.9468    9.5271   29.6631 H         1 ZYE2000     0.0000 
     74 H          28.5326    8.2211   30.5051 H         1 ZYE2000     0.0000 
     75 H          28.4409    9.6769   31.1823 H         1 ZYE2000     0.0000 
     76 H          27.2970    4.0564   31.2963 H         1 ZYE2000     0.0000 
@<TRIPOS>BOND
     1    2    1 ar   
     2    6    1 ar   
     3   23    1 1    
     4    3    2 ar   
     5   42    2 1    
     6    4    3 ar   
     7    7    3 1    
     8    5    4 ar   
     9   43    4 1    
    10    6    5 ar   
    11   27    5 1    
    12   31    6 1    
    13    8    7 am   
    14    9    7 2    
    15   10    8 1    
    16   44    8 1    
    17   11   10 1    
    18   12   10 1    
    19   45   10 1    
    20   14   11 1    
    21   46   11 1    
    22   47   11 1    
    23   13   12 1    
    24   15   12 1    
    25   48   12 1    
    26   76   13 1    
    27   18   14 ar   
    28   22   14 ar   
    29   16   15 1    
    30   49   15 1    
    31   50   15 1    
    32   17   16 1    
    33   38   17 1    
    34   51   17 1    
    35   52   17 1    
    36   19   18 ar   
    37   53   18 1    
    38   20   19 ar   
    39   54   19 1    
    40   21   20 ar   
    41   55   20 1    
    42   22   21 ar   
    43   56   21 1    
    44   57   22 1    
    45   30   23 1    
    46   33   23 1    
    47   25   24 1    
    48   28   24 2    
    49   58   24 1    
    50   26   25 1    
    51   59   25 1    
    52   60   25 1    
    53   27   26 am   
    54   29   26 2    
    55   28   27 1    
    56   61   28 1    
    57   31   30 2    
    58   62   30 1    
    59   63   31 1    
    60   33   32 1    
    61   70   32 1    
    62   71   32 1    
    63   72   32 1    
    64   64   33 1    
    65   65   33 1    
    66   35   34 ar   
    67   39   34 ar   
    68   40   34 1    
    69   36   35 ar   
    70   66   35 1    
    71   37   36 ar   
    72   67   36 1    
    73   38   37 ar   
    74   68   37 1    
    75   39   38 ar   
    76   69   39 1    
    77   41   40 1    
    78   73   41 1    
    79   74   41 1    
    80   75   41 1    
@<TRIPOS>SUBSTRUCTURE
     1 ZYE2000     1 GROUP   
@<TRIPOS>SET

