#    Name: 4oag_ADP_1_INTS_M
#    Modification time : Tue Mar 25 13:35:19 2014

@<TRIPOS>MOLECULE
4oag_ADP_1_INTS_M
   60     0    12     0     0
SMALL
NO_CHARGES


@<TRIPOS>ATOM
      1 NZ         78.1100   -9.4740    4.5115 N.4       3 LYC4        0.0000 
      2 NZ         78.3880  -10.9800    3.3350 N.4      11 LYL4        0.0000 
      3 NZ         77.8320   -7.9680    5.6880 N.4       7 LYP4        0.0000 
      4 NZ         77.1415   -9.0845    5.2460 N.4       3 LYC4        0.0000 
      5 NZ         76.4510  -10.2010    4.8040 N.4      11 LYL4        0.0000 
      6 N          75.6960  -10.1205    5.7445 N.am      2 SEC2        0.0000 
      7 N          76.4510  -10.2010    4.8040 N.am     10 SEL2        0.0000 
      8 N          74.9410  -10.0400    6.6850 N.am      6 SEP2        0.0000 
      9 N          77.1415   -9.0845    5.2460 N.am      2 SEC2        0.0000 
     10 N          77.8320   -7.9680    5.6880 N.am      6 SEP2        0.0000 
     11 N          75.5380  -12.8490    4.0985 N.am      2 SEC2        0.0000 
     12 N          76.7860  -12.6720    4.3610 N.am     10 SEL2        0.0000 
     13 N          74.2900  -13.0260    3.8360 N.am      6 SEP2        0.0000 
     14 NZ         78.9005  -11.9365    9.2675 N.4       3 LYC4        0.0000 
     15 NZ         79.0440  -11.7100    8.1310 N.4      11 LYL4        0.0000 
     16 NZ         78.0240  -11.3720   11.1920 N.4       7 LYP4        0.0000 
     17 N          78.9005  -11.9365    9.2675 N.am      2 SEC2        0.0000 
     18 N          79.0440  -11.7100    8.1310 N.am     10 SEL2        0.0000 
     19 N          78.7570  -12.1630   10.4040 N.am      6 SEP2        0.0000 
     20 N          75.9340  -12.0615    8.2285 N.am      2 SEC2        0.0000 
     21 N          76.8040  -12.7310    7.1880 N.am     10 SEL2        0.0000 
     22 N          75.0640  -11.3920    9.2690 N.am      6 SEP2        0.0000 
     23 CA         76.4035  -18.4710    7.9360 C.3       4 GLC5        0.0000 
     24 CA         78.3280  -17.9780    7.2180 C.3      12 GLL5        0.0000 
     25 CA         74.4790  -18.9640    8.6540 C.3       8 GLP5        0.0000 
     26 CA         78.0290  -19.6315    8.6340 C.3       4 GLC5        0.0000 
     27 CA         77.7300  -21.2850   10.0500 C.3       8 GLP5        0.0000 
     28 N          80.2110  -19.5690    7.5525 N.am      2 SEC2        0.0000 
     29 N          78.5450  -19.3900    7.1630 N.am     10 SEL2        0.0000 
     30 N          81.8770  -19.7480    7.9420 N.am      6 SEP2        0.0000 
     31 O          77.5080  -19.6705    6.0630 O.2       1 ALC1        0.0000 
     32 O          78.5450  -19.3900    7.1630 O.2       9 ALL1        0.0000 
     33 O          76.4710  -19.9510    4.9630 O.2       5 ALP1        0.0000 
     34 N          76.8240  -16.5535   12.5795 N.am      2 SEC2        0.0000 
     35 N          77.6250  -16.9720   11.5570 N.am     10 SEL2        0.0000 
     36 N          76.0230  -16.1350   13.6020 N.am      6 SEP2        0.0000 
     37 CA         81.2935  -18.9920   13.9545 C.3       4 GLC5        0.0000 
     38 CA         79.4170  -18.0760   13.1230 C.3      12 GLL5        0.0000 
     39 CA         83.1700  -19.9080   14.7860 C.3       8 GLP5        0.0000 
     40 CA         80.5015  -16.7305   14.2070 C.3       4 GLC5        0.0000 
     41 CA         81.5860  -15.3850   15.2910 C.3       8 GLP5        0.0000 
     42 O          77.4175  -17.0280   13.9620 O.2       1 ALC1        0.0000 
     43 O          78.8120  -17.9210   14.3220 O.2       9 ALL1        0.0000 
     44 O          76.0230  -16.1350   13.6020 O.2       5 ALP1        0.0000 
     45 N          81.4870  -18.7095   13.9415 N.am      2 SEC2        0.0000 
     46 N          80.6180  -18.6740   13.0100 N.am     10 SEL2        0.0000 
     47 N          82.3560  -18.7450   14.8730 N.am      6 SEP2        0.0000 
     48 CA         81.4945  -20.7300   11.6320 C.3       4 GLC5        0.0000 
     49 CA         81.2420  -18.8320   11.8180 C.3      12 GLL5        0.0000 
     50 CA         81.7470  -22.6280   11.4460 C.3       8 GLP5        0.0000 
     51 CA         82.2060  -19.3700   13.3020 C.3       4 GLC5        0.0000 
     52 CA         81.3095  -16.6100   11.9675 C.3       4 GLC5        0.0000 
     53 CA         81.3770  -14.3880   12.1170 C.3       8 GLP5        0.0000 
     54 CA         79.5405  -19.5120    6.3230 C.3       4 GLC5        0.0000 
     55 CA         80.5130  -21.3950    6.0580 C.3       8 GLP5        0.0000 
     56 CA         77.3945  -19.0702   12.9612 C.3       4 GLC5        0.0000 
     57 CA         78.7750  -17.5970   11.8860 C.3      12 GLL5        0.0000 
     58 CA         75.6930  -20.3040   13.4180 C.3       8 GLP5        0.0000 
     59 CA         78.4352  -19.4968   10.6573 C.3       4 GLC5        0.0000 
     60 CA         80.3390  -16.1081   11.8454 C.3       4 GLC5        0.0000 
@<TRIPOS>BOND
@<TRIPOS>SUBSTRUCTURE
     1 ALC1       31 GROUP        1 X    ALC  0     ROOT ALC X 1
     2 SEC2        6 GROUP        1 X    SEC  0     **** SEC X 2
     3 LYC4        1 GROUP        1 X    LYC  0     **** LYC X 4
     4 GLC5       23 GROUP        1 X    GLC  0     **** GLC X 6
     5 ALP1       33 GROUP        1 Y    ALP  0     ROOT ALP Y 8
     6 SEP2        8 GROUP        1 Y    SEP  0     **** SEP Y 9
     7 LYP4        3 GROUP        1 Y    LYP  0     **** LYP Y 11
     8 GLP5       25 GROUP        1 Y    GLP  0     **** GLP Y 13
     9 ALL1       32 GROUP        1 Z    ALL  0     ROOT ALL Z 15
    10 SEL2        7 GROUP        1 Z    SEL  0     **** SEL Z 16
    11 LYL4        2 GROUP        1 Z    LYL  0     **** LYL Z 18
    12 GLL5       24 GROUP        1 Z    GLL  0     **** GLL Z 20
@<TRIPOS>SET

