#    Name: 4oag_ADP_1_ligand
#    Modification time : Tue Mar 25 13:35:19 2014

@<TRIPOS>MOLECULE
4oag_ADP_1_ligand
   39    41     1     0     0
SMALL
NO_CHARGES


@<TRIPOS>ATOM
      1 PB         77.4250  -11.3180    4.4600 P.3       1 ADP501      0.0000 
      2 O1B        78.3880  -10.9800    3.3350 O.co2     1 ADP501      0.0000 
      3 O2B        76.4510  -10.2010    4.8040 O.co2     1 ADP501      0.0000 
      4 O3B        76.7860  -12.6720    4.3610 O.co2     1 ADP501      0.0000 
      5 PA         78.2520  -12.3450    7.0080 P.3       1 ADP501      0.0000 
      6 O1A        79.0440  -11.7100    8.1310 O.co2     1 ADP501      0.0000 
      7 O2A        76.8040  -12.7310    7.1880 O.co2     1 ADP501      0.0000 
      8 O3A        78.4010  -11.3640    5.7390 O.3       1 ADP501      0.0000 
      9 O5'        79.0680  -13.5930    6.4310 O.3       1 ADP501      0.0000 
     10 C5'        78.3970  -14.7810    6.0500 C.3       1 ADP501      0.0000 
     11 C4'        79.3110  -15.9270    6.4360 C.3       1 ADP501      0.0000 
     12 O4'        79.3830  -15.9870    7.8620 O.3       1 ADP501      0.0000 
     13 C3'        78.8080  -17.2800    5.9580 C.3       1 ADP501      0.0000 
     14 O3'        79.9030  -17.9980    5.3610 O.3       1 ADP501      0.0000 
     15 C2'        78.3280  -17.9780    7.2180 C.3       1 ADP501      0.0000 
     16 O2'        78.5450  -19.3900    7.1630 O.3       1 ADP501      0.0000 
     17 C1'        79.2200  -17.3430    8.2720 C.3       1 ADP501      0.0000 
     18 N9         78.7530  -17.3270    9.6760 N.pl3     1 ADP501      0.0000 
     19 C8         77.6270  -16.8020   10.2050 C.2       1 ADP501      0.0000 
     20 N7         77.6250  -16.9720   11.5570 N.2       1 ADP501      0.0000 
     21 C5         78.7750  -17.5970   11.8860 C.ar      1 ADP501      0.0000 
     22 C6         79.4170  -18.0760   13.1230 C.ar      1 ADP501      0.0000 
     23 N6         78.8120  -17.9210   14.3220 N.pl3     1 ADP501      0.0000 
     24 N1         80.6180  -18.6740   13.0100 N.ar      1 ADP501      0.0000 
     25 C2         81.2420  -18.8320   11.8180 C.ar      1 ADP501      0.0000 
     26 N3         80.7120  -18.4310   10.6550 N.ar      1 ADP501      0.0000 
     27 C4         79.5060  -17.8200   10.6430 C.ar      1 ADP501      0.0000 
     28 H          78.2253  -14.8305    4.9800 H         1 ADP501      0.0000 
     29 H          77.4558  -14.9072    6.5744 H         1 ADP501      0.0000 
     30 H          80.2883  -15.7560    6.0196 H         1 ADP501      0.0000 
     31 H          77.9972  -17.1322    5.3070 H         1 ADP501      0.0000 
     32 H          77.3345  -17.6925    7.4073 H         1 ADP501      0.0000 
     33 H          80.2019  -17.8293    8.2166 H         1 ADP501      0.0000 
     34 H          76.9181  -16.3656    9.7015 H         1 ADP501      0.0000 
     35 H          79.2908  -18.3084   15.1098 H         1 ADP501      0.0000 
     36 H          77.9393  -17.4327   14.3147 H         1 ADP501      0.0000 
     37 H          82.1990  -19.2978   11.8120 H         1 ADP501      0.0000 
     38 H          79.9146  -18.8841    5.8243 H         1 ADP501      0.0000 
     39 H          77.9106  -19.7222    6.4650 H         1 ADP501      0.0000 
@<TRIPOS>BOND
     1    2    1 ar   
     2    3    1 ar   
     3    4    1 ar   
     4    8    1 1    
     5    6    5 ar   
     6    7    5 ar   
     7    8    5 1    
     8    9    5 1    
     9   10    9 1    
    10   11   10 1    
    11   28   10 1    
    12   29   10 1    
    13   12   11 1    
    14   13   11 1    
    15   30   11 1    
    16   17   12 1    
    17   14   13 1    
    18   15   13 1    
    19   31   13 1    
    20   38   14 1    
    21   16   15 1    
    22   17   15 1    
    23   32   15 1    
    24   39   16 1    
    25   18   17 1    
    26   33   17 1    
    27   19   18 1    
    28   27   18 1    
    29   20   19 2    
    30   34   19 1    
    31   21   20 1    
    32   22   21 ar   
    33   27   21 ar   
    34   23   22 1    
    35   24   22 ar   
    36   35   23 1    
    37   36   23 1    
    38   25   24 ar   
    39   26   25 ar   
    40   37   25 1    
    41   27   26 ar   
@<TRIPOS>SUBSTRUCTURE
     1 ADP501      1 GROUP   
@<TRIPOS>SET

