#    Name: 2xvm_SAH_2_INTS_M
#    Modification time : Tue Mar 25 06:57:06 2014

@<TRIPOS>MOLECULE
2xvm_SAH_2_INTS_M
   89     0    12     0     0
SMALL
NO_CHARGES


@<TRIPOS>ATOM
      1 O         -37.4475  -17.8120   -9.9580 O.2       1 ALC1        0.0000 
      2 O         -37.3040  -17.8310  -11.3230 O.2       9 ALL1        0.0000 
      3 O         -37.5910  -17.7930   -8.5930 O.2       5 ALP1        0.0000 
      4 O         -37.5505  -18.9255  -12.1345 O.2       1 ALC1        0.0000 
      5 O         -37.7970  -20.0200  -12.9460 O.2       5 ALP1        0.0000 
      6 O         -38.0170  -17.6575  -12.7630 O.2       1 ALC1        0.0000 
      7 O         -38.7300  -17.4840  -14.2030 O.2       5 ALP1        0.0000 
      8 O         -38.0255  -16.6435  -11.7635 O.2       1 ALC1        0.0000 
      9 O         -38.7470  -15.4560  -12.2040 O.2       5 ALP1        0.0000 
     10 CA        -36.7805  -16.2130   -9.5090 C.3       4 GLC5        0.0000 
     11 CA        -35.8910  -17.3170  -11.2130 C.3      12 GLL5        0.0000 
     12 CA        -37.6700  -15.1090   -7.8050 C.3       8 GLP5        0.0000 
     13 CA        -34.4085  -17.0465   -8.8015 C.3       4 GLC5        0.0000 
     14 CA        -34.8680  -18.1850  -10.4430 C.3      12 GLL5        0.0000 
     15 CA        -33.9490  -15.9080   -7.1600 C.3       8 GLP5        0.0000 
     16 CA        -35.0345  -20.1935  -12.7850 C.3       4 GLC5        0.0000 
     17 CA        -34.6610  -19.5910  -10.9420 C.3      12 GLL5        0.0000 
     18 CA        -35.4080  -20.7960  -14.6280 C.3       8 GLP5        0.0000 
     19 NZ        -34.9490  -17.2480  -14.6850 N.4       3 LYC4        0.0000 
     20 NZ        -35.9790  -17.3740  -13.5570 N.4      11 LYL4        0.0000 
     21 NZ        -33.5550  -15.8770  -15.9990 N.4       7 LYP4        0.0000 
     22 N         -34.9490  -17.2480  -14.6850 N.am      2 SEC2        0.0000 
     23 N         -35.9790  -17.3740  -13.5570 N.am     10 SEL2        0.0000 
     24 N         -33.9190  -17.1220  -15.8130 N.am      6 SEP2        0.0000 
     25 N         -37.3545  -17.4290  -13.8800 N.am      2 SEC2        0.0000 
     26 N         -38.7300  -17.4840  -14.2030 N.am      6 SEP2        0.0000 
     27 NZ        -34.0355  -16.8195  -14.2085 N.4       3 LYC4        0.0000 
     28 NZ        -34.1520  -16.5170  -12.6040 N.4      11 LYL4        0.0000 
     29 N         -33.9070  -15.7825  -13.7740 N.am      2 SEC2        0.0000 
     30 N         -34.1520  -16.5170  -12.6040 N.am     10 SEL2        0.0000 
     31 N         -33.6620  -15.0480  -14.9440 N.am      6 SEP2        0.0000 
     32 N         -34.0355  -16.8195  -14.2085 N.am      2 SEC2        0.0000 
     33 CA        -34.1425  -23.2655   -9.5370 C.3       4 GLC5        0.0000 
     34 CA        -34.2920  -21.5150   -8.9820 C.3      12 GLL5        0.0000 
     35 CA        -33.9930  -25.0160  -10.0920 C.3       8 GLP5        0.0000 
     36 CA        -33.8205  -18.1310   -6.9260 C.3       4 GLC5        0.0000 
     37 CA        -33.6920  -20.3540   -6.6920 C.3      12 GLL5        0.0000 
     38 O         -34.3735  -18.7385   -4.9390 O.2       1 ALC1        0.0000 
     39 O         -33.7870  -18.9010   -6.4700 O.2       9 ALL1        0.0000 
     40 O         -34.9600  -18.5760   -3.4080 O.2       5 ALP1        0.0000 
     41 O         -34.8875  -18.4055   -5.8630 O.2       1 ALC1        0.0000 
     42 O         -35.9880  -17.9100   -5.2560 O.2       5 ALP1        0.0000 
     43 CA        -34.0755  -22.5100   -3.7365 C.3       4 GLC5        0.0000 
     44 CA        -34.1560  -21.1530   -5.5210 C.3      12 GLL5        0.0000 
     45 CA        -33.9950  -23.8670   -1.9520 C.3       8 GLP5        0.0000 
     46 N         -33.3180  -21.7370   -3.2450 N.am      2 SEC2        0.0000 
     47 N         -33.7400  -20.5550   -4.2830 N.am     10 SEL2        0.0000 
     48 N         -32.8960  -22.9190   -2.2070 N.am      6 SEP2        0.0000 
     49 O         -34.3500  -19.5655   -3.8455 O.2       1 ALC1        0.0000 
     50 O         -33.7400  -20.5550   -4.2830 O.2       9 ALL1        0.0000 
     51 CA        -37.3410  -19.8950   -6.2280 C.3       4 GLC5        0.0000 
     52 CA        -35.6850  -21.2780   -5.7220 C.3      12 GLL5        0.0000 
     53 CA        -38.9970  -18.5120   -6.7340 C.3       8 GLP5        0.0000 
     54 CA        -40.3600  -23.5215   -2.9070 C.3       4 GLC5        0.0000 
     55 CA        -38.3870  -23.7980   -2.5530 C.3      12 GLL5        0.0000 
     56 CA        -42.3330  -23.2450   -3.2610 C.3       8 GLP5        0.0000 
     57 O         -39.3400  -25.1680   -0.7420 O.2       1 ALC1        0.0000 
     58 O         -38.6410  -25.0070   -2.0400 O.2       9 ALL1        0.0000 
     59 O         -40.0390  -25.3290    0.5560 O.2       5 ALP1        0.0000 
     60 N         -40.3500  -22.8735   -1.5500 N.am      2 SEC2        0.0000 
     61 N         -39.0250  -22.6750   -2.1480 N.am     10 SEL2        0.0000 
     62 N         -41.6750  -23.0720   -0.9520 N.am      6 SEP2        0.0000 
     63 CA        -38.3165  -19.4265   -2.6260 C.3       4 GLC5        0.0000 
     64 CA        -38.7840  -21.4250   -2.6130 C.3      12 GLL5        0.0000 
     65 CA        -37.8490  -17.4280   -2.6390 C.3       8 GLP5        0.0000 
     66 CA        -37.5245  -21.3950   -1.3695 C.3       4 GLC5        0.0000 
     67 CA        -36.2650  -21.3650   -0.1260 C.3       8 GLP5        0.0000 
     68 CA        -40.3505  -20.1435   -1.6620 C.3       4 GLC5        0.0000 
     69 CA        -41.9170  -18.8620   -0.7110 C.3       8 GLP5        0.0000 
     70 CA        -39.6895  -22.0020   -0.7095 C.3       4 GLC5        0.0000 
     71 CA        -40.5950  -22.5790    1.1940 C.3       8 GLP5        0.0000 
     72 CA        -40.4445  -21.6125   -3.1660 C.3       4 GLC5        0.0000 
     73 CA        -42.1050  -21.8000   -3.7190 C.3       8 GLP5        0.0000 
     74 N         -37.3885  -20.2430   -2.4220 N.am      2 SEC2        0.0000 
     75 N         -37.8450  -21.2300   -3.5760 N.am     10 SEL2        0.0000 
     76 N         -36.9320  -19.2560   -1.2680 N.am      6 SEP2        0.0000 
     77 CA        -36.1735  -22.0720   -2.5615 C.3       4 GLC5        0.0000 
     78 CA        -37.1790  -22.3120   -4.0660 C.3      12 GLL5        0.0000 
     79 CA        -35.1680  -21.8320   -1.0570 C.3       8 GLP5        0.0000 
     80 CA        -39.3105  -22.0825   -4.6095 C.3       4 GLC5        0.0000 
     81 CA        -41.4420  -21.8530   -5.1530 C.3       8 GLP5        0.0000 
     82 CA        -36.6531  -19.7335  -10.3105 C.3       4 GLC5        0.0000 
     83 CA        -38.2860  -20.7960   -9.7360 C.3       8 GLP5        0.0000 
     84 CA        -36.4080  -20.9642   -9.0482 C.3       4 GLC5        0.0000 
     85 CA        -36.4612  -23.5273   -2.0187 C.3       4 GLC5        0.0000 
     86 CA        -37.4160  -23.6690   -3.6040 C.3      12 GLL5        0.0000 
     87 CA        -35.0210  -23.3210   -0.9590 C.3       8 GLP5        0.0000 
     88 CA        -38.9757  -24.8113   -4.0347 C.3       4 GLC5        0.0000 
     89 CA        -40.0500  -25.8890   -4.9910 C.3       8 GLP5        0.0000 
@<TRIPOS>BOND
@<TRIPOS>SUBSTRUCTURE
     1 ALC1        1 GROUP        1 X    ALC  0     ROOT ALC X 1
     2 SEC2       22 GROUP        1 X    SEC  0     **** SEC X 2
     3 LYC4       19 GROUP        1 X    LYC  0     **** LYC X 4
     4 GLC5       10 GROUP        1 X    GLC  0     **** GLC X 6
     5 ALP1        3 GROUP        1 Y    ALP  0     ROOT ALP Y 8
     6 SEP2       24 GROUP        1 Y    SEP  0     **** SEP Y 9
     7 LYP4       21 GROUP        1 Y    LYP  0     **** LYP Y 11
     8 GLP5       12 GROUP        1 Y    GLP  0     **** GLP Y 13
     9 ALL1        2 GROUP        1 Z    ALL  0     ROOT ALL Z 15
    10 SEL2       23 GROUP        1 Z    SEL  0     **** SEL Z 16
    11 LYL4       20 GROUP        1 Z    LYL  0     **** LYL Z 18
    12 GLL5       11 GROUP        1 Z    GLL  0     **** GLL Z 20
@<TRIPOS>SET

