#    Name: 2xvm_SAH_2_ligand
#    Modification time : Tue Mar 25 06:57:06 2014

@<TRIPOS>MOLECULE
2xvm_SAH_2_ligand
   46    48     1     0     0
SMALL
NO_CHARGES


@<TRIPOS>ATOM
      1 N         -37.3040  -17.8310  -11.3230 N.4       1 SAH1198     0.0000 
      2 CA        -35.8910  -17.3170  -11.2130 C.3       1 SAH1198     0.0000 
      3 CB        -34.8680  -18.1850  -10.4430 C.3       1 SAH1198     0.0000 
      4 CG        -34.6610  -19.5910  -10.9420 C.3       1 SAH1198     0.0000 
      5 SD        -33.3380  -20.3540  -10.0140 S.3       1 SAH1198     0.0000 
      6 C         -35.3120  -17.0330  -12.5440 C.2       1 SAH1198     0.0000 
      7 O         -35.9790  -17.3740  -13.5570 O.co2     1 SAH1198     0.0000 
      8 OXT       -34.1520  -16.5170  -12.6040 O.co2     1 SAH1198     0.0000 
      9 C5'       -34.2920  -21.5150   -8.9820 C.3       1 SAH1198     0.0000 
     10 C4'       -34.7680  -20.7500   -7.7390 C.3       1 SAH1198     0.0000 
     11 O4'       -35.8610  -21.4430   -7.1120 O.3       1 SAH1198     0.0000 
     12 C3'       -33.6920  -20.3540   -6.6920 C.3       1 SAH1198     0.0000 
     13 O3'       -33.7870  -18.9010   -6.4700 O.3       1 SAH1198     0.0000 
     14 C2'       -34.1560  -21.1530   -5.5210 C.3       1 SAH1198     0.0000 
     15 O2'       -33.7400  -20.5550   -4.2830 O.3       1 SAH1198     0.0000 
     16 C1'       -35.6850  -21.2780   -5.7220 C.3       1 SAH1198     0.0000 
     17 N9        -36.2220  -22.4240   -4.9940 N.pl3     1 SAH1198     0.0000 
     18 C8        -35.8860  -23.7160   -5.1340 C.2       1 SAH1198     0.0000 
     19 N7        -36.5800  -24.5090   -4.2450 N.2       1 SAH1198     0.0000 
     20 C5        -37.4160  -23.6690   -3.6040 C.ar      1 SAH1198     0.0000 
     21 C6        -38.3870  -23.7980   -2.5530 C.ar      1 SAH1198     0.0000 
     22 N6        -38.6410  -25.0070   -2.0400 N.pl3     1 SAH1198     0.0000 
     23 N1        -39.0250  -22.6750   -2.1480 N.ar      1 SAH1198     0.0000 
     24 C2        -38.7840  -21.4250   -2.6130 C.ar      1 SAH1198     0.0000 
     25 N3        -37.8450  -21.2300   -3.5760 N.ar      1 SAH1198     0.0000 
     26 C4        -37.1790  -22.3120   -4.0660 C.ar      1 SAH1198     0.0000 
     27 H         -35.9219  -16.3329  -10.6724 H         1 SAH1198     0.0000 
     28 H         -35.1832  -18.2148   -9.3737 H         1 SAH1198     0.0000 
     29 H         -33.8925  -17.6444  -10.4454 H         1 SAH1198     0.0000 
     30 H         -34.3075  -19.6450  -11.9425 H         1 SAH1198     0.0000 
     31 H         -35.4822  -20.2390  -10.7562 H         1 SAH1198     0.0000 
     32 H         -33.5860  -22.2635   -8.7740 H         1 SAH1198     0.0000 
     33 H         -35.0696  -21.8020   -9.6262 H         1 SAH1198     0.0000 
     34 H         -35.1856  -19.7651   -8.1263 H         1 SAH1198     0.0000 
     35 H         -32.7755  -20.6797   -7.0339 H         1 SAH1198     0.0000 
     36 H         -33.7469  -22.1609   -5.6421 H         1 SAH1198     0.0000 
     37 H         -36.1220  -20.3605   -5.3819 H         1 SAH1198     0.0000 
     38 H         -35.2366  -24.0687   -5.7762 H         1 SAH1198     0.0000 
     39 H         -38.1236  -25.7683   -2.4307 H         1 SAH1198     0.0000 
     40 H         -39.3255  -25.0410   -1.3118 H         1 SAH1198     0.0000 
     41 H         -39.3151  -20.6163   -2.2352 H         1 SAH1198     0.0000 
     42 H         -37.8897  -17.2010  -11.8329 H         1 SAH1198     0.0000 
     43 H         -37.3429  -18.7128  -11.7930 H         1 SAH1198     0.0000 
     44 H         -37.7236  -17.9590  -10.4244 H         1 SAH1198     0.0000 
     45 H         -34.6553  -18.7686   -5.9919 H         1 SAH1198     0.0000 
     46 H         -34.5732  -20.1646   -3.8914 H         1 SAH1198     0.0000 
@<TRIPOS>BOND
     1    2    1 1    
     2   42    1 1    
     3   43    1 1    
     4   44    1 1    
     5    3    2 1    
     6    6    2 1    
     7   27    2 1    
     8    4    3 1    
     9   28    3 1    
    10   29    3 1    
    11    5    4 1    
    12   30    4 1    
    13   31    4 1    
    14    9    5 1    
    15    7    6 ar   
    16    8    6 ar   
    17   10    9 1    
    18   32    9 1    
    19   33    9 1    
    20   11   10 1    
    21   12   10 1    
    22   34   10 1    
    23   16   11 1    
    24   13   12 1    
    25   14   12 1    
    26   35   12 1    
    27   45   13 1    
    28   15   14 1    
    29   16   14 1    
    30   36   14 1    
    31   46   15 1    
    32   17   16 1    
    33   37   16 1    
    34   18   17 1    
    35   26   17 1    
    36   19   18 2    
    37   38   18 1    
    38   20   19 1    
    39   21   20 ar   
    40   26   20 ar   
    41   22   21 1    
    42   23   21 ar   
    43   39   22 1    
    44   40   22 1    
    45   24   23 ar   
    46   25   24 ar   
    47   41   24 1    
    48   26   25 ar   
@<TRIPOS>SUBSTRUCTURE
     1 SAH1198     1 GROUP   
@<TRIPOS>SET

