#    Name: 1ka0_AMP_1_INTS_M
#    Modification time : Tue Mar 25 09:45:02 2014

@<TRIPOS>MOLECULE
1ka0_AMP_1_INTS_M
   41     0    12     0     0
SMALL
NO_CHARGES


@<TRIPOS>ATOM
      1 NZ         14.7920    9.1880  -24.6345 N.4       3 LYC4        0.0000 
      2 NZ         13.5580   10.1550  -25.6880 N.4      11 LYL4        0.0000 
      3 NZ         16.0260    8.2210  -23.5810 N.4       7 LYP4        0.0000 
      4 N          13.2485    9.3125  -24.6505 N.am      2 SEC2        0.0000 
      5 N          13.5580   10.1550  -25.6880 N.am     10 SEL2        0.0000 
      6 N          12.9390    8.4700  -23.6130 N.am      6 SEP2        0.0000 
      7 N          15.0595   11.7990  -28.2165 N.am      2 SEC2        0.0000 
      8 N          15.3510   10.9110  -27.1930 N.am     10 SEL2        0.0000 
      9 N          14.7680   12.6870  -29.2400 N.am      6 SEP2        0.0000 
     10 NZ         15.9480    9.4060  -24.1805 N.4       3 LYC4        0.0000 
     11 NZ         15.8700   10.5910  -24.7800 N.4      11 LYL4        0.0000 
     12 NZ         16.8870   11.5295  -24.5960 N.4       3 LYC4        0.0000 
     13 NZ         18.0080   13.7270  -24.8310 N.4       7 LYP4        0.0000 
     14 N          15.9480    9.4060  -24.1805 N.am      2 SEC2        0.0000 
     15 N          15.8700   10.5910  -24.7800 N.am     10 SEL2        0.0000 
     16 N          16.0260    8.2210  -23.5810 N.am      6 SEP2        0.0000 
     17 N          16.8870   11.5295  -24.5960 N.am      2 SEC2        0.0000 
     18 N          17.9040   12.4680  -24.4120 N.am      6 SEP2        0.0000 
     19 N          15.7285   13.3970  -25.4905 N.am      2 SEC2        0.0000 
     20 N          14.4470   12.5590  -25.4620 N.am     10 SEL2        0.0000 
     21 N          17.0100   14.2350  -25.5190 N.am      6 SEP2        0.0000 
     22 CA         11.3695   12.0540  -25.3645 C.3       4 GLC5        0.0000 
     23 CA         13.2130   13.1970  -25.7300 C.3      12 GLL5        0.0000 
     24 CA          9.5260   10.9110  -24.9990 C.3       8 GLP5        0.0000 
     25 O          12.0170   15.8325  -23.6445 O.2       1 ALC1        0.0000 
     26 O          11.3800   15.6950  -24.8150 O.2       9 ALL1        0.0000 
     27 O          12.6540   15.9700  -22.4740 O.2       5 ALP1        0.0000 
     28 O          12.6210   16.6170  -24.1210 O.2       1 ALC1        0.0000 
     29 O          13.8620   17.5390  -23.4270 O.2       5 ALP1        0.0000 
     30 O          13.3045   17.7355  -24.5305 O.2       1 ALC1        0.0000 
     31 O          12.7470   17.9320  -25.6340 O.2       9 ALL1        0.0000 
     32 CA         17.9455   15.8845  -30.1620 C.3       4 GLC5        0.0000 
     33 CA         17.6920   17.8820  -29.8920 C.3      12 GLL5        0.0000 
     34 CA         18.1990   13.8870  -30.4320 C.3       8 GLP5        0.0000 
     35 CA         18.3625   15.4345  -29.1485 C.3       4 GLC5        0.0000 
     36 CA         18.5260   16.9820  -27.8650 C.3      12 GLL5        0.0000 
     37 N          17.1380   15.4825  -26.4445 N.am      2 SEC2        0.0000 
     38 N          17.2660   16.7300  -27.3700 N.am     10 SEL2        0.0000 
     39 CA         15.7540   15.7668  -29.8025 C.3       4 GLC5        0.0000 
     40 CA         16.2550   17.0830  -28.1640 C.3      12 GLL5        0.0000 
     41 CA         15.1740   14.1720  -30.8070 C.3       8 GLP5        0.0000 
@<TRIPOS>BOND
@<TRIPOS>SUBSTRUCTURE
     1 ALC1       25 GROUP        1 X    ALC  0     ROOT ALC X 1
     2 SEC2        4 GROUP        1 X    SEC  0     **** SEC X 2
     3 LYC4        1 GROUP        1 X    LYC  0     **** LYC X 4
     4 GLC5       22 GROUP        1 X    GLC  0     **** GLC X 6
     5 ALP1       27 GROUP        1 Y    ALP  0     ROOT ALP Y 8
     6 SEP2        6 GROUP        1 Y    SEP  0     **** SEP Y 9
     7 LYP4        3 GROUP        1 Y    LYP  0     **** LYP Y 11
     8 GLP5       24 GROUP        1 Y    GLP  0     **** GLP Y 13
     9 ALL1       26 GROUP        1 Z    ALL  0     ROOT ALL Z 15
    10 SEL2        5 GROUP        1 Z    SEL  0     **** SEL Z 16
    11 LYL4        2 GROUP        1 Z    LYL  0     **** LYL Z 18
    12 GLL5       23 GROUP        1 Z    GLL  0     **** GLL Z 20
@<TRIPOS>SET

