#    Name: 1ka0_AMP_1_ligand
#    Modification time : Tue Mar 25 09:45:02 2014

@<TRIPOS>MOLECULE
1ka0_AMP_1_ligand
   35    37     1     0     0
SMALL
NO_CHARGES


@<TRIPOS>ATOM
      1 P          14.7690   10.9960  -25.8030 P.3       1 AMP401      0.0000 
      2 O1P        13.5580   10.1550  -25.6880 O.co2     1 AMP401      0.0000 
      3 O2P        15.3510   10.9110  -27.1930 O.co2     1 AMP401      0.0000 
      4 O3P        15.8700   10.5910  -24.7800 O.co2     1 AMP401      0.0000 
      5 O5'        14.4470   12.5590  -25.4620 O.3       1 AMP401      0.0000 
      6 C5'        13.2130   13.1970  -25.7300 C.3       1 AMP401      0.0000 
      7 C4'        13.4700   14.7080  -25.6950 C.3       1 AMP401      0.0000 
      8 O4'        14.3700   15.0180  -26.7740 O.3       1 AMP401      0.0000 
      9 C3'        12.2470   15.5750  -25.9350 C.3       1 AMP401      0.0000 
     10 O3'        11.3800   15.6950  -24.8150 O.3       1 AMP401      0.0000 
     11 C2'        12.8800   16.8350  -26.5300 C.3       1 AMP401      0.0000 
     12 O2'        12.7470   17.9320  -25.6340 O.3       1 AMP401      0.0000 
     13 C1'        14.3200   16.4120  -26.7280 C.3       1 AMP401      0.0000 
     14 N9         14.9260   16.9680  -27.9690 N.pl3     1 AMP401      0.0000 
     15 C8         14.2840   17.4380  -29.0780 C.2       1 AMP401      0.0000 
     16 N7         15.2090   17.8520  -29.9730 N.2       1 AMP401      0.0000 
     17 C5         16.4130   17.6400  -29.4320 C.ar      1 AMP401      0.0000 
     18 C6         17.6920   17.8820  -29.8920 C.ar      1 AMP401      0.0000 
     19 N6         17.9560   18.4270  -31.1000 N.pl3     1 AMP401      0.0000 
     20 N1         18.7370   17.5560  -29.0850 N.ar      1 AMP401      0.0000 
     21 C2         18.5260   16.9820  -27.8650 C.ar      1 AMP401      0.0000 
     22 N3         17.2660   16.7300  -27.3700 N.ar      1 AMP401      0.0000 
     23 C4         16.2550   17.0830  -28.1640 C.ar      1 AMP401      0.0000 
     24 H          12.4585   12.9736  -24.9806 H         1 AMP401      0.0000 
     25 H          12.8237   12.9516  -26.7144 H         1 AMP401      0.0000 
     26 H          13.9172   14.9739  -24.7610 H         1 AMP401      0.0000 
     27 H          11.7323   15.0796  -26.8033 H         1 AMP401      0.0000 
     28 H          12.4399   16.9947  -27.4826 H         1 AMP401      0.0000 
     29 H          14.8912   16.7811  -25.8689 H         1 AMP401      0.0000 
     30 H          13.3274   17.4669  -29.1965 H         1 AMP401      0.0000 
     31 H          18.9204   18.5904  -31.3077 H         1 AMP401      0.0000 
     32 H          17.1635   18.6185  -31.6790 H         1 AMP401      0.0000 
     33 H          19.3575   16.7191  -27.2740 H         1 AMP401      0.0000 
     34 H          11.9862   15.8409  -24.0331 H         1 AMP401      0.0000 
     35 H          12.7963   17.5275  -24.7208 H         1 AMP401      0.0000 
@<TRIPOS>BOND
     1    2    1 ar   
     2    3    1 ar   
     3    4    1 ar   
     4    5    1 1    
     5    6    5 1    
     6    7    6 1    
     7   24    6 1    
     8   25    6 1    
     9    8    7 1    
    10    9    7 1    
    11   26    7 1    
    12   13    8 1    
    13   10    9 1    
    14   11    9 1    
    15   27    9 1    
    16   34   10 1    
    17   12   11 1    
    18   13   11 1    
    19   28   11 1    
    20   35   12 1    
    21   14   13 1    
    22   29   13 1    
    23   15   14 1    
    24   23   14 1    
    25   16   15 2    
    26   30   15 1    
    27   17   16 1    
    28   18   17 ar   
    29   23   17 ar   
    30   19   18 1    
    31   20   18 ar   
    32   31   19 1    
    33   32   19 1    
    34   21   20 ar   
    35   22   21 ar   
    36   33   21 1    
    37   23   22 ar   
@<TRIPOS>SUBSTRUCTURE
     1 AMP401      1 GROUP   
@<TRIPOS>SET

