#    Name: 3tlm_ACP_1_INTS_M
#    Modification time : Mon Mar 24 20:21:23 2014

@<TRIPOS>MOLECULE
3tlm_ACP_1_INTS_M
   88     0    15     0     0
SMALL
NO_CHARGES


@<TRIPOS>ATOM
      1 N          16.9350    1.6330  -16.6240 N.am      2 SEC2        0.0000 
      2 N          15.8890    1.2130  -15.3940 N.am     12 SEL2        0.0000 
      3 N          17.9810    2.0530  -17.8540 N.am      7 SEP2        0.0000 
      4 N          17.2135    1.3595  -15.3260 N.am      2 SEC2        0.0000 
      5 N          18.5380    1.5060  -15.2580 N.am      7 SEP2        0.0000 
      6 N          15.0710    2.1555  -15.1755 N.am      2 SEC2        0.0000 
      7 N          14.2530    3.0980  -14.9570 N.am      7 SEP2        0.0000 
      8 NZ         12.8145   -0.9610  -17.0010 N.4       3 LYC4        0.0000 
      9 NZ         13.9170   -0.3990  -15.8090 N.4      13 LYL4        0.0000 
     10 NZ         11.7120   -1.5230  -18.1930 N.4       8 LYP4        0.0000 
     11 N          13.1035    0.5800  -14.8895 N.am      2 SEC2        0.0000 
     12 N          13.9170   -0.3990  -15.8090 N.am     12 SEL2        0.0000 
     13 N          12.2900    1.5590  -13.9700 N.am      7 SEP2        0.0000 
     14 N          12.8145   -0.9610  -17.0010 N.am      2 SEC2        0.0000 
     15 N          11.7120   -1.5230  -18.1930 N.am      7 SEP2        0.0000 
     16 Zn         16.6625   -1.4350  -17.7505 Zn        4 ZIC7        0.0000 
     17 Zn         16.1450   -0.6880  -17.0650 Zn       14 ZIL7        0.0000 
     18 Zn         17.1800   -2.1820  -18.4360 Zn        9 ZIP7        0.0000 
     19 NZ         17.6455    0.5835  -11.9695 N.4       3 LYC4        0.0000 
     20 NZ         15.9120    0.6070  -12.6270 N.4      13 LYL4        0.0000 
     21 NZ         19.3790    0.5600  -11.3120 N.4       8 LYP4        0.0000 
     22 NZ         17.2920   -0.7025  -11.8375 N.4       3 LYC4        0.0000 
     23 NZ         16.4040   -1.7530  -11.8440 N.4      13 LYL4        0.0000 
     24 N          17.2920   -0.7025  -11.8375 N.am      2 SEC2        0.0000 
     25 N          16.4040   -1.7530  -11.8440 N.am     12 SEL2        0.0000 
     26 N          18.1800    0.3480  -11.8310 N.am      7 SEP2        0.0000 
     27 CA         17.5945   -0.3850  -15.3335 C.3       5 GLC5        0.0000 
     28 CA         16.1010   -1.3710  -14.4440 C.3      15 GLL5        0.0000 
     29 CA         19.0880    0.6010  -16.2230 C.3      10 GLP5        0.0000 
     30 NZ         14.2575   -4.9515  -13.1095 N.4       3 LYC4        0.0000 
     31 NZ         14.2000   -3.6320  -12.6000 N.4      13 LYL4        0.0000 
     32 NZ         13.3210   -6.7180  -12.8670 N.4       8 LYP4        0.0000 
     33 N          13.3180   -4.7490  -12.4820 N.am      2 SEC2        0.0000 
     34 N          14.2000   -3.6320  -12.6000 N.am     12 SEL2        0.0000 
     35 N          12.4360   -5.8660  -12.3640 N.am      7 SEP2        0.0000 
     36 N          14.2575   -4.9515  -13.1095 N.am      2 SEC2        0.0000 
     37 N          14.3150   -6.2710  -13.6190 N.am      7 SEP2        0.0000 
     38 CA         12.1335   -1.5270   -8.2080 C.3       5 GLC5        0.0000 
     39 CA         13.5490   -1.3370   -9.5670 C.3      15 GLL5        0.0000 
     40 CA         10.7180   -1.7170   -6.8490 C.3      10 GLP5        0.0000 
     41 CA         12.7120   -0.0895  -11.1050 C.3       5 GLC5        0.0000 
     42 CA         11.8750    1.1580  -12.6430 C.3      10 GLP5        0.0000 
     43 CA         13.0935   -1.3815   -7.0555 C.3       5 GLC5        0.0000 
     44 CA         14.5480   -0.9390   -8.4790 C.3      15 GLL5        0.0000 
     45 CA         11.6390   -1.8240   -5.6320 C.3      10 GLP5        0.0000 
     46 CA         14.3240    0.1455   -6.5795 C.3       5 GLC5        0.0000 
     47 CA         14.1000    1.2300   -4.6800 C.3      10 GLP5        0.0000 
     48 N          15.0390    1.4575   -7.4125 N.am      2 SEC2        0.0000 
     49 N          16.2830    0.5980   -6.9850 N.am     12 SEL2        0.0000 
     50 N          13.7950    2.3170   -7.8400 N.am      7 SEP2        0.0000 
     51 O          16.6655    1.8055   -7.0650 O.2       1 ALC1        0.0000 
     52 O          16.2830    0.5980   -6.9850 O.2      11 ALL1        0.0000 
     53 O          17.0480    3.0130   -7.1450 O.2       6 ALP1        0.0000 
     54 CA         15.4030   -3.5520   -7.0380 C.3       5 GLC5        0.0000 
     55 CA         16.2120   -1.8150   -7.1210 C.3      15 GLL5        0.0000 
     56 CA         14.5940   -5.2890   -6.9550 C.3      10 GLP5        0.0000 
     57 CA         20.9185   -6.5085   -7.2215 C.3       5 GLC5        0.0000 
     58 CA         18.7760   -5.9350   -7.0350 C.3      15 GLL5        0.0000 
     59 CA         23.0610   -7.0820   -7.4080 C.3      10 GLP5        0.0000 
     60 CA         17.2040   -7.4240   -6.8300 C.3       5 GLC5        0.0000 
     61 CA         15.6320   -8.9130   -6.6250 C.3      10 GLP5        0.0000 
     62 CA         18.8275   -7.9920   -6.4520 C.3       5 GLC5        0.0000 
     63 CA         18.8790  -10.0490   -5.8690 C.3      10 GLP5        0.0000 
     64 CA         20.2425   -5.9300   -5.6470 C.3       5 GLC5        0.0000 
     65 CA         21.7090   -5.9250   -4.2590 C.3      10 GLP5        0.0000 
     66 O          20.4960   -7.8020   -7.1570 O.2       1 ALC1        0.0000 
     67 O          19.3670   -6.8580   -7.7890 O.2      11 ALL1        0.0000 
     68 O          21.6250   -8.7460   -6.5250 O.2       6 ALP1        0.0000 
     69 N          19.8165   -6.5865   -4.9680 N.am      2 SEC2        0.0000 
     70 N          18.7890   -6.0390   -5.6980 N.am     12 SEL2        0.0000 
     71 N          20.8440   -7.1340   -4.2380 N.am      7 SEP2        0.0000 
     72 CA         16.3335   -4.9920   -3.9195 C.3       5 GLC5        0.0000 
     73 CA         18.2120   -5.1230   -4.9410 C.3      15 GLL5        0.0000 
     74 CA         14.4550   -4.8610   -2.8980 C.3      10 GLP5        0.0000 
     75 CA         17.8245   -6.7690   -4.0715 C.3       5 GLC5        0.0000 
     76 CA         17.4370   -8.4150   -3.2020 C.3      10 GLP5        0.0000 
     77 CA         19.3845   -5.0790   -3.5865 C.3       5 GLC5        0.0000 
     78 CA         20.5570   -5.0350   -2.2320 C.3      10 GLP5        0.0000 
     79 CA         17.5500   -3.5785   -3.7225 C.3       5 GLC5        0.0000 
     80 CA         16.8880   -2.0340   -2.5040 C.3      10 GLP5        0.0000 
     81 CA         18.5395   -2.0815   -6.1320 C.3       5 GLC5        0.0000 
     82 CA         17.5430   -3.9070   -6.7920 C.3      15 GLL5        0.0000 
     83 CA         19.5360   -0.2560   -5.4720 C.3      10 GLP5        0.0000 
     84 CA         14.1683   -3.1715   -8.6640 C.3       5 GLC5        0.0000 
     85 CA         14.2880   -5.2050   -8.3050 C.3      10 GLP5        0.0000 
     86 CA         15.2760    0.0315   -6.0650 C.3       5 GLC5        0.0000 
     87 CA         17.9940   -0.7115   -6.4610 C.3       5 GLC5        0.0000 
     88 CA         16.6920   -0.5190   -7.7790 C.3      15 GLL5        0.0000 
@<TRIPOS>BOND
@<TRIPOS>SUBSTRUCTURE
     1 ALC1       51 GROUP        1 X    ALC  0     ROOT ALC X 1
     2 SEC2        1 GROUP        1 X    SEC  0     **** SEC X 2
     3 LYC4        8 GROUP        1 X    LYC  0     **** LYC X 4
     4 ZIC7       16 GROUP        1 X    ZIC  0     **** ZIC X 5
     5 GLC5       27 GROUP        1 X    GLC  0     **** GLC X 6
     6 ALP1       53 GROUP        1 Y    ALP  0     ROOT ALP Y 8
     7 SEP2        3 GROUP        1 Y    SEP  0     **** SEP Y 9
     8 LYP4       10 GROUP        1 Y    LYP  0     **** LYP Y 11
     9 ZIP7       18 GROUP        1 Y    ZIP  0     **** ZIP Y 12
    10 GLP5       29 GROUP        1 Y    GLP  0     **** GLP Y 13
    11 ALL1       52 GROUP        1 Z    ALL  0     ROOT ALL Z 15
    12 SEL2        2 GROUP        1 Z    SEL  0     **** SEL Z 16
    13 LYL4        9 GROUP        1 Z    LYL  0     **** LYL Z 18
    14 ZIL7       17 GROUP        1 Z    ZIL  0     **** ZIL Z 19
    15 GLL5       28 GROUP        1 Z    GLL  0     **** GLL Z 20
@<TRIPOS>SET

