#    Name: 3tlm_ACP_1_ligand
#    Modification time : Mon Mar 24 20:21:23 2014

@<TRIPOS>MOLECULE
3tlm_ACP_1_ligand
   45    47     1     0     0
SMALL
NO_CHARGES


@<TRIPOS>ATOM
      1 PG         15.3890   -0.2840  -15.7040 P.3       1 ACP1001     0.0000 
      2 O1G        15.8890    1.2130  -15.3940 O.co2     1 ACP1001     0.0000 
      3 O2G        13.9170   -0.3990  -15.8090 O.co2     1 ACP1001     0.0000 
      4 O3G        16.1450   -0.6880  -17.0650 O.co2     1 ACP1001     0.0000 
      5 PB         15.6800   -0.8470  -12.7640 P.3       1 ACP1001     0.0000 
      6 O1B        15.9120    0.6070  -12.6270 O.co2     1 ACP1001     0.0000 
      7 O2B        16.4040   -1.7530  -11.8440 O.co2     1 ACP1001     0.0000 
      8 C3B        16.1010   -1.3710  -14.4440 C.3       1 ACP1001     0.0000 
      9 PA         13.5610   -2.4730  -11.9380 P.3       1 ACP1001     0.0000 
     10 O1A        14.2000   -3.6320  -12.6000 O.co2     1 ACP1001     0.0000 
     11 O2A        12.0830   -2.3960  -11.9130 O.co2     1 ACP1001     0.0000 
     12 O3A        14.1010   -1.1370  -12.6540 O.3       1 ACP1001     0.0000 
     13 O5'        14.1070   -2.3300  -10.4310 O.3       1 ACP1001     0.0000 
     14 C5'        13.5490   -1.3370   -9.5670 C.3       1 ACP1001     0.0000 
     15 C4'        14.5480   -0.9390   -8.4790 C.3       1 ACP1001     0.0000 
     16 O4'        14.8650   -2.0200   -7.5880 O.3       1 ACP1001     0.0000 
     17 C3'        15.8960   -0.5490   -9.0810 C.3       1 ACP1001     0.0000 
     18 O3'        15.8070    0.7680   -9.6310 O.3       1 ACP1001     0.0000 
     19 C2'        16.6920   -0.5190   -7.7790 C.3       1 ACP1001     0.0000 
     20 O2'        16.2830    0.5980   -6.9850 O.3       1 ACP1001     0.0000 
     21 C1'        16.2120   -1.8150   -7.1210 C.3       1 ACP1001     0.0000 
     22 N9         17.0040   -2.9800   -7.5790 N.pl3     1 ACP1001     0.0000 
     23 C8         17.2600   -3.3110   -8.8420 C.2       1 ACP1001     0.0000 
     24 N7         17.9510   -4.4490   -8.8750 N.2       1 ACP1001     0.0000 
     25 C5         18.1410   -4.8470   -7.6210 C.ar      1 ACP1001     0.0000 
     26 C6         18.7760   -5.9350   -7.0350 C.ar      1 ACP1001     0.0000 
     27 N6         19.3670   -6.8580   -7.7890 N.pl3     1 ACP1001     0.0000 
     28 N1         18.7890   -6.0390   -5.6980 N.ar      1 ACP1001     0.0000 
     29 C2         18.2120   -5.1230   -4.9410 C.ar      1 ACP1001     0.0000 
     30 N3         17.5980   -4.0740   -5.4640 N.ar      1 ACP1001     0.0000 
     31 C4         17.5430   -3.9070   -6.7920 C.ar      1 ACP1001     0.0000 
     32 H          17.1320   -1.2975  -14.5321 H         1 ACP1001     0.0000 
     33 H          15.6771   -2.3078  -14.5816 H         1 ACP1001     0.0000 
     34 H          12.6386   -1.6996   -9.0668 H         1 ACP1001     0.0000 
     35 H          13.2771   -0.4251  -10.1193 H         1 ACP1001     0.0000 
     36 H          14.1781   -0.0918   -7.9364 H         1 ACP1001     0.0000 
     37 H          16.2350   -1.2900   -9.6816 H         1 ACP1001     0.0000 
     38 H          17.6969   -0.5869   -7.9823 H         1 ACP1001     0.0000 
     39 H          16.2436   -1.7133   -6.0762 H         1 ACP1001     0.0000 
     40 H          16.9826   -2.7961   -9.6289 H         1 ACP1001     0.0000 
     41 H          20.1434   -7.3333   -7.3750 H         1 ACP1001     0.0000 
     42 H          18.9815   -6.9934   -8.7017 H         1 ACP1001     0.0000 
     43 H          18.2412   -5.2305   -3.8842 H         1 ACP1001     0.0000 
     44 H          15.8310    0.6366  -10.6220 H         1 ACP1001     0.0000 
     45 H          16.8342    1.3648   -7.3138 H         1 ACP1001     0.0000 
@<TRIPOS>BOND
     1    2    1 ar   
     2    3    1 ar   
     3    4    1 ar   
     4    8    1 1    
     5    6    5 ar   
     6    7    5 ar   
     7    8    5 1    
     8   12    5 1    
     9   32    8 1    
    10   33    8 1    
    11   10    9 ar   
    12   11    9 ar   
    13   12    9 1    
    14   13    9 1    
    15   14   13 1    
    16   15   14 1    
    17   34   14 1    
    18   35   14 1    
    19   16   15 1    
    20   17   15 1    
    21   36   15 1    
    22   21   16 1    
    23   18   17 1    
    24   19   17 1    
    25   37   17 1    
    26   44   18 1    
    27   20   19 1    
    28   21   19 1    
    29   38   19 1    
    30   45   20 1    
    31   22   21 1    
    32   39   21 1    
    33   23   22 1    
    34   31   22 1    
    35   24   23 2    
    36   40   23 1    
    37   25   24 1    
    38   26   25 ar   
    39   31   25 ar   
    40   27   26 1    
    41   28   26 ar   
    42   41   27 1    
    43   42   27 1    
    44   29   28 ar   
    45   30   29 ar   
    46   43   29 1    
    47   31   30 ar   
@<TRIPOS>SUBSTRUCTURE
     1 ACP1001     1 GROUP   
@<TRIPOS>SET

