#    Name: 4JTW_2_CAVITY_N1_ALL.mol2
#    Modification time : Tue Mar 11 08:59:55 2014

@<TRIPOS>MOLECULE
4JTW_2_CAVITY_N1_ALL.mol2
   63     0     5     0     0
SMALL
NO_CHARGES


@<TRIPOS>ATOM
      1 N         -15.8368  -21.4359  -14.4872 N.2       1 ALA2        0.0000 
      2 N         -17.7912  -21.8562  -13.7776 N.2       1 ALA2        0.0000 
      3 CA        -17.1941  -21.5407  -15.1170 C.3       4 GLY6        0.0000 
      4 CA        -19.7457  -22.2766  -13.0681 C.3       4 GLY6        0.0000 
      5 N         -19.1486  -21.9611  -14.4074 N.2       1 ALA2        0.0000 
      6 DU        -18.5514  -21.6456  -15.7468 H         5 CUB7        0.0000 
      7 CA        -17.9543  -21.3301  -17.0862 C.3       4 GLY6        0.0000 
      8 CZ        -21.1030  -22.3814  -13.6979 C.ar      3 PHE5        0.0000 
      9 CA        -20.5059  -22.0659  -15.0373 C.3       4 GLY6        0.0000 
     10 CA        -19.9088  -21.7505  -16.3766 C.3       4 GLY6        0.0000 
     11 CZ        -19.3116  -21.4350  -17.7160 C.ar      3 PHE5        0.0000 
     12 CZ        -18.7145  -21.1195  -19.0554 C.ar      3 PHE5        0.0000 
     13 CZ        -23.0574  -22.8018  -12.9883 C.ar      3 PHE5        0.0000 
     14 CA        -22.4603  -22.4863  -14.3277 C.3       4 GLY6        0.0000 
     15 CA        -21.8632  -22.1708  -15.6671 C.3       4 GLY6        0.0000 
     16 CA        -21.2661  -21.8553  -17.0065 C.3       4 GLY6        0.0000 
     17 CA        -20.6690  -21.5398  -18.3458 C.3       4 GLY6        0.0000 
     18 CA        -24.4148  -22.9066  -13.6182 C.3       4 GLY6        0.0000 
     19 CA        -23.8176  -22.5911  -14.9575 C.3       4 GLY6        0.0000 
     20 CA        -23.2205  -22.2757  -16.2969 C.3       4 GLY6        0.0000 
     21 OD1       -16.7419  -24.4661  -15.6045 O.3       2 ASP3        0.0000 
     22 N         -16.1448  -24.1507  -16.9438 N.2       1 ALA2        0.0000 
     23 CA        -17.5651  -23.3189  -14.0214 C.3       4 GLY6        0.0000 
     24 CA        -16.9680  -23.0034  -15.3607 C.3       4 GLY6        0.0000 
     25 CA        -19.5196  -23.7393  -13.3118 C.3       4 GLY6        0.0000 
     26 DU        -18.9225  -23.4238  -14.6512 H         5 CUB7        0.0000 
     27 DU        -18.3253  -23.1083  -15.9905 H         5 CUB7        0.0000 
     28 CA        -17.7282  -22.7928  -17.3299 C.3       4 GLY6        0.0000 
     29 CA        -17.1311  -22.4773  -18.6693 C.3       4 GLY6        0.0000 
     30 DU        -20.8769  -23.8441  -13.9416 H         5 CUB7        0.0000 
     31 DU        -20.2798  -23.5286  -15.2810 H         5 CUB7        0.0000 
     32 DU        -19.6827  -23.2132  -16.6204 H         5 CUB7        0.0000 
     33 O         -19.0856  -22.8977  -17.9597 O.2       1 ALA2        0.0000 
     34 CZ        -18.4884  -22.5822  -19.2991 C.ar      3 PHE5        0.0000 
     35 DU        -22.2342  -23.9490  -14.5714 H         5 CUB7        0.0000 
     36 DU        -21.6371  -23.6335  -15.9108 H         5 CUB7        0.0000 
     37 CA        -21.0400  -23.3180  -17.2502 C.3       4 GLY6        0.0000 
     38 CA        -20.4429  -23.0025  -18.5896 C.3       4 GLY6        0.0000 
     39 DU        -23.5916  -24.0538  -15.2013 H         5 CUB7        0.0000 
     40 DU        -22.9944  -23.7384  -16.5406 H         5 CUB7        0.0000 
     41 CA        -22.3973  -23.4229  -17.8800 C.3       4 GLY6        0.0000 
     42 DU        -18.6964  -24.8865  -14.8949 H         5 CUB7        0.0000 
     43 DU        -18.0993  -24.5710  -16.2343 H         5 CUB7        0.0000 
     44 O         -17.5021  -24.2555  -17.5737 O.2       1 ALA2        0.0000 
     45 DU        -20.0537  -24.9913  -15.5247 H         5 CUB7        0.0000 
     46 O         -19.4566  -24.6758  -16.8641 O.2       1 ALA2        0.0000 
     47 O         -18.8595  -24.3604  -18.2035 O.2       1 ALA2        0.0000 
     48 DU        -21.4110  -25.0962  -16.1545 H         5 CUB7        0.0000 
     49 CA        -20.8139  -24.7807  -17.4939 C.3       4 GLY6        0.0000 
     50 O         -17.4202  -20.0780  -14.8733 O.2       1 ALA2        0.0000 
     51 CA        -16.8231  -19.7626  -16.2126 C.3       4 GLY6        0.0000 
     52 CZ        -19.9718  -20.8139  -12.8243 C.ar      3 PHE5        0.0000 
     53 N         -19.3747  -20.4984  -14.1637 N.2       1 ALA2        0.0000 
     54 O         -18.7775  -20.1829  -15.5031 O.2       1 ALA2        0.0000 
     55 CA        -18.1804  -19.8674  -16.8425 C.3       4 GLY6        0.0000 
     56 CA        -20.7320  -20.6032  -14.7935 C.3       4 GLY6        0.0000 
     57 CA        -20.1349  -20.2878  -16.1329 C.3       4 GLY6        0.0000 
     58 CA        -19.5377  -19.9723  -17.4723 C.3       4 GLY6        0.0000 
     59 CZ        -18.9406  -19.6568  -18.8117 C.ar      3 PHE5        0.0000 
     60 CA        -22.6864  -21.0236  -14.0840 C.3       4 GLY6        0.0000 
     61 CA        -24.6409  -21.4439  -13.3744 C.3       4 GLY6        0.0000 
     62 OD1       -19.0036  -18.7202  -15.2594 O.3       2 ASP3        0.0000 
     63 O         -18.4065  -18.4047  -16.5987 O.2       1 ALA2        0.0000 
@<TRIPOS>BOND
@<TRIPOS>SUBSTRUCTURE
     1 ALA2        1 GROUP   
     2 ASP3       21 GROUP   
     3 PHE5        8 GROUP   
     4 GLY6        3 GROUP   
     5 CUB7        6 GROUP   
@<TRIPOS>SET

