#    Name: 4jtw_1NU_2_INTS_M
#    Modification time : Tue Mar 25 06:19:47 2014

@<TRIPOS>MOLECULE
4jtw_1NU_2_INTS_M
   71     0     6     0     0
SMALL
NO_CHARGES


@<TRIPOS>ATOM
      1 CA        -19.9865  -18.3830  -18.5670 C.3       2 GLC5        0.0000 
      2 CA        -18.7430  -19.2120  -17.1070 C.3       6 GLL5        0.0000 
      3 CA        -21.2300  -17.5540  -20.0270 C.3       4 GLP5        0.0000 
      4 N         -21.1045  -23.3770  -11.0870 N.am      1 SEC2        0.0000 
      5 N         -21.4690  -23.5820  -12.4130 N.am      5 SEL2        0.0000 
      6 N         -20.7400  -23.1720   -9.7610 N.am      3 SEP2        0.0000 
      7 N         -23.5465  -22.6535  -10.4925 N.am      1 SEC2        0.0000 
      8 N         -23.7100  -23.4660  -11.9430 N.am      5 SEL2        0.0000 
      9 N         -23.3830  -21.8410   -9.0420 N.am      3 SEP2        0.0000 
     10 CA        -28.3845  -19.0295  -16.4855 C.3       2 GLC5        0.0000 
     11 CA        -28.0020  -20.6520  -16.6950 C.3       6 GLL5        0.0000 
     12 CA        -28.7670  -17.4070  -16.2760 C.3       4 GLP5        0.0000 
     13 CA        -30.1280  -22.2560  -18.5600 C.3       2 GLC5        0.0000 
     14 CA        -28.2980  -23.1460  -19.2870 C.3       6 GLL5        0.0000 
     15 CA        -31.9580  -21.3660  -17.8330 C.3       4 GLP5        0.0000 
     16 CA        -19.3420  -17.2575  -19.0120 C.3       2 GLC5        0.0000 
     17 CA        -18.5160  -17.9800  -17.5820 C.3       6 GLL5        0.0000 
     18 CA        -20.1680  -16.5350  -20.4420 C.3       4 GLP5        0.0000 
     19 CA        -17.3445  -18.0920  -18.7790 C.3       2 GLC5        0.0000 
     20 CA        -16.1730  -18.2040  -19.9760 C.3       4 GLP5        0.0000 
     21 CA        -28.4520  -19.4740  -20.4040 C.3       2 GLC5        0.0000 
     22 CA        -28.4210  -20.3070  -18.8090 C.3       6 GLL5        0.0000 
     23 CA        -28.4830  -18.6410  -21.9990 C.3       4 GLP5        0.0000 
     24 CA        -24.5445  -20.4065  -18.7260 C.3       2 GLC5        0.0000 
     25 CA        -26.3380  -20.4810  -18.1190 C.3       6 GLL5        0.0000 
     26 CA        -22.7510  -20.3320  -19.3330 C.3       4 GLP5        0.0000 
     27 CA        -18.6895  -21.4775  -12.1105 C.3       2 GLC5        0.0000 
     28 CA        -18.6850  -20.9820  -13.9300 C.3       6 GLL5        0.0000 
     29 CA        -18.6940  -21.9730  -10.2910 C.3       4 GLP5        0.0000 
     30 CA        -20.2445  -19.9590  -13.0475 C.3       2 GLC5        0.0000 
     31 CA        -21.8040  -18.9360  -12.1650 C.3       4 GLP5        0.0000 
     32 CA        -20.4700  -22.7250  -19.8860 C.3       2 GLC5        0.0000 
     33 CA        -19.7340  -22.4770  -18.3690 C.3       6 GLL5        0.0000 
     34 CA        -21.2060  -22.9730  -21.4030 C.3       4 GLP5        0.0000 
     35 CA        -18.3050  -21.4475  -19.5075 C.3       2 GLC5        0.0000 
     36 CA        -16.8760  -20.4180  -20.6460 C.3       4 GLP5        0.0000 
     37 CA        -20.6695  -19.6743  -15.6790 C.3       2 GLC5        0.0000 
     38 CA        -18.5910  -19.4670  -15.7220 C.3       6 GLL5        0.0000 
     39 CA        -22.6260  -19.2290  -15.8800 C.3       4 GLP5        0.0000 
     40 CA        -16.8955  -20.2578  -17.1683 C.3       2 GLC5        0.0000 
     41 CA        -15.1240  -21.1760  -17.9220 C.3       4 GLP5        0.0000 
     42 CA        -20.7810  -19.4755  -16.7160 C.3       2 GLC5        0.0000 
     43 CA        -18.4748  -16.7625  -17.0922 C.3       2 GLC5        0.0000 
     44 CA        -18.3200  -14.9290  -16.8400 C.3       4 GLP5        0.0000 
     45 CA        -17.1863  -21.0280  -17.8335 C.3       2 GLC5        0.0000 
     46 CA        -19.1290  -20.2320  -17.9970 C.3       6 GLL5        0.0000 
     47 CA        -20.9630  -20.4550  -16.3368 C.3       2 GLC5        0.0000 
     48 CA        -19.3680  -21.5280  -17.4930 C.3       6 GLL5        0.0000 
     49 CA        -26.5555  -22.8690  -14.5587 C.3       2 GLC5        0.0000 
     50 CA        -24.5450  -23.1200  -14.5680 C.3       6 GLL5        0.0000 
     51 CA        -28.3840  -22.7050  -13.8750 C.3       4 GLP5        0.0000 
     52 CA        -24.6960  -21.2275  -15.1639 C.3       2 GLC5        0.0000 
     53 CA        -24.9090  -22.9460  -15.9170 C.3       6 GLL5        0.0000 
     54 CA        -25.0090  -19.3870  -15.1750 C.3       4 GLP5        0.0000 
     55 CA        -22.8607  -21.1281  -16.1376 C.3       2 GLC5        0.0000 
     56 CA        -23.8910  -22.9120  -16.9200 C.3       6 GLL5        0.0000 
     57 CA        -22.9752  -21.6575  -18.0347 C.3       2 GLC5        0.0000 
     58 CA        -22.5080  -23.0540  -16.5530 C.3       6 GLL5        0.0000 
     59 CA        -22.6777  -23.9880  -18.5008 C.3       2 GLC5        0.0000 
     60 CA        -22.1560  -24.9930  -20.2650 C.3       4 GLP5        0.0000 
     61 CA        -27.6598  -23.4175  -15.6037 C.3       2 GLC5        0.0000 
     62 CA        -26.9270  -23.4230  -17.2350 C.3       6 GLL5        0.0000 
     63 CA        -28.0437  -22.1985  -15.8101 C.3       2 GLC5        0.0000 
     64 CA        -27.6100  -22.5480  -18.1660 C.3       6 GLL5        0.0000 
     65 CA        -29.8830  -20.2863  -18.2389 C.3       2 GLC5        0.0000 
     66 CA        -31.6570  -20.0010  -18.4110 C.3       4 GLP5        0.0000 
     67 CA        -26.0382  -20.0228  -16.4484 C.3       2 GLC5        0.0000 
     68 CA        -27.5920  -21.0200  -17.9540 C.3       6 GLL5        0.0000 
     69 CA        -27.5791  -18.8261  -17.8931 C.3       2 GLC5        0.0000 
     70 CA        -27.9860  -17.0800  -17.5360 C.3       4 GLP5        0.0000 
     71 CA        -21.1211  -21.0053  -18.6950 C.3       2 GLC5        0.0000 
@<TRIPOS>BOND
@<TRIPOS>SUBSTRUCTURE
     1 SEC2        4 GROUP        1 X    SEC  0     ROOT SEC X 2
     2 GLC5        1 GROUP        1 X    GLC  0     **** GLC X 6
     3 SEP2        6 GROUP        1 Y    SEP  0     ROOT SEP Y 9
     4 GLP5        3 GROUP        1 Y    GLP  0     **** GLP Y 13
     5 SEL2        5 GROUP        1 Z    SEL  0     ROOT SEL Z 16
     6 GLL5        2 GROUP        1 Z    GLL  0     **** GLL Z 20
@<TRIPOS>SET

