#    Name: 4jtw_1NU_2_ligand
#    Modification time : Tue Mar 25 06:19:47 2014

@<TRIPOS>MOLECULE
4jtw_1NU_2_ligand
   44    47     1     0     0
SMALL
NO_CHARGES


@<TRIPOS>ATOM
      1 C1        -18.8350  -20.7720  -15.2340 C.ar      1 1NU602      0.0000 
      2 C2        -18.5910  -19.4670  -15.7220 C.ar      1 1NU602      0.0000 
      3 C3        -18.7430  -19.2120  -17.1070 C.ar      1 1NU602      0.0000 
      4 C4        -19.1290  -20.2320  -17.9970 C.ar      1 1NU602      0.0000 
      5 C5        -19.3680  -21.5280  -17.4930 C.ar      1 1NU602      0.0000 
      6 C6        -19.2320  -21.8340  -16.0940 C.ar      1 1NU602      0.0000 
      7 C7        -19.5040  -23.2360  -15.5760 C.3       1 1NU602      0.0000 
      8 N8        -21.4690  -23.5820  -12.4130 N.2       1 1NU602      0.0000 
      9 C9        -20.5590  -23.5460  -13.3400 C.2       1 1NU602      0.0000 
     10 N10       -20.7200  -23.3750  -14.7050 N.pl3     1 1NU602      0.0000 
     11 C11       -22.0920  -23.2310  -15.1880 C.ar      1 1NU602      0.0000 
     12 C12       -23.1690  -23.2600  -14.2090 C.ar      1 1NU602      0.0000 
     13 C13       -24.5450  -23.1200  -14.5680 C.ar      1 1NU602      0.0000 
     14 C14       -24.9090  -22.9460  -15.9170 C.ar      1 1NU602      0.0000 
     15 C15       -23.8910  -22.9120  -16.9200 C.ar      1 1NU602      0.0000 
     16 C16       -22.5080  -23.0540  -16.5530 C.ar      1 1NU602      0.0000 
     17 C17       -22.8020  -23.4430  -12.7720 C.2       1 1NU602      0.0000 
     18 O18       -23.7100  -23.4660  -11.9430 O.2       1 1NU602      0.0000 
     19 F19       -28.0020  -20.6520  -16.6950 F         1 1NU602      0.0000 
     20 O20       -26.2750  -22.8100  -16.1570 O.3       1 1NU602      0.0000 
     21 C21       -26.9270  -23.4230  -17.2350 C.ar      1 1NU602      0.0000 
     22 C22       -26.9440  -24.8370  -17.4300 C.ar      1 1NU602      0.0000 
     23 C23       -27.6320  -25.3890  -18.5460 C.ar      1 1NU602      0.0000 
     24 C24       -28.3070  -24.5530  -19.4710 C.ar      1 1NU602      0.0000 
     25 C25       -28.2980  -23.1460  -19.2870 C.ar      1 1NU602      0.0000 
     26 C26       -27.6100  -22.5480  -18.1660 C.ar      1 1NU602      0.0000 
     27 C27       -27.5920  -21.0200  -17.9540 C.3       1 1NU602      0.0000 
     28 F28       -18.5160  -17.9800  -17.5820 F         1 1NU602      0.0000 
     29 F29       -28.4210  -20.3070  -18.8090 F         1 1NU602      0.0000 
     30 F30       -26.3380  -20.4810  -18.1190 F         1 1NU602      0.0000 
     31 F31       -18.6850  -20.9820  -13.9300 F         1 1NU602      0.0000 
     32 F32       -19.7340  -22.4770  -18.3690 F         1 1NU602      0.0000 
     33 H         -18.3117  -18.7253  -15.0912 H         1 1NU602      0.0000 
     34 H         -19.2344  -20.0392  -18.9885 H         1 1NU602      0.0000 
     35 H         -18.6098  -23.5848  -15.0140 H         1 1NU602      0.0000 
     36 H         -19.5971  -23.9224  -16.4462 H         1 1NU602      0.0000 
     37 H         -19.5054  -23.6649  -13.0290 H         1 1NU602      0.0000 
     38 H         -25.2577  -23.1474  -13.8391 H         1 1NU602      0.0000 
     39 H         -24.1417  -22.7873  -17.8962 H         1 1NU602      0.0000 
     40 H         -21.7926  -23.0281  -17.2914 H         1 1NU602      0.0000 
     41 H         -26.4655  -25.4454  -16.7725 H         1 1NU602      0.0000 
     42 H         -27.6387  -26.4047  -18.6814 H         1 1NU602      0.0000 
     43 H         -28.7966  -24.9602  -20.2647 H         1 1NU602      0.0000 
     44 H         -28.7813  -22.5379  -19.9501 H         1 1NU602      0.0000 
@<TRIPOS>BOND
     1    2    1 ar   
     2    6    1 ar   
     3   31    1 1    
     4    3    2 ar   
     5   33    2 1    
     6    4    3 ar   
     7   28    3 1    
     8    5    4 ar   
     9   34    4 1    
    10    6    5 ar   
    11   32    5 1    
    12    7    6 1    
    13   10    7 1    
    14   35    7 1    
    15   36    7 1    
    16    9    8 2    
    17   17    8 1    
    18   10    9 1    
    19   37    9 1    
    20   11   10 1    
    21   12   11 ar   
    22   16   11 ar   
    23   13   12 ar   
    24   17   12 1    
    25   14   13 ar   
    26   38   13 1    
    27   15   14 ar   
    28   20   14 1    
    29   16   15 ar   
    30   39   15 1    
    31   40   16 1    
    32   18   17 2    
    33   27   19 1    
    34   21   20 1    
    35   22   21 ar   
    36   26   21 ar   
    37   23   22 ar   
    38   41   22 1    
    39   24   23 ar   
    40   42   23 1    
    41   25   24 ar   
    42   43   24 1    
    43   26   25 ar   
    44   44   25 1    
    45   27   26 1    
    46   29   27 1    
    47   30   27 1    
@<TRIPOS>SUBSTRUCTURE
     1 1NU602      1 GROUP   
@<TRIPOS>SET

