#    Name: 3jv2_ADP_3_INTS_M
#    Modification time : Tue Mar 25 17:58:59 2014

@<TRIPOS>MOLECULE
3jv2_ADP_3_INTS_M
   59     0    15     0     0
SMALL
NO_CHARGES


@<TRIPOS>ATOM
      1 NZ         -1.9880   -1.2060  -29.2070 N.4       3 LYC4        0.0000 
      2 NZ         -1.7620   -2.3460  -27.6620 N.4      13 LYL4        0.0000 
      3 NZ         -2.2140   -0.0660  -30.7520 N.4       8 LYP4        0.0000 
      4 Zn         -0.6615   -2.4205  -27.3260 Zn        4 ZIC7        0.0000 
      5 Zn         -1.7620   -2.3460  -27.6620 Zn       14 ZIL7        0.0000 
      6 Zn          0.4390   -2.4950  -26.9900 Zn        9 ZIP7        0.0000 
      7 NZ         -2.7040   -1.3880  -30.2430 N.4       3 LYC4        0.0000 
      8 NZ         -3.1940   -2.7100  -29.7340 N.4      13 LYL4        0.0000 
      9 N          -2.7385   -3.7825  -30.1420 N.am      2 SEC2        0.0000 
     10 N          -3.1940   -2.7100  -29.7340 N.am     12 SEL2        0.0000 
     11 N          -2.2830   -4.8550  -30.5500 N.am      7 SEP2        0.0000 
     12 N          -2.7040   -1.3880  -30.2430 N.am      2 SEC2        0.0000 
     13 N          -2.2140   -0.0660  -30.7520 N.am      7 SEP2        0.0000 
     14 NZ         -3.0250   -0.5110  -29.3805 N.4       3 LYC4        0.0000 
     15 NZ         -3.8360   -0.9560  -28.0090 N.4      13 LYL4        0.0000 
     16 N          -5.0115   -0.7165  -28.5180 N.am      2 SEC2        0.0000 
     17 N          -3.8360   -0.9560  -28.0090 N.am     12 SEL2        0.0000 
     18 N          -6.1870   -0.4770  -29.0270 N.am      7 SEP2        0.0000 
     19 N          -1.3830   -5.7630  -28.2525 N.am      2 SEC2        0.0000 
     20 N          -2.5480   -5.4540  -27.3390 N.am     12 SEL2        0.0000 
     21 N          -0.2180   -6.0720  -29.1660 N.am      7 SEP2        0.0000 
     22 N          -1.2720   -5.5620  -26.8945 N.am      2 SEC2        0.0000 
     23 N           0.0040   -5.6700  -26.4500 N.am      7 SEP2        0.0000 
     24 N          -4.6120   -4.0065  -28.9685 N.am      2 SEC2        0.0000 
     25 N          -4.0360   -3.3810  -27.5610 N.am     12 SEL2        0.0000 
     26 N          -5.1880   -4.6320  -30.3760 N.am      7 SEP2        0.0000 
     27 CA         -6.6425   -3.1345  -27.5190 C.3       5 GLC5        0.0000 
     28 CA         -6.0760   -4.8100  -26.3370 C.3      15 GLL5        0.0000 
     29 CA         -7.2090   -1.4590  -28.7010 C.3      10 GLP5        0.0000 
     30 CA         -5.2495   -5.2930  -28.1260 C.3       5 GLC5        0.0000 
     31 CA         -4.4230   -5.7760  -29.9150 C.3      10 GLP5        0.0000 
     32 N          -8.3320   -6.7440  -22.7705 N.am      2 SEC2        0.0000 
     33 N          -6.9450   -6.7470  -23.3640 N.am     12 SEL2        0.0000 
     34 N          -9.7190   -6.7410  -22.1770 N.am      7 SEP2        0.0000 
     35 N          -5.7055   -9.2390  -30.5350 N.am      2 SEC2        0.0000 
     36 N          -6.3280   -9.4890  -29.2820 N.am     12 SEL2        0.0000 
     37 N          -5.0830   -8.9890  -31.7880 N.am      7 SEP2        0.0000 
     38 CA         -7.5375  -12.5720  -28.5790 C.3       5 GLC5        0.0000 
     39 CA         -8.2420  -11.2250  -29.7500 C.3      15 GLL5        0.0000 
     40 CA         -6.8330  -13.9190  -27.4080 C.3      10 GLP5        0.0000 
     41 O          -8.2440  -12.9370  -31.7745 O.2       1 ALC1        0.0000 
     42 O          -7.8290  -11.7400  -30.9300 O.2      11 ALL1        0.0000 
     43 O          -8.6590  -14.1340  -32.6190 O.2       6 ALP1        0.0000 
     44 O          -7.1000  -11.0450  -31.9800 O.2       1 ALC1        0.0000 
     45 O          -6.3710  -10.3500  -33.0300 O.2       6 ALP1        0.0000 
     46 CA         -8.5440  -12.1230  -27.0970 C.3       5 GLC5        0.0000 
     47 CA         -9.8150  -11.1560  -27.9910 C.3      15 GLL5        0.0000 
     48 CA         -7.2730  -13.0900  -26.2030 C.3      10 GLP5        0.0000 
     49 CA         -6.7940   -3.6605  -24.6472 C.3       5 GLC5        0.0000 
     50 CA         -7.0040   -5.7180  -25.5400 C.3      15 GLL5        0.0000 
     51 CA         -7.0480   -2.0570  -23.3560 C.3      10 GLP5        0.0000 
     52 CA         -6.4347   -9.8087  -25.7852 C.3       5 GLC5        0.0000 
     53 CA         -6.0370   -7.8940  -25.2810 C.3      15 GLL5        0.0000 
     54 CA         -6.1920  -11.6770  -25.8850 C.3      10 GLP5        0.0000 
     55 CA         -6.9650  -10.8005  -27.1520 C.3       5 GLC5        0.0000 
     56 CA         -8.0080   -9.6770  -27.7810 C.3      15 GLL5        0.0000 
     57 CA         -6.0145  -11.5115  -29.4808 C.3       5 GLC5        0.0000 
     58 CA         -7.4680  -10.1710  -29.0570 C.3      15 GLL5        0.0000 
     59 CA         -4.1740  -12.3250  -29.5580 C.3      10 GLP5        0.0000 
@<TRIPOS>BOND
@<TRIPOS>SUBSTRUCTURE
     1 ALC1       41 GROUP        1 X    ALC  0     ROOT ALC X 1
     2 SEC2        9 GROUP        1 X    SEC  0     **** SEC X 2
     3 LYC4        1 GROUP        1 X    LYC  0     **** LYC X 4
     4 ZIC7        4 GROUP        1 X    ZIC  0     **** ZIC X 5
     5 GLC5       27 GROUP        1 X    GLC  0     **** GLC X 6
     6 ALP1       43 GROUP        1 Y    ALP  0     ROOT ALP Y 8
     7 SEP2       11 GROUP        1 Y    SEP  0     **** SEP Y 9
     8 LYP4        3 GROUP        1 Y    LYP  0     **** LYP Y 11
     9 ZIP7        6 GROUP        1 Y    ZIP  0     **** ZIP Y 12
    10 GLP5       29 GROUP        1 Y    GLP  0     **** GLP Y 13
    11 ALL1       42 GROUP        1 Z    ALL  0     ROOT ALL Z 15
    12 SEL2       10 GROUP        1 Z    SEL  0     **** SEL Z 16
    13 LYL4        2 GROUP        1 Z    LYL  0     **** LYL Z 18
    14 ZIL7        5 GROUP        1 Z    ZIL  0     **** ZIL Z 19
    15 GLL5       28 GROUP        1 Z    GLL  0     **** GLL Z 20
@<TRIPOS>SET

