#    Name: 3jv2_ADP_3_ligand
#    Modification time : Tue Mar 25 17:58:59 2014

@<TRIPOS>MOLECULE
3jv2_ADP_3_ligand
   39    41     1     0     0
SMALL
NO_CHARGES


@<TRIPOS>ATOM
      1 PB         -3.1340   -2.2610  -28.2920 P.3       1 ADP873      0.0000 
      2 O1B        -1.7620   -2.3460  -27.6620 O.co2     1 ADP873      0.0000 
      3 O2B        -3.1940   -2.7100  -29.7340 O.co2     1 ADP873      0.0000 
      4 O3B        -3.8360   -0.9560  -28.0090 O.co2     1 ADP873      0.0000 
      5 PA         -3.4320   -4.5020  -26.5660 P.3       1 ADP873      0.0000 
      6 O1A        -2.5480   -5.4540  -27.3390 O.co2     1 ADP873      0.0000 
      7 O2A        -2.8870   -3.8130  -25.3380 O.co2     1 ADP873      0.0000 
      8 O3A        -4.0360   -3.3810  -27.5610 O.3       1 ADP873      0.0000 
      9 O5'        -4.7510   -5.3110  -26.1450 O.3       1 ADP873      0.0000 
     10 C5'        -6.0760   -4.8100  -26.3370 C.3       1 ADP873      0.0000 
     11 C4'        -7.0040   -5.7180  -25.5400 C.3       1 ADP873      0.0000 
     12 O4'        -7.6750   -6.6370  -26.4100 O.3       1 ADP873      0.0000 
     13 C3'        -6.1960   -6.5670  -24.5710 C.3       1 ADP873      0.0000 
     14 O3'        -6.9450   -6.7470  -23.3640 O.3       1 ADP873      0.0000 
     15 C2'        -6.0370   -7.8940  -25.2810 C.3       1 ADP873      0.0000 
     16 O2'        -5.9140   -8.9530  -24.3360 O.3       1 ADP873      0.0000 
     17 C1'        -7.3180   -7.9870  -26.0900 C.3       1 ADP873      0.0000 
     18 N9         -7.1510   -8.7520  -27.3450 N.pl3     1 ADP873      0.0000 
     19 C8         -6.1530   -8.6310  -28.2410 C.2       1 ADP873      0.0000 
     20 N7         -6.3280   -9.4890  -29.2820 N.2       1 ADP873      0.0000 
     21 C5         -7.4680  -10.1710  -29.0570 C.ar      1 ADP873      0.0000 
     22 C6         -8.2420  -11.2250  -29.7500 C.ar      1 ADP873      0.0000 
     23 N6         -7.8290  -11.7400  -30.9300 N.pl3     1 ADP873      0.0000 
     24 N1         -9.3800  -11.6540  -29.1640 N.ar      1 ADP873      0.0000 
     25 C2         -9.8150  -11.1560  -27.9910 C.ar      1 ADP873      0.0000 
     26 N3         -9.1650  -10.1990  -27.3060 N.ar      1 ADP873      0.0000 
     27 C4         -8.0080   -9.6770  -27.7810 C.ar      1 ADP873      0.0000 
     28 H          -6.3776   -4.8476  -27.3771 H         1 ADP873      0.0000 
     29 H          -6.1866   -3.7998  -25.9610 H         1 ADP873      0.0000 
     30 H          -7.6926   -5.1290  -24.9838 H         1 ADP873      0.0000 
     31 H          -5.2567   -6.1288  -24.4287 H         1 ADP873      0.0000 
     32 H          -5.2204   -7.8144  -25.9515 H         1 ADP873      0.0000 
     33 H          -8.0758   -8.4330  -25.4746 H         1 ADP873      0.0000 
     34 H          -5.3985   -8.0104  -28.1608 H         1 ADP873      0.0000 
     35 H          -8.0867  -12.6892  -31.1101 H         1 ADP873      0.0000 
     36 H          -7.3025  -11.1259  -31.5179 H         1 ADP873      0.0000 
     37 H         -10.7229  -11.5415  -27.5847 H         1 ADP873      0.0000 
     38 H          -6.8744   -7.7232  -23.1589 H         1 ADP873      0.0000 
     39 H          -6.4404   -9.7091  -24.7248 H         1 ADP873      0.0000 
@<TRIPOS>BOND
     1    2    1 ar   
     2    3    1 ar   
     3    4    1 ar   
     4    8    1 1    
     5    6    5 ar   
     6    7    5 ar   
     7    8    5 1    
     8    9    5 1    
     9   10    9 1    
    10   11   10 1    
    11   28   10 1    
    12   29   10 1    
    13   12   11 1    
    14   13   11 1    
    15   30   11 1    
    16   17   12 1    
    17   14   13 1    
    18   15   13 1    
    19   31   13 1    
    20   38   14 1    
    21   16   15 1    
    22   17   15 1    
    23   32   15 1    
    24   39   16 1    
    25   18   17 1    
    26   33   17 1    
    27   19   18 1    
    28   27   18 1    
    29   20   19 2    
    30   34   19 1    
    31   21   20 1    
    32   22   21 ar   
    33   27   21 ar   
    34   23   22 1    
    35   24   22 ar   
    36   35   23 1    
    37   36   23 1    
    38   25   24 ar   
    39   26   25 ar   
    40   37   25 1    
    41   27   26 ar   
@<TRIPOS>SUBSTRUCTURE
     1 ADP873      1 GROUP   
@<TRIPOS>SET

