#    Name: 3bv3_P39_1_INTS_M
#    Modification time : Mon Mar 24 20:07:12 2014

@<TRIPOS>MOLECULE
3bv3_P39_1_INTS_M
  102     0     9     0     0
SMALL
NO_CHARGES


@<TRIPOS>ATOM
      1 CA          1.0465   36.8770   25.0700 C.3       3 GLC5        0.0000 
      2 CA          1.6060   34.9550   25.4500 C.3       9 GLL5        0.0000 
      3 CA          0.4870   38.7990   24.6900 C.3       6 GLP5        0.0000 
      4 CA          2.5080   35.9200   23.8980 C.3       3 GLC5        0.0000 
      5 CA          3.4100   36.8850   22.3460 C.3       6 GLP5        0.0000 
      6 CA         -3.7030   33.3200   22.3755 C.3       3 GLC5        0.0000 
      7 CA         -2.7630   35.1910   23.1740 C.3       9 GLL5        0.0000 
      8 CA         -4.6430   31.4490   21.5770 C.3       6 GLP5        0.0000 
      9 N          -0.9435   34.2930   15.9460 N.am      2 SEC2        0.0000 
     10 N          -1.8320   35.2570   16.7080 N.am      8 SEL2        0.0000 
     11 N          -0.0550   33.3290   15.1840 N.am      5 SEP2        0.0000 
     12 CA         -0.2210   36.8805   18.3285 C.3       3 GLC5        0.0000 
     13 CA         -2.0820   37.3640   17.6620 C.3       9 GLL5        0.0000 
     14 CA          1.6400   36.3970   18.9950 C.3       6 GLP5        0.0000 
     15 CA         -2.8910   40.3145   15.1215 C.3       3 GLC5        0.0000 
     16 CA         -1.5390   38.7350   15.9400 C.3       9 GLL5        0.0000 
     17 CA         -4.2430   41.8940   14.3030 C.3       6 GLP5        0.0000 
     18 CA         -4.0870   39.7910   17.8530 C.3       3 GLC5        0.0000 
     19 CA         -2.1680   40.0650   18.2810 C.3       9 GLL5        0.0000 
     20 CA         -6.0060   39.5170   17.4250 C.3       6 GLP5        0.0000 
     21 CA         -1.4600   39.5770   20.1790 C.3       3 GLC5        0.0000 
     22 CA         -0.7520   39.0890   22.0770 C.3       6 GLP5        0.0000 
     23 CA         -3.1445   41.8695   17.4285 C.3       3 GLC5        0.0000 
     24 CA         -4.1210   43.6740   16.5760 C.3       6 GLP5        0.0000 
     25 N          -1.6640   42.3060   15.6295 N.am      2 SEC2        0.0000 
     26 N          -1.5330   41.0780   15.3650 N.am      8 SEL2        0.0000 
     27 N          -1.7950   43.5340   15.8940 N.am      5 SEP2        0.0000 
     28 CA         -0.0005   41.9405   14.5435 C.3       3 GLC5        0.0000 
     29 CA         -0.6260   40.6740   13.0510 C.3       9 GLL5        0.0000 
     30 CA          0.6250   43.2070   16.0360 C.3       6 GLP5        0.0000 
     31 O          -3.5595   38.6595   20.4840 O.2       1 ALC1        0.0000 
     32 O          -2.8140   37.2500   20.0220 O.2       7 ALL1        0.0000 
     33 O          -4.3050   40.0690   20.9460 O.2       4 ALP1        0.0000 
     34 CA         -5.1175   33.6035   22.6290 C.3       3 GLC5        0.0000 
     35 CA         -4.1700   35.2330   23.4870 C.3       9 GLL5        0.0000 
     36 CA         -6.0650   31.9740   21.7710 C.3       6 GLP5        0.0000 
     37 CA         -5.8275   38.4400   18.9860 C.3       3 GLC5        0.0000 
     38 CA         -5.6490   37.3630   20.5470 C.3       9 GLL5        0.0000 
     39 CA         -7.7525   37.4515   19.8525 C.3       3 GLC5        0.0000 
     40 CA         -9.8560   37.5400   19.1580 C.3       6 GLP5        0.0000 
     41 CA         -4.9790   38.4525   21.9270 C.3       3 GLC5        0.0000 
     42 CA         -4.3090   39.5420   23.3070 C.3       6 GLP5        0.0000 
     43 O          -2.4845   33.6520   24.6070 O.2       1 ALC1        0.0000 
     44 O          -1.8860   34.5260   24.0210 O.2       7 ALL1        0.0000 
     45 O          -3.0830   32.7780   25.1930 O.2       4 ALP1        0.0000 
     46 N           1.3525   35.1620   22.7855 N.am      2 SEC2        0.0000 
     47 N          -0.0920   35.7840   23.3280 N.am      8 SEL2        0.0000 
     48 N           2.7970   34.5400   22.2430 N.am      5 SEP2        0.0000 
     49 CA          3.6175   36.5610   24.3515 C.3       3 GLC5        0.0000 
     50 CA          3.8250   36.2370   26.3570 C.3       9 GLL5        0.0000 
     51 CA          6.3040   37.1235   25.3080 C.3       3 GLC5        0.0000 
     52 CA          5.2620   36.6910   26.7640 C.3       9 GLL5        0.0000 
     53 CA          7.3460   37.5560   23.8520 C.3       6 GLP5        0.0000 
     54 CA          7.2870   35.1845   28.9745 C.3       3 GLC5        0.0000 
     55 CA          5.5030   34.9030   28.4070 C.3       9 GLL5        0.0000 
     56 CA          9.0710   35.4660   29.5420 C.3       6 GLP5        0.0000 
     57 CA          6.1610   34.3190   30.1685 C.3       3 GLC5        0.0000 
     58 CA          6.8190   33.7350   31.9300 C.3       6 GLP5        0.0000 
     59 CA          3.9265   33.2355   25.4140 C.3       3 GLC5        0.0000 
     60 CA          4.6850   34.0590   27.3560 C.3       9 GLL5        0.0000 
     61 CA          3.1680   32.4120   23.4720 C.3       6 GLP5        0.0000 
     62 CA         -3.4160   41.9642   12.6755 C.3       3 GLC5        0.0000 
     63 CA         -2.0570   42.0580   11.5180 C.3       9 GLL5        0.0000 
     64 CA          1.3813   41.5205   12.0700 C.3       3 GLC5        0.0000 
     65 CA          2.7850   42.4270   11.5170 C.3       6 GLP5        0.0000 
     66 CA         -3.9240   41.0207   12.4142 C.3       3 GLC5        0.0000 
     67 CA         -3.4320   39.5250   10.8110 C.3       9 GLL5        0.0000 
     68 CA         -4.6508   38.6881   11.5349 C.3       3 GLC5        0.0000 
     69 CA         -2.3860   39.5570   11.7340 C.3       9 GLL5        0.0000 
     70 CA         -6.3060   37.5240   11.9400 C.3       6 GLP5        0.0000 
     71 CA         -1.8097   37.6715   21.8198 C.3       3 GLC5        0.0000 
     72 CA         -3.3010   36.5990   21.1500 C.3       9 GLL5        0.0000 
     73 CA         -0.0912   35.7290   26.4735 C.3       3 GLC5        0.0000 
     74 CA          0.3770   34.2810   25.0320 C.3       9 GLL5        0.0000 
     75 CA         -1.1740   36.8400   27.7060 C.3       6 GLP5        0.0000 
     76 CA         -3.4152   35.4220   25.3208 C.3       3 GLC5        0.0000 
     77 CA         -3.3640   35.6320   27.3110 C.3       6 GLP5        0.0000 
     78 CA         -4.0045   38.7920   17.4648 C.3       3 GLC5        0.0000 
     79 CA         -0.8255   41.0027   17.6110 C.3       3 GLC5        0.0000 
     80 CA         -1.9240   38.7700   17.3470 C.3       9 GLL5        0.0000 
     81 CA          0.3950   42.5880   17.4080 C.3       6 GLP5        0.0000 
     82 CA         -2.7894   41.1561   13.3914 C.3       3 GLC5        0.0000 
     83 CA         -6.1465   35.4635   24.0288 C.3       3 GLC5        0.0000 
     84 CA         -5.0760   35.9430   22.6320 C.3       9 GLL5        0.0000 
     85 CA         -7.6700   35.3390   24.9980 C.3       6 GLP5        0.0000 
     86 CA         -4.4660   37.5650   23.1833 C.3       3 GLC5        0.0000 
     87 CA         -3.7589   37.9027   22.4720 C.3       3 GLC5        0.0000 
     88 CA         -6.2335   35.3407   20.9068 C.3       3 GLC5        0.0000 
     89 CA         -4.6660   36.6370   21.4480 C.3       9 GLL5        0.0000 
     90 CA         -7.2070   33.8550   20.5200 C.3       6 GLP5        0.0000 
     91 CA         -1.1447   32.4125   26.7100 C.3       3 GLC5        0.0000 
     92 CA          1.0180   32.4280   26.3940 C.3       9 GLL5        0.0000 
     93 CA         -2.8710   32.1130   27.4550 C.3       6 GLP5        0.0000 
     94 CA          4.4087   38.2460   27.1378 C.3       3 GLC5        0.0000 
     95 CA          4.2740   40.0280   27.7150 C.3       6 GLP5        0.0000 
     96 CA          5.9432   35.2430   25.6788 C.3       3 GLC5        0.0000 
     97 CA          7.3430   34.0220   24.7970 C.3       6 GLP5        0.0000 
     98 CA          3.9165   33.6440   29.5328 C.3       3 GLC5        0.0000 
     99 CA          2.7390   32.8070   31.1840 C.3       6 GLP5        0.0000 
    100 CA          6.2185   34.2515   26.3392 C.3       3 GLC5        0.0000 
    101 CA          2.1356   32.9288   24.6951 C.3       3 GLC5        0.0000 
    102 CA          2.4440   34.3440   26.3030 C.3       9 GLL5        0.0000 
@<TRIPOS>BOND
@<TRIPOS>SUBSTRUCTURE
     1 ALC1       31 GROUP        1 X    ALC  0     ROOT ALC X 1
     2 SEC2        9 GROUP        1 X    SEC  0     **** SEC X 2
     3 GLC5        1 GROUP        1 X    GLC  0     **** GLC X 6
     4 ALP1       33 GROUP        1 Y    ALP  0     ROOT ALP Y 8
     5 SEP2       11 GROUP        1 Y    SEP  0     **** SEP Y 9
     6 GLP5        3 GROUP        1 Y    GLP  0     **** GLP Y 13
     7 ALL1       32 GROUP        1 Z    ALL  0     ROOT ALL Z 15
     8 SEL2       10 GROUP        1 Z    SEL  0     **** SEL Z 16
     9 GLL5        2 GROUP        1 Z    GLL  0     **** GLL Z 20
@<TRIPOS>SET

