#    Name: 3bv3_P39_1_ligand
#    Modification time : Mon Mar 24 20:07:13 2014

@<TRIPOS>MOLECULE
3bv3_P39_1_ligand
   79    84     1     0     0
SMALL
NO_CHARGES


@<TRIPOS>ATOM
      1 C18        -3.1210   42.0110   10.5780 C.ar      1 P39501      0.0000 
      2 C17        -2.0570   42.0580   11.5180 C.ar      1 P39501      0.0000 
      3 C16        -1.7050   40.7680   12.0830 C.ar      1 P39501      0.0000 
      4 C15         0.5810   40.5540   12.1950 C.3       1 P39501      0.0000 
      5 C19        -3.7780   40.7700   10.2400 C.ar      1 P39501      0.0000 
      6 C20        -3.4320   39.5250   10.8110 C.ar      1 P39501      0.0000 
      7 C21        -2.3860   39.5570   11.7340 C.ar      1 P39501      0.0000 
      8 C23        -3.3010   36.5990   21.1500 C.ar      1 P39501      0.0000 
      9 C24        -4.6660   36.6370   21.4480 C.ar      1 P39501      0.0000 
     10 C11        -1.3300   39.8620   15.0570 C.2       1 P39501      0.0000 
     11 C34         1.6060   34.9550   25.4500 C.ar      1 P39501      0.0000 
     12 C27        -2.7630   35.1910   23.1740 C.ar      1 P39501      0.0000 
     13 C33         0.3770   34.2810   25.0320 C.ar      1 P39501      0.0000 
     14 N1         -1.7780   36.5650   16.5530 N.pl3     1 P39501      0.0000 
     15 N2         -1.8320   35.2570   16.7080 N.2       1 P39501      0.0000 
     16 C3         -2.2080   34.6090   17.8390 C.2       1 P39501      0.0000 
     17 N4         -2.5160   35.3560   18.9560 N.2       1 P39501      0.0000 
     18 C5         -2.4580   36.6280   18.8230 C.2       1 P39501      0.0000 
     19 C6         -2.0820   37.3640   17.6620 C.2       1 P39501      0.0000 
     20 C7         -1.9240   38.7700   17.3470 C.2       1 P39501      0.0000 
     21 C8         -1.5390   38.7350   15.9400 C.2       1 P39501      0.0000 
     22 C9         -1.4600   37.3440   15.5180 C.2       1 P39501      0.0000 
     23 C10        -2.1680   40.0650   18.2810 C.3       1 P39501      0.0000 
     24 O12        -1.5330   41.0780   15.3650 O.2       1 P39501      0.0000 
     25 N13        -1.0070   39.5390   13.8130 N.am      1 P39501      0.0000 
     26 C14        -0.6260   40.6740   13.0510 C.3       1 P39501      0.0000 
     27 N22        -2.8140   37.2500   20.0220 N.pl3     1 P39501      0.0000 
     28 C25        -5.0760   35.9430   22.6320 C.ar      1 P39501      0.0000 
     29 C26        -4.1700   35.2330   23.4870 C.ar      1 P39501      0.0000 
     30 C28        -2.4340   35.9090   21.9750 C.ar      1 P39501      0.0000 
     31 C29        -5.6490   37.3630   20.5470 C.3       1 P39501      0.0000 
     32 N30        -1.8860   34.5260   24.0210 N.am      1 P39501      0.0000 
     33 C31        -0.6110   34.9410   24.0770 C.2       1 P39501      0.0000 
     34 O32        -0.0920   35.7840   23.3280 O.2       1 P39501      0.0000 
     35 C35         2.4440   34.3440   26.3030 C.ar      1 P39501      0.0000 
     36 C36         2.0730   33.1370   26.7000 C.ar      1 P39501      0.0000 
     37 C37         1.0180   32.4280   26.3940 C.ar      1 P39501      0.0000 
     38 C38         0.1450   32.9960   25.5360 C.ar      1 P39501      0.0000 
     39 N39         3.6130   34.8840   26.7000 N.3       1 P39501      0.0000 
     40 C40         3.8250   36.2370   26.3570 C.3       1 P39501      0.0000 
     41 C41         5.2620   36.6910   26.7640 C.3       1 P39501      0.0000 
     42 O42         6.0890   35.8790   27.5880 O.3       1 P39501      0.0000 
     43 C43         5.5030   34.9030   28.4070 C.3       1 P39501      0.0000 
     44 C44         4.6850   34.0590   27.3560 C.3       1 P39501      0.0000 
     45 H          -3.4379   42.8741   10.1226 H         1 P39501      0.0000 
     46 H          -1.5950   42.8746   11.7713 H         1 P39501      0.0000 
     47 H          -4.5450   40.8084    9.5376 H         1 P39501      0.0000 
     48 H          -3.9064   38.6883   10.5664 H         1 P39501      0.0000 
     49 H          -2.0782   38.6783   12.1936 H         1 P39501      0.0000 
     50 H           1.7781   35.8875   25.0639 H         1 P39501      0.0000 
     51 H          -2.2651   33.5848   17.8727 H         1 P39501      0.0000 
     52 H          -1.2146   37.1013   14.6314 H         1 P39501      0.0000 
     53 H          -1.0139   38.6406   13.4184 H         1 P39501      0.0000 
     54 H          -0.6077   41.5675   13.6127 H         1 P39501      0.0000 
     55 H          -2.7026   38.3075   20.0738 H         1 P39501      0.0000 
     56 H          -6.0841   35.9543   22.8855 H         1 P39501      0.0000 
     57 H          -4.5154   34.7589   24.3132 H         1 P39501      0.0000 
     58 H          -1.3935   35.8962   21.7069 H         1 P39501      0.0000 
     59 H          -2.2266   33.7371   24.5828 H         1 P39501      0.0000 
     60 H           2.7860   32.6454   27.4183 H         1 P39501      0.0000 
     61 H           0.8449   31.4921   26.7730 H         1 P39501      0.0000 
     62 H          -0.7116   32.4944   25.2339 H         1 P39501      0.0000 
     63 H           3.1256   36.9158   26.8652 H         1 P39501      0.0000 
     64 H           3.7328   36.4180   25.2767 H         1 P39501      0.0000 
     65 H           5.1337   37.7333   27.2216 H         1 P39501      0.0000 
     66 H           5.7924   36.9411   25.7799 H         1 P39501      0.0000 
     67 H           4.7985   35.2907   29.1027 H         1 P39501      0.0000 
     68 H           6.2028   34.2390   28.8542 H         1 P39501      0.0000 
     69 H           5.3889   33.6857   26.6129 H         1 P39501      0.0000 
     70 H           4.2471   33.2115   27.8823 H         1 P39501      0.0000 
     71 H           1.4167   40.4817   12.7394 H         1 P39501      0.0000 
     72 H           0.5419   39.7445   11.6092 H         1 P39501      0.0000 
     73 H           0.6903   41.3457   11.5940 H         1 P39501      0.0000 
     74 H          -1.5786   40.0567   19.0888 H         1 P39501      0.0000 
     75 H          -1.9818   40.9167   17.7911 H         1 P39501      0.0000 
     76 H          -3.1119   40.1150   18.6074 H         1 P39501      0.0000 
     77 H          -5.4282   38.3347   20.4633 H         1 P39501      0.0000 
     78 H          -5.6553   36.9831   19.6220 H         1 P39501      0.0000 
     79 H          -6.5848   37.3039   20.8945 H         1 P39501      0.0000 
@<TRIPOS>BOND
     1    2    1 ar   
     2    5    1 ar   
     3   45    1 1    
     4    3    2 ar   
     5   46    2 1    
     6    7    3 ar   
     7   26    3 1    
     8   26    4 1    
     9   71    4 1    
    10   72    4 1    
    11   73    4 1    
    12    6    5 ar   
    13   47    5 1    
    14    7    6 ar   
    15   48    6 1    
    16   49    7 1    
    17    9    8 ar   
    18   27    8 1    
    19   30    8 ar   
    20   28    9 ar   
    21   31    9 1    
    22   21   10 1    
    23   24   10 2    
    24   25   10 am   
    25   13   11 ar   
    26   35   11 ar   
    27   50   11 1    
    28   29   12 ar   
    29   30   12 ar   
    30   32   12 1    
    31   33   13 1    
    32   38   13 ar   
    33   15   14 1    
    34   19   14 1    
    35   22   14 1    
    36   16   15 2    
    37   17   16 1    
    38   51   16 1    
    39   18   17 2    
    40   19   18 1    
    41   27   18 1    
    42   20   19 2    
    43   21   20 1    
    44   23   20 1    
    45   22   21 2    
    46   52   22 1    
    47   74   23 1    
    48   75   23 1    
    49   76   23 1    
    50   26   25 1    
    51   53   25 1    
    52   54   26 1    
    53   55   27 1    
    54   29   28 ar   
    55   56   28 1    
    56   57   29 1    
    57   58   30 1    
    58   77   31 1    
    59   78   31 1    
    60   79   31 1    
    61   33   32 am   
    62   59   32 1    
    63   34   33 2    
    64   36   35 ar   
    65   39   35 1    
    66   37   36 ar   
    67   60   36 1    
    68   38   37 ar   
    69   61   37 1    
    70   62   38 1    
    71   40   39 1    
    72   44   39 1    
    73   41   40 1    
    74   63   40 1    
    75   64   40 1    
    76   42   41 1    
    77   65   41 1    
    78   66   41 1    
    79   43   42 1    
    80   44   43 1    
    81   67   43 1    
    82   68   43 1    
    83   69   44 1    
    84   70   44 1    
@<TRIPOS>SUBSTRUCTURE
     1 P39501      1 GROUP   
@<TRIPOS>SET

