#    Name: 4djh_JDC_1_INTS_M
#    Modification time : Mon Apr  7 22:46:27 2014

@<TRIPOS>MOLECULE
4djh_JDC_1_INTS_M
   76     0     9     0     0
SMALL
NO_CHARGES


@<TRIPOS>ATOM
      1 CA          4.6880  -18.9870   59.8785 C.3       3 GLC5        0.0000 
      2 CA          3.2120  -20.4100   59.6680 C.3       9 GLL5        0.0000 
      3 CA          6.1640  -17.5640   60.0890 C.3       6 GLP5        0.0000 
      4 OD1         3.9460  -22.5870   58.4580 O.co2     2 ASC3        0.0000 
      5 OD1         2.9250  -21.7880   59.5580 O.co2     8 ASL3        0.0000 
      6 OD1         4.9670  -23.3860   57.3580 O.co2     5 ASP3        0.0000 
      7 OD1         4.2715  -22.0260   59.3395 O.co2     2 ASC3        0.0000 
      8 OD1         5.6180  -22.2640   59.1210 O.co2     5 ASP3        0.0000 
      9 O           3.4020  -23.6650   55.7900 O.2       1 ALC1        0.0000 
     10 O           2.5030  -24.1780   56.9210 O.2       7 ALL1        0.0000 
     11 O           4.3010  -23.1520   54.6590 O.2       4 ALP1        0.0000 
     12 CA          0.9975  -25.8730   58.2190 C.3       3 GLC5        0.0000 
     13 CA          2.4450  -25.5850   56.7110 C.3       9 GLL5        0.0000 
     14 CA         -0.4500  -26.1610   59.7270 C.3       6 GLP5        0.0000 
     15 CA         -0.1285  -25.6070   57.6360 C.3       3 GLC5        0.0000 
     16 CA          0.1930  -25.0530   55.5450 C.3       9 GLL5        0.0000 
     17 CA         -0.9195  -25.9650   54.2295 C.3       3 GLC5        0.0000 
     18 CA         -2.0320  -26.8770   52.9140 C.3       6 GLP5        0.0000 
     19 CA          3.4280  -27.0070   53.9755 C.3       3 GLC5        0.0000 
     20 CA          1.5760  -27.1070   54.8640 C.3       9 GLL5        0.0000 
     21 CA          5.2800  -26.9070   53.0870 C.3       6 GLP5        0.0000 
     22 CA         -0.2280  -26.9920   53.8890 C.3       3 GLC5        0.0000 
     23 CA          2.0550  -28.7355   54.4310 C.3       3 GLC5        0.0000 
     24 CA          2.5340  -30.3640   53.9980 C.3       6 GLP5        0.0000 
     25 CA          4.5455  -26.5650   54.8260 C.3       3 GLC5        0.0000 
     26 CA          3.8110  -26.2230   56.5650 C.3       9 GLL5        0.0000 
     27 CA          3.6760  -28.2030   56.3590 C.3       3 GLC5        0.0000 
     28 CA          3.5410  -30.1830   56.1530 C.3       6 GLP5        0.0000 
     29 OD1         4.8225  -24.8395   57.5965 O.co2     2 ASC3        0.0000 
     30 OD1         4.6780  -26.2930   57.8350 O.co2     8 ASL3        0.0000 
     31 O           4.8225  -24.8395   57.5965 O.2       1 ALC1        0.0000 
     32 O           4.6780  -26.2930   57.8350 O.2       7 ALL1        0.0000 
     33 O           4.9670  -23.3860   57.3580 O.2       4 ALP1        0.0000 
     34 CA          3.7920  -28.6095   57.5280 C.3       3 GLC5        0.0000 
     35 CA          4.0430  -27.0360   58.9030 C.3       9 GLL5        0.0000 
     36 CA          8.8875  -26.4280   59.7965 C.3       3 GLC5        0.0000 
     37 CA          6.7520  -26.2720   59.1520 C.3       9 GLL5        0.0000 
     38 CA         11.0230  -26.5840   60.4410 C.3       6 GLP5        0.0000 
     39 CA          7.2530  -28.0350   57.0755 C.3       3 GLC5        0.0000 
     40 CA          6.1150  -26.4610   57.8180 C.3       9 GLL5        0.0000 
     41 CA          8.3910  -29.6090   56.3330 C.3       6 GLP5        0.0000 
     42 CA          7.4070  -29.0435   58.0885 C.3       3 GLC5        0.0000 
     43 CA          6.4230  -28.4780   59.8440 C.3       9 GLL5        0.0000 
     44 CA          5.4535  -30.3065   59.9700 C.3       3 GLC5        0.0000 
     45 CA          4.4840  -32.1350   60.0960 C.3       6 GLP5        0.0000 
     46 CA          9.3320  -26.2640   65.4440 C.3       3 GLC5        0.0000 
     47 CA          7.8390  -26.3720   64.1480 C.3       9 GLL5        0.0000 
     48 CA         10.8250  -26.1560   66.7400 C.3       6 GLP5        0.0000 
     49 CA         10.0725  -25.6300   64.1875 C.3       3 GLC5        0.0000 
     50 CA          8.4410  -25.8010   63.0380 C.3       9 GLL5        0.0000 
     51 CA         11.7040  -25.4590   65.3370 C.3       6 GLP5        0.0000 
     52 CA          1.4912  -19.5620   57.1515 C.3       3 GLC5        0.0000 
     53 CA          0.9410  -19.9830   58.8450 C.3       9 GLL5        0.0000 
     54 CA          2.0950  -18.4240   55.6830 C.3       6 GLP5        0.0000 
     55 CA         -0.8213  -19.6867   60.1740 C.3       3 GLC5        0.0000 
     56 CA         -2.0320  -19.8540   61.6060 C.3       6 GLP5        0.0000 
     57 CA         -1.0916  -21.2225   58.4627 C.3       3 GLC5        0.0000 
     58 CA         -0.1620  -19.0560   58.6390 C.3       9 GLL5        0.0000 
     59 CA         -2.5460  -22.5670   58.2960 C.3       6 GLP5        0.0000 
     60 CA          1.2988  -18.1216   57.4715 C.3       3 GLC5        0.0000 
     61 CA          1.1110  -17.2580   59.6700 C.3       9 GLL5        0.0000 
     62 CA          3.0557  -18.5250   58.0101 C.3       3 GLC5        0.0000 
     63 CA          2.1660  -18.1470   59.8630 C.3       9 GLL5        0.0000 
     64 CA          3.7130  -17.9890   56.3140 C.3       6 GLP5        0.0000 
     65 CA          1.2711  -16.3716   58.3586 C.3       3 GLC5        0.0000 
     66 CA          1.1940  -14.9290   57.1030 C.3       6 GLP5        0.0000 
     67 CA         -0.0414  -17.6881   61.0001 C.3       3 GLC5        0.0000 
     68 CA         -1.4310  -17.5620   62.3860 C.3       6 GLP5        0.0000 
     69 CA          1.0533  -23.9100   54.4485 C.3       3 GLC5        0.0000 
     70 CA          1.2030  -22.4220   53.4100 C.3       6 GLP5        0.0000 
     71 CA          6.8707  -24.7308   58.0785 C.3       3 GLC5        0.0000 
     72 CA          7.3080  -23.0950   57.6720 C.3       6 GLP5        0.0000 
     73 CA          9.4492  -26.3432   61.3984 C.3       3 GLC5        0.0000 
     74 CA          7.8990  -26.0050   61.7540 C.3       9 GLL5        0.0000 
     75 CA          8.6145  -24.0185   62.3270 C.3       3 GLC5        0.0000 
     76 CA          9.0590  -22.1340   62.2580 C.3       6 GLP5        0.0000 
@<TRIPOS>BOND
@<TRIPOS>SUBSTRUCTURE
     1 ALC1        9 GROUP        1 X    ALC  0     ROOT ALC X 1
     2 ASC3        4 GROUP        1 X    ASC  0     **** ASC X 3
     3 GLC5        1 GROUP        1 X    GLC  0     **** GLC X 6
     4 ALP1       11 GROUP        1 Y    ALP  0     ROOT ALP Y 8
     5 ASP3        6 GROUP        1 Y    ASP  0     **** ASP Y 10
     6 GLP5        3 GROUP        1 Y    GLP  0     **** GLP Y 13
     7 ALL1       10 GROUP        1 Z    ALL  0     ROOT ALL Z 15
     8 ASL3        5 GROUP        1 Z    ASL  0     **** ASL Z 17
     9 GLL5        2 GROUP        1 Z    GLL  0     **** GLL Z 20
@<TRIPOS>SET

