#    Name: 4djh_JDC_1_ligand
#    Modification time : Mon Apr  7 22:46:27 2014

@<TRIPOS>MOLECULE
4djh_JDC_1_ligand
   73    76     1     0     0
SMALL
NO_CHARGES


@<TRIPOS>ATOM
      1 C1          3.2120  -20.4100   59.6680 C.3       1 JDC1300     0.0000 
      2 N2          2.9250  -21.7880   59.5580 N.4       1 JDC1300     0.0000 
      3 C3          2.2000  -22.0810   58.3660 C.3       1 JDC1300     0.0000 
      4 C4          0.8340  -21.4170   58.3950 C.3       1 JDC1300     0.0000 
      5 C4A         0.9410  -19.9830   58.8450 C.ar      1 JDC1300     0.0000 
      6 C5         -0.1620  -19.0560   58.6390 C.ar      1 JDC1300     0.0000 
      7 C6         -0.0500  -17.7050   59.0610 C.ar      1 JDC1300     0.0000 
      8 C7          1.1110  -17.2580   59.6700 C.ar      1 JDC1300     0.0000 
      9 O7          1.2310  -15.9780   60.0740 O.3       1 JDC1300     0.0000 
     10 C8          2.1660  -18.1470   59.8630 C.ar      1 JDC1300     0.0000 
     11 C8A         2.0500  -19.5400   59.4310 C.ar      1 JDC1300     0.0000 
     12 C1A         2.1110  -23.5980   58.1900 C.2       1 JDC1300     0.0000 
     13 O1          1.7270  -24.3180   59.1200 O.2       1 JDC1300     0.0000 
     14 N2A         2.5030  -24.1780   56.9210 N.am      1 JDC1300     0.0000 
     15 C2A         2.4450  -25.5850   56.7110 C.3       1 JDC1300     0.0000 
     16 C3A         1.6140  -25.7430   55.4290 C.3       1 JDC1300     0.0000 
     17 C3D         0.1930  -25.0530   55.5450 C.3       1 JDC1300     0.0000 
     18 C3B         1.5760  -27.1070   54.8640 C.3       1 JDC1300     0.0000 
     19 C4D         3.8110  -26.2230   56.5650 C.3       1 JDC1300     0.0000 
     20 N11         4.6780  -26.2930   57.8350 N.4       1 JDC1300     0.0000 
     21 C21         4.0430  -27.0360   58.9030 C.3       1 JDC1300     0.0000 
     22 C31         4.6790  -26.8460   60.2290 C.3       1 JDC1300     0.0000 
     23 C34         4.3120  -25.4010   60.7390 C.3       1 JDC1300     0.0000 
     24 C41         6.1290  -27.0320   60.2020 C.3       1 JDC1300     0.0000 
     25 C51         6.7520  -26.2720   59.1520 C.3       1 JDC1300     0.0000 
     26 C61         6.1150  -26.4610   57.8180 C.3       1 JDC1300     0.0000 
     27 C4E         6.4230  -28.4780   59.8440 C.3       1 JDC1300     0.0000 
     28 C1C         6.7210  -26.8030   61.5930 C.ar      1 JDC1300     0.0000 
     29 C2C         6.1110  -27.3820   62.7090 C.ar      1 JDC1300     0.0000 
     30 C3C         6.6580  -27.1750   63.9920 C.ar      1 JDC1300     0.0000 
     31 O3C         6.0210  -27.7740   65.1510 O.3       1 JDC1300     0.0000 
     32 C4C         7.8390  -26.3720   64.1480 C.ar      1 JDC1300     0.0000 
     33 C5C         8.4410  -25.8010   63.0380 C.ar      1 JDC1300     0.0000 
     34 C6C         7.8990  -26.0050   61.7540 C.ar      1 JDC1300     0.0000 
     35 H           4.0245  -20.1162   58.9537 H         1 JDC1300     0.0000 
     36 H           3.6306  -20.1720   60.6804 H         1 JDC1300     0.0000 
     37 H           2.7440  -21.6876   57.4960 H         1 JDC1300     0.0000 
     38 H           0.1827  -21.9680   59.0777 H         1 JDC1300     0.0000 
     39 H           0.3959  -21.4558   57.3948 H         1 JDC1300     0.0000 
     40 H          -1.0080  -19.3918   58.1905 H         1 JDC1300     0.0000 
     41 H          -0.8408  -17.0692   58.9073 H         1 JDC1300     0.0000 
     42 H           3.0370  -17.8550   60.3050 H         1 JDC1300     0.0000 
     43 H           2.8231  -23.5607   56.1753 H         1 JDC1300     0.0000 
     44 H           1.8962  -26.0694   57.5020 H         1 JDC1300     0.0000 
     45 H           2.1586  -25.0813   54.6500 H         1 JDC1300     0.0000 
     46 H           4.3863  -25.6765   55.7825 H         1 JDC1300     0.0000 
     47 H           3.6890  -27.2584   56.1714 H         1 JDC1300     0.0000 
     48 H           4.5458  -25.1439   58.2606 H         1 JDC1300     0.0000 
     49 H           4.0395  -28.1256   58.6616 H         1 JDC1300     0.0000 
     50 H           2.9665  -26.7517   58.9794 H         1 JDC1300     0.0000 
     51 H           4.2204  -27.5334   60.9432 H         1 JDC1300     0.0000 
     52 H           7.8316  -26.5382   59.0666 H         1 JDC1300     0.0000 
     53 H           6.7373  -25.1842   59.3973 H         1 JDC1300     0.0000 
     54 H           6.5781  -25.7464   57.1004 H         1 JDC1300     0.0000 
     55 H           6.3801  -27.4743   57.4398 H         1 JDC1300     0.0000 
     56 H           5.2710  -27.9546   62.6015 H         1 JDC1300     0.0000 
     57 H           8.2178  -26.2353   65.0871 H         1 JDC1300     0.0000 
     58 H           9.2859  -25.2252   63.1414 H         1 JDC1300     0.0000 
     59 H           8.3371  -25.5896   60.9340 H         1 JDC1300     0.0000 
     60 H           0.2699  -24.0715   55.7202 H         1 JDC1300     0.0000 
     61 H          -0.3414  -25.1601   54.7066 H         1 JDC1300     0.0000 
     62 H          -0.3491  -25.4421   56.2898 H         1 JDC1300     0.0000 
     63 H           2.4899  -27.4362   54.6265 H         1 JDC1300     0.0000 
     64 H           1.1856  -27.7650   55.5079 H         1 JDC1300     0.0000 
     65 H           1.0238  -27.1488   54.0313 H         1 JDC1300     0.0000 
     66 H           4.7128  -25.2105   61.6352 H         1 JDC1300     0.0000 
     67 H           4.6402  -24.6923   60.1145 H         1 JDC1300     0.0000 
     68 H           3.3235  -25.2785   60.8279 H         1 JDC1300     0.0000 
     69 H           7.4058  -28.6592   59.8079 H         1 JDC1300     0.0000 
     70 H           6.0322  -29.1125   60.5108 H         1 JDC1300     0.0000 
     71 H           6.0467  -28.7233   58.9505 H         1 JDC1300     0.0000 
     72 H           0.3385  -15.5649   59.8931 H         1 JDC1300     0.0000 
     73 H           6.6568  -27.6155   65.9064 H         1 JDC1300     0.0000 
@<TRIPOS>BOND
     1    2    1 1    
     2   11    1 1    
     3   35    1 1    
     4   36    1 1    
     5    3    2 1    
     6    4    3 1    
     7   12    3 1    
     8   37    3 1    
     9    5    4 1    
    10   38    4 1    
    11   39    4 1    
    12    6    5 ar   
    13   11    5 ar   
    14    7    6 ar   
    15   40    6 1    
    16    8    7 ar   
    17   41    7 1    
    18    9    8 1    
    19   10    8 ar   
    20   72    9 1    
    21   11   10 ar   
    22   42   10 1    
    23   13   12 2    
    24   14   12 am   
    25   15   14 1    
    26   43   14 1    
    27   16   15 1    
    28   19   15 1    
    29   44   15 1    
    30   17   16 1    
    31   18   16 1    
    32   45   16 1    
    33   60   17 1    
    34   61   17 1    
    35   62   17 1    
    36   63   18 1    
    37   64   18 1    
    38   65   18 1    
    39   20   19 1    
    40   46   19 1    
    41   47   19 1    
    42   21   20 1    
    43   26   20 1    
    44   48   20 1    
    45   22   21 1    
    46   49   21 1    
    47   50   21 1    
    48   23   22 1    
    49   24   22 1    
    50   51   22 1    
    51   66   23 1    
    52   67   23 1    
    53   68   23 1    
    54   25   24 1    
    55   27   24 1    
    56   28   24 1    
    57   26   25 1    
    58   52   25 1    
    59   53   25 1    
    60   54   26 1    
    61   55   26 1    
    62   69   27 1    
    63   70   27 1    
    64   71   27 1    
    65   29   28 ar   
    66   34   28 ar   
    67   30   29 ar   
    68   56   29 1    
    69   31   30 1    
    70   32   30 ar   
    71   73   31 1    
    72   33   32 ar   
    73   57   32 1    
    74   34   33 ar   
    75   58   33 1    
    76   59   34 1    
@<TRIPOS>SUBSTRUCTURE
     1 JDC1300     1 GROUP   
@<TRIPOS>SET

