#    Name: 3c1y_2BA_1_INTS_M
#    Modification time : Mon Mar 24 20:23:52 2014

@<TRIPOS>MOLECULE
3c1y_2BA_1_INTS_M
   77     0     9     0     0
SMALL
NO_CHARGES


@<TRIPOS>ATOM
      1 N          69.1780   16.0810  -37.6230 N.am      2 SEC2        0.0000 
      2 N          69.0330   14.7750  -37.7400 N.am      8 SEL2        0.0000 
      3 N          69.3230   17.3870  -37.5060 N.am      5 SEP2        0.0000 
      4 CA         62.4625   20.4610  -38.5505 C.3       3 GLC5        0.0000 
      5 CA         63.7140   18.6620  -38.5040 C.3       9 GLL5        0.0000 
      6 CA         61.2110   22.2600  -38.5970 C.3       6 GLP5        0.0000 
      7 N          61.5150   19.7655  -38.7745 N.am      2 SEC2        0.0000 
      8 N          62.2760   18.5740  -38.5020 N.am      8 SEL2        0.0000 
      9 N          60.7540   20.9570  -39.0470 N.am      5 SEP2        0.0000 
     10 CA         67.1440   24.1915  -39.2140 C.3       3 GLC5        0.0000 
     11 CA         66.9790   23.0640  -37.6510 C.3       9 GLL5        0.0000 
     12 CA         67.3090   25.3190  -40.7770 C.3       6 GLP5        0.0000 
     13 CA         66.7480   25.0090  -36.6465 C.3       3 GLC5        0.0000 
     14 CA         66.5170   26.9540  -35.6420 C.3       6 GLP5        0.0000 
     15 CA         68.0010   23.6635  -35.9855 C.3       3 GLC5        0.0000 
     16 CA         69.0230   24.2630  -34.3200 C.3       6 GLP5        0.0000 
     17 O          68.4280   24.9830  -37.6900 O.2       1 ALC1        0.0000 
     18 O          68.2120   23.6710  -37.6810 O.2       7 ALL1        0.0000 
     19 O          68.6440   26.2950  -37.6990 O.2       4 ALP1        0.0000 
     20 O          69.1755   23.0390  -36.5340 O.2       1 ALC1        0.0000 
     21 O          70.1390   22.4070  -35.3870 O.2       4 ALP1        0.0000 
     22 N          65.8515   25.2900  -37.9200 N.am      2 SEC2        0.0000 
     23 N          65.8270   23.7930  -37.8280 N.am      8 SEL2        0.0000 
     24 N          65.8760   26.7870  -38.0120 N.am      5 SEP2        0.0000 
     25 CA         64.9510   22.8190  -35.8855 C.3       3 GLC5        0.0000 
     26 CA         64.5940   23.2180  -37.8010 C.3       9 GLL5        0.0000 
     27 CA         65.3080   22.4200  -33.9700 C.3       6 GLP5        0.0000 
     28 CA         62.9025   22.7390  -38.1990 C.3       3 GLC5        0.0000 
     29 CA         63.3910   24.1260  -36.4050 C.3       3 GLC5        0.0000 
     30 CA         62.1880   25.0340  -35.0090 C.3       6 GLP5        0.0000 
     31 CA         64.5925   24.8570  -38.9315 C.3       3 GLC5        0.0000 
     32 CA         64.5910   26.4960  -40.0620 C.3       6 GLP5        0.0000 
     33 CA         65.4445   22.2365  -39.4890 C.3       3 GLC5        0.0000 
     34 CA         66.2950   21.2550  -41.1770 C.3       6 GLP5        0.0000 
     35 N          65.7250   18.7765  -42.0505 N.am      2 SEC2        0.0000 
     36 N          64.5450   18.3810  -41.8390 N.am      8 SEL2        0.0000 
     37 N          66.9050   19.1720  -42.2620 N.am      5 SEP2        0.0000 
     38 CA         71.4440   13.5120  -40.9980 C.3       3 GLC5        0.0000 
     39 CA         69.3520   14.3100  -40.8450 C.3       9 GLL5        0.0000 
     40 CA         73.5360   12.7140  -41.1510 C.3       6 GLP5        0.0000 
     41 N          71.1100   12.4300  -40.7255 N.am      2 SEC2        0.0000 
     42 N          69.8050   12.9710  -40.7180 N.am      8 SEL2        0.0000 
     43 N          72.4150   11.8890  -40.7330 N.am      5 SEP2        0.0000 
     44 CA         73.8260   18.9100  -40.4165 C.3       3 GLC5        0.0000 
     45 CA         72.7570   18.4720  -42.0250 C.3       9 GLL5        0.0000 
     46 CA         74.8950   19.3480  -38.8080 C.3       6 GLP5        0.0000 
     47 CA         74.7225   18.8195  -42.9695 C.3       3 GLC5        0.0000 
     48 CA         76.6880   19.1670  -43.9140 C.3       6 GLP5        0.0000 
     49 CA         73.0740   19.6400  -43.6175 C.3       3 GLC5        0.0000 
     50 CA         73.3910   20.8080  -45.2100 C.3       6 GLP5        0.0000 
     51 O          74.2070   20.4690  -41.9545 O.2       1 ALC1        0.0000 
     52 O          72.9020   19.8460  -42.0420 O.2       7 ALL1        0.0000 
     53 O          75.5120   21.0920  -41.8670 O.2       4 ALP1        0.0000 
     54 O          72.1375   20.7185  -43.1030 O.2       1 ALC1        0.0000 
     55 O          71.3730   21.5910  -44.1640 O.2       4 ALP1        0.0000 
     56 N          75.2720   18.0710  -41.7025 N.am      2 SEC2        0.0000 
     57 N          73.8500   17.6540  -41.8640 N.am      8 SEL2        0.0000 
     58 N          76.6940   18.4880  -41.5410 N.am      5 SEP2        0.0000 
     59 CA         72.6430   16.9360  -40.1410 C.3       3 GLC5        0.0000 
     60 CA         73.7520   16.2910  -41.8350 C.3       9 GLL5        0.0000 
     61 CA         71.5340   17.5810  -38.4470 C.3       6 GLP5        0.0000 
     62 CA         73.3650   16.4615  -43.6780 C.3       3 GLC5        0.0000 
     63 CA         72.9780   16.6320  -45.5210 C.3       6 GLP5        0.0000 
     64 CA         73.6440   14.5025  -41.4930 C.3       3 GLC5        0.0000 
     65 CA         74.9265   15.3240  -43.2415 C.3       3 GLC5        0.0000 
     66 CA         76.1010   14.3570  -44.6480 C.3       6 GLP5        0.0000 
     67 CA         75.2770   16.6805  -40.6830 C.3       3 GLC5        0.0000 
     68 CA         76.8020   17.0700  -39.5310 C.3       6 GLP5        0.0000 
     69 CA         72.4660   14.5750  -41.6390 C.3       3 GLC5        0.0000 
     70 CA         71.3960   16.4360  -42.1270 C.3       9 GLL5        0.0000 
     71 CA         65.7818   22.0688  -35.7215 C.3       3 GLC5        0.0000 
     72 CA         66.8910   21.6500  -37.4250 C.3       9 GLL5        0.0000 
     73 CA         66.2752   21.4862  -39.3250 C.3       3 GLC5        0.0000 
     74 CA         65.5760   21.0780  -37.4080 C.3       9 GLL5        0.0000 
     75 CA         71.6426   17.4430  -40.2796 C.3       3 GLC5        0.0000 
     76 CA         71.4560   17.8760  -42.1700 C.3       9 GLL5        0.0000 
     77 CA         72.3646   16.9685  -43.8166 C.3       3 GLC5        0.0000 
@<TRIPOS>BOND
@<TRIPOS>SUBSTRUCTURE
     1 ALC1       17 GROUP        1 X    ALC  0     ROOT ALC X 1
     2 SEC2        1 GROUP        1 X    SEC  0     **** SEC X 2
     3 GLC5        4 GROUP        1 X    GLC  0     **** GLC X 6
     4 ALP1       19 GROUP        1 Y    ALP  0     ROOT ALP Y 8
     5 SEP2        3 GROUP        1 Y    SEP  0     **** SEP Y 9
     6 GLP5        6 GROUP        1 Y    GLP  0     **** GLP Y 13
     7 ALL1       18 GROUP        1 Z    ALL  0     ROOT ALL Z 15
     8 SEL2        2 GROUP        1 Z    SEL  0     **** SEL Z 16
     9 GLL5        5 GROUP        1 Z    GLL  0     **** GLL Z 20
@<TRIPOS>SET

