#    Name: 3c1y_2BA_1_ligand
#    Modification time : Mon Mar 24 20:23:53 2014

@<TRIPOS>MOLECULE
3c1y_2BA_1_ligand
   66    72     1     0     0
SMALL
NO_CHARGES


@<TRIPOS>ATOM
      1 P          67.6130   14.3950  -38.0530 P.3       1 2BA358      0.0000 
      2 O1P        69.0330   14.7750  -37.7400 O.co2     1 2BA358      0.0000 
      3 O2P        67.2280   13.1420  -37.2880 O.co2     1 2BA358      0.0000 
      4 O5'        66.6040   15.5740  -37.6070 O.3       1 2BA358      0.0000 
      5 C5'        65.2250   15.3690  -37.8070 C.3       1 2BA358      0.0000 
      6 C4'        64.3180   16.5840  -37.7980 C.3       1 2BA358      0.0000 
      7 O4'        64.6800   17.4580  -36.7430 O.3       1 2BA358      0.0000 
      8 C3'        64.3880   17.4050  -39.0410 C.3       1 2BA358      0.0000 
      9 O3'        63.9590   16.6290  -40.1770 O.3       1 2BA358      0.0000 
     10 C2'        63.7140   18.6620  -38.5040 C.3       1 2BA358      0.0000 
     11 O2'        62.2760   18.5740  -38.5020 O.3       1 2BA358      0.0000 
     12 C1'        64.3030   18.8010  -37.0890 C.3       1 2BA358      0.0000 
     13 N9         65.7560   19.7270  -37.1790 N.pl3     1 2BA358      0.0000 
     14 C8         67.1330   19.5260  -37.0630 C.2       1 2BA358      0.0000 
     15 N7         67.7790   20.6450  -37.2160 N.2       1 2BA358      0.0000 
     16 C5         66.8910   21.6500  -37.4250 C.ar      1 2BA358      0.0000 
     17 C6         66.9790   23.0640  -37.6510 C.ar      1 2BA358      0.0000 
     18 N6         68.2120   23.6710  -37.6810 N.pl3     1 2BA358      0.0000 
     19 N1         65.8270   23.7930  -37.8280 N.ar      1 2BA358      0.0000 
     20 C2         64.5940   23.2180  -37.8010 C.ar      1 2BA358      0.0000 
     21 N3         64.4890   21.8870  -37.5920 N.ar      1 2BA358      0.0000 
     22 C4         65.5760   21.0780  -37.4080 C.ar      1 2BA358      0.0000 
     23 P1         64.4500   16.8840  -41.7200 P.3       1 2BA358      0.0000 
     24 O1P1       64.5450   18.3810  -41.8390 O.co2     1 2BA358      0.0000 
     25 O2P1       63.4340   16.3160  -42.6940 O.co2     1 2BA358      0.0000 
     26 O5'1       65.8440   16.1890  -42.0280 O.3       1 2BA358      0.0000 
     27 C5'1       65.9300   14.7970  -41.9670 C.3       1 2BA358      0.0000 
     28 C4'1       67.2640   14.1450  -41.8010 C.3       1 2BA358      0.0000 
     29 O4'1       68.1500   14.6460  -42.8130 O.3       1 2BA358      0.0000 
     30 C3'1       67.8910   14.4310  -40.4390 C.3       1 2BA358      0.0000 
     31 O3'1       67.4320   13.7180  -39.3340 O.3       1 2BA358      0.0000 
     32 C2'1       69.3520   14.3100  -40.8450 C.3       1 2BA358      0.0000 
     33 O2'1       69.8050   12.9710  -40.7180 O.3       1 2BA358      0.0000 
     34 C1'1       69.4450   14.7680  -42.2890 C.3       1 2BA358      0.0000 
     35 N91        70.0850   16.0990  -42.2720 N.pl3     1 2BA358      0.0000 
     36 C81        69.3800   17.3090  -42.4050 C.2       1 2BA358      0.0000 
     37 N71        70.1910   18.3340  -42.3430 N.2       1 2BA358      0.0000 
     38 C51        71.4560   17.8760  -42.1700 C.ar      1 2BA358      0.0000 
     39 C61        72.7570   18.4720  -42.0250 C.ar      1 2BA358      0.0000 
     40 N61        72.9020   19.8460  -42.0420 N.pl3     1 2BA358      0.0000 
     41 N11        73.8500   17.6540  -41.8640 N.ar      1 2BA358      0.0000 
     42 C21        73.7520   16.2910  -41.8350 C.ar      1 2BA358      0.0000 
     43 N31        72.5400   15.7050  -41.9640 N.ar      1 2BA358      0.0000 
     44 C41        71.3960   16.4360  -42.1270 C.ar      1 2BA358      0.0000 
     45 H          64.8081   14.6454  -37.0382 H         1 2BA358      0.0000 
     46 H          65.0345   14.8274  -38.7862 H         1 2BA358      0.0000 
     47 H          63.2908   16.2533  -37.6630 H         1 2BA358      0.0000 
     48 H          65.4822   17.6594  -39.1077 H         1 2BA358      0.0000 
     49 H          64.0824   19.4960  -39.0794 H         1 2BA358      0.0000 
     50 H          63.6853   19.2683  -36.4496 H         1 2BA358      0.0000 
     51 H          67.5120   18.6364  -36.8884 H         1 2BA358      0.0000 
     52 H          68.9356   23.2236  -37.1554 H         1 2BA358      0.0000 
     53 H          68.2778   24.5070  -38.2258 H         1 2BA358      0.0000 
     54 H          63.7478   23.7978  -37.9396 H         1 2BA358      0.0000 
     55 H          65.4452   14.3244  -42.8925 H         1 2BA358      0.0000 
     56 H          65.2582   14.3900  -41.1316 H         1 2BA358      0.0000 
     57 H          67.1545   13.0743  -41.9031 H         1 2BA358      0.0000 
     58 H          67.7469   15.5499  -40.3246 H         1 2BA358      0.0000 
     59 H          69.9218   14.9945  -40.2424 H         1 2BA358      0.0000 
     60 H          70.1333   14.0482  -42.7634 H         1 2BA358      0.0000 
     61 H          68.4072   17.3251  -42.5263 H         1 2BA358      0.0000 
     62 H          72.2083   20.3554  -42.5513 H         1 2BA358      0.0000 
     63 H          73.6880   20.2118  -41.5436 H         1 2BA358      0.0000 
     64 H          74.6052   15.7158  -41.7146 H         1 2BA358      0.0000 
     65 H          62.0144   18.6364  -37.5389 H         1 2BA358      0.0000 
     66 H          69.8126   12.7927  -39.7341 H         1 2BA358      0.0000 
@<TRIPOS>BOND
     1    2    1 ar   
     2    3    1 ar   
     3    4    1 1    
     4   31    1 1    
     5    5    4 1    
     6    6    5 1    
     7   45    5 1    
     8   46    5 1    
     9    7    6 1    
    10    8    6 1    
    11   47    6 1    
    12   12    7 1    
    13    9    8 1    
    14   10    8 1    
    15   48    8 1    
    16   23    9 1    
    17   11   10 1    
    18   12   10 1    
    19   49   10 1    
    20   65   11 1    
    21   13   12 1    
    22   50   12 1    
    23   14   13 1    
    24   22   13 1    
    25   15   14 2    
    26   51   14 1    
    27   16   15 1    
    28   17   16 ar   
    29   22   16 ar   
    30   18   17 1    
    31   19   17 ar   
    32   52   18 1    
    33   53   18 1    
    34   20   19 ar   
    35   21   20 ar   
    36   54   20 1    
    37   22   21 ar   
    38   24   23 ar   
    39   25   23 ar   
    40   26   23 1    
    41   27   26 1    
    42   28   27 1    
    43   55   27 1    
    44   56   27 1    
    45   29   28 1    
    46   30   28 1    
    47   57   28 1    
    48   34   29 1    
    49   31   30 1    
    50   32   30 1    
    51   58   30 1    
    52   33   32 1    
    53   34   32 1    
    54   59   32 1    
    55   66   33 1    
    56   35   34 1    
    57   60   34 1    
    58   36   35 1    
    59   44   35 1    
    60   37   36 2    
    61   61   36 1    
    62   38   37 1    
    63   39   38 ar   
    64   44   38 ar   
    65   40   39 1    
    66   41   39 ar   
    67   62   40 1    
    68   63   40 1    
    69   42   41 ar   
    70   43   42 ar   
    71   64   42 1    
    72   44   43 ar   
@<TRIPOS>SUBSTRUCTURE
     1 2BA358      1 GROUP   
@<TRIPOS>SET

