#    Name: 2a7r_5GP_3_INTS_M
#    Modification time : Mon Mar 24 18:36:22 2014

@<TRIPOS>MOLECULE
2a7r_5GP_3_INTS_M
   50     0     9     0     0
SMALL
NO_CHARGES


@<TRIPOS>ATOM
      1 N          49.7485   26.7085   27.2500 N.am      2 SEC2        0.0000 
      2 N          49.6540   26.4020   28.5410 N.am      8 SEL2        0.0000 
      3 N          49.8430   27.0150   25.9590 N.am      5 SEP2        0.0000 
      4 N          49.8110   25.1880   27.5525 N.am      2 SEC2        0.0000 
      5 N          49.9680   23.9740   26.5640 N.am      5 SEP2        0.0000 
      6 N          50.4975   24.1105   27.6690 N.am      2 SEC2        0.0000 
      7 N          51.0270   24.2470   28.7740 N.am      8 SEL2        0.0000 
      8 N          50.9305   24.1270   31.4265 N.am      2 SEC2        0.0000 
      9 N          49.9350   25.3130   30.8430 N.am      8 SEL2        0.0000 
     10 N          51.9260   22.9410   32.0100 N.am      5 SEP2        0.0000 
     11 N          49.5975   26.4580   31.8085 N.am      2 SEC2        0.0000 
     12 N          49.2600   27.6030   32.7740 N.am      5 SEP2        0.0000 
     13 CA         52.9875   27.7340   26.5860 C.3       3 GLC5        0.0000 
     14 CA         52.7850   26.9240   28.6690 C.3       9 GLL5        0.0000 
     15 CA         53.1900   28.5440   24.5030 C.3       6 GLP5        0.0000 
     16 CA         51.8045   26.4725   27.1310 C.3       3 GLC5        0.0000 
     17 CA         50.8240   26.0210   25.5930 C.3       6 GLP5        0.0000 
     18 CA         54.1550   28.1860   26.3290 C.3       3 GLC5        0.0000 
     19 CA         55.1200   27.8280   28.1550 C.3       9 GLL5        0.0000 
     20 O          54.1055   30.1580   28.1060 O.2       1 ALC1        0.0000 
     21 O          54.7510   29.1390   27.7140 O.2       7 ALL1        0.0000 
     22 O          53.4600   31.1770   28.4980 O.2       4 ALP1        0.0000 
     23 CA         57.6340   27.5595   27.2895 C.3       3 GLC5        0.0000 
     24 CA         56.3780   27.9050   29.0200 C.3       9 GLL5        0.0000 
     25 CA         58.8900   27.2140   25.5590 C.3       6 GLP5        0.0000 
     26 O          55.8520   30.2415   29.7110 O.2       1 ALC1        0.0000 
     27 O          56.3880   29.1180   29.7800 O.2       7 ALL1        0.0000 
     28 O          55.3160   31.3650   29.6420 O.2       4 ALP1        0.0000 
     29 CA         55.9965   25.3225   31.7075 C.3       3 GLC5        0.0000 
     30 CA         56.2090   26.7130   29.9680 C.3       9 GLL5        0.0000 
     31 CA         55.7840   23.9320   33.4470 C.3       6 GLP5        0.0000 
     32 N          59.1210   23.4875   27.7000 N.am      2 SEC2        0.0000 
     33 N          58.1930   23.9860   28.6800 N.am      8 SEL2        0.0000 
     34 N          60.0490   22.9890   26.7200 N.am      5 SEP2        0.0000 
     35 CA         57.5445   23.3250   31.5700 C.3       3 GLC5        0.0000 
     36 CA         58.7640   24.1390   29.8700 C.3       9 GLL5        0.0000 
     37 CA         56.3250   22.5110   33.2700 C.3       6 GLP5        0.0000 
     38 CA         58.6715   22.6290   28.5555 C.3       3 GLC5        0.0000 
     39 CA         58.5790   21.1190   27.2410 C.3       6 GLP5        0.0000 
     40 N          60.2145   22.7635   28.3510 N.am      2 SEC2        0.0000 
     41 N          60.3800   22.5380   29.9820 N.am      8 SEL2        0.0000 
     42 N          61.4870   22.7075   28.7880 N.am      2 SEC2        0.0000 
     43 N          62.5940   22.8770   27.5940 N.am      5 SEP2        0.0000 
     44 CA         56.9485   24.5595   31.9795 C.3       3 GLC5        0.0000 
     45 CA         58.1130   25.1870   30.5120 C.3       9 GLL5        0.0000 
     46 CA         52.1298   27.9340   30.1220 C.3       3 GLC5        0.0000 
     47 CA         50.7940   28.7340   31.2960 C.3       6 GLP5        0.0000 
     48 CA         53.9294   26.2830   27.0343 C.3       3 GLC5        0.0000 
     49 CA         54.1460   27.3440   29.2270 C.3       9 GLL5        0.0000 
     50 CA         53.5660   25.0850   25.5170 C.3       6 GLP5        0.0000 
@<TRIPOS>BOND
@<TRIPOS>SUBSTRUCTURE
     1 ALC1       20 GROUP        1 X    ALC  0     ROOT ALC X 1
     2 SEC2        1 GROUP        1 X    SEC  0     **** SEC X 2
     3 GLC5       13 GROUP        1 X    GLC  0     **** GLC X 6
     4 ALP1       22 GROUP        1 Y    ALP  0     ROOT ALP Y 8
     5 SEP2        3 GROUP        1 Y    SEP  0     **** SEP Y 9
     6 GLP5       15 GROUP        1 Y    GLP  0     **** GLP Y 13
     7 ALL1       21 GROUP        1 Z    ALL  0     ROOT ALL Z 15
     8 SEL2        2 GROUP        1 Z    SEL  0     **** SEL Z 16
     9 GLL5       14 GROUP        1 Z    GLL  0     **** GLL Z 20
@<TRIPOS>SET

