#    Name: 2a7r_5GP_3_ligand
#    Modification time : Mon Mar 24 18:36:22 2014

@<TRIPOS>MOLECULE
2a7r_5GP_3_ligand
   36    38     1     0     0
SMALL
NO_CHARGES


@<TRIPOS>ATOM
      1 P          50.5890   25.6570   29.4130 P.3       1 5GP500      0.0000 
      2 O1P        49.6540   26.4020   28.5410 O.co2     1 5GP500      0.0000 
      3 O2P        51.0270   24.2470   28.7740 O.co2     1 5GP500      0.0000 
      4 O3P        49.9350   25.3130   30.8430 O.co2     1 5GP500      0.0000 
      5 O5'        51.9530   26.4480   29.7300 O.3       1 5GP500      0.0000 
      6 C5'        52.7850   26.9240   28.6690 C.3       1 5GP500      0.0000 
      7 C4'        54.1460   27.3440   29.2270 C.3       1 5GP500      0.0000 
      8 O4'        54.8660   26.2310   29.7760 O.3       1 5GP500      0.0000 
      9 C3'        55.1200   27.8280   28.1550 C.3       1 5GP500      0.0000 
     10 O3'        54.7510   29.1390   27.7140 O.3       1 5GP500      0.0000 
     11 C2'        56.3780   27.9050   29.0200 C.3       1 5GP500      0.0000 
     12 O2'        56.3880   29.1180   29.7800 O.3       1 5GP500      0.0000 
     13 C1'        56.2090   26.7130   29.9680 C.3       1 5GP500      0.0000 
     14 N9         57.1680   25.6220   29.6800 N.pl3     1 5GP500      0.0000 
     15 C8         57.2230   24.8900   28.5690 C.2       1 5GP500      0.0000 
     16 N7         58.1930   23.9860   28.6800 N.2       1 5GP500      0.0000 
     17 C5         58.7640   24.1390   29.8700 C.2       1 5GP500      0.0000 
     18 C6         59.8030   23.4790   30.5190 C.2       1 5GP500      0.0000 
     19 O6         60.3800   22.5380   29.9820 O.2       1 5GP500      0.0000 
     20 N1         60.1650   23.8950   31.8080 N.am      1 5GP500      0.0000 
     21 C2         59.4730   24.9570   32.4030 C.2       1 5GP500      0.0000 
     22 N2         59.8020   25.3610   33.6260 N.pl3     1 5GP500      0.0000 
     23 N3         58.4740   25.5690   31.7430 N.2       1 5GP500      0.0000 
     24 C4         58.1130   25.1870   30.5120 C.2       1 5GP500      0.0000 
     25 H          52.3465   27.7945   28.1682 H         1 5GP500      0.0000 
     26 H          52.9588   26.1516   27.9113 H         1 5GP500      0.0000 
     27 H          54.0398   28.1154   29.9506 H         1 5GP500      0.0000 
     28 H          55.2348   27.1106   27.4411 H         1 5GP500      0.0000 
     29 H          57.2175   27.7509   28.4261 H         1 5GP500      0.0000 
     30 H          56.3340   27.0683   30.9738 H         1 5GP500      0.0000 
     31 H          56.6390   25.0005   27.7902 H         1 5GP500      0.0000 
     32 H          60.9230   23.4294   32.3055 H         1 5GP500      0.0000 
     33 H          59.2524   26.1048   34.0064 H         1 5GP500      0.0000 
     34 H          60.5694   24.8846   34.0552 H         1 5GP500      0.0000 
     35 H          54.1216   29.4793   28.4126 H         1 5GP500      0.0000 
     36 H          55.7988   29.7464   29.2721 H         1 5GP500      0.0000 
@<TRIPOS>BOND
     1    2    1 ar   
     2    3    1 ar   
     3    4    1 ar   
     4    5    1 1    
     5    6    5 1    
     6    7    6 1    
     7   25    6 1    
     8   26    6 1    
     9    8    7 1    
    10    9    7 1    
    11   27    7 1    
    12   13    8 1    
    13   10    9 1    
    14   11    9 1    
    15   28    9 1    
    16   35   10 1    
    17   12   11 1    
    18   13   11 1    
    19   29   11 1    
    20   36   12 1    
    21   14   13 1    
    22   30   13 1    
    23   15   14 1    
    24   24   14 1    
    25   16   15 2    
    26   31   15 1    
    27   17   16 1    
    28   18   17 1    
    29   24   17 2    
    30   19   18 2    
    31   20   18 am   
    32   21   20 1    
    33   32   20 1    
    34   22   21 1    
    35   23   21 2    
    36   33   22 1    
    37   34   22 1    
    38   24   23 1    
@<TRIPOS>SUBSTRUCTURE
     1 5GP500      1 GROUP   
@<TRIPOS>SET

