#    Name: 3say_OFT_2_INTS_M
#    Modification time : Tue Mar 25 12:22:36 2014

@<TRIPOS>MOLECULE
3say_OFT_2_INTS_M
   62     0     9     0     0
SMALL
NO_CHARGES


@<TRIPOS>ATOM
      1 CA        -41.4410    7.8430   -8.8855 C.3       3 GLC5        0.0000 
      2 CA        -39.5090    7.6880   -9.6040 C.3       9 GLL5        0.0000 
      3 CA        -43.3730    7.9980   -8.1670 C.3       6 GLP5        0.0000 
      4 CA        -36.5770    7.2470   -7.4355 C.3       3 GLC5        0.0000 
      5 CA        -37.2370    9.1960   -7.2850 C.3       9 GLL5        0.0000 
      6 CA        -35.9170    5.2980   -7.5860 C.3       6 GLP5        0.0000 
      7 CA        -37.5595   10.8565   -7.9080 C.3       3 GLC5        0.0000 
      8 CA        -37.8820   12.5170   -8.5310 C.3       6 GLP5        0.0000 
      9 O         -39.8235    9.0170   -7.3485 O.2       1 ALC1        0.0000 
     10 O         -38.4830    8.7660   -7.5760 O.2       7 ALL1        0.0000 
     11 O         -41.1640    9.2680   -7.1210 O.2       4 ALP1        0.0000 
     12 O         -38.0990   10.8460   -2.6420 O.2       1 ALC1        0.0000 
     13 O         -37.3160   10.6000   -3.8090 O.2       7 ALL1        0.0000 
     14 O         -38.8820   11.0920   -1.4750 O.2       4 ALP1        0.0000 
     15 CA        -34.3505   13.3430   -4.8175 C.3       3 GLC5        0.0000 
     16 CA        -33.7020   11.4990   -3.8410 C.3       9 GLL5        0.0000 
     17 CA        -34.9990   15.1870   -5.7940 C.3       6 GLP5        0.0000 
     18 CA        -35.5400   13.4460   -2.7620 C.3       3 GLC5        0.0000 
     19 CA        -34.9860   11.3940   -3.3160 C.3       9 GLL5        0.0000 
     20 CA        -36.0940   15.4980   -2.2080 C.3       6 GLP5        0.0000 
     21 N         -40.3070    9.8325   -4.7030 N.am      2 SEC2        0.0000 
     22 N         -39.0980    9.6670   -4.9720 N.am      8 SEL2        0.0000 
     23 N         -41.5160    9.9980   -4.4340 N.am      5 SEP2        0.0000 
     24 N         -29.9215   12.4820   -4.3810 N.am      2 SEC2        0.0000 
     25 N         -31.3470   12.4410   -4.9950 N.am      8 SEL2        0.0000 
     26 N         -28.4960   12.5230   -3.7670 N.am      5 SEP2        0.0000 
     27 CA        -29.0130    9.5815   -7.7130 C.3       3 GLC5        0.0000 
     28 CA        -30.5710   10.5230   -7.7510 C.3       9 GLL5        0.0000 
     29 CA        -27.4550    8.6400   -7.6750 C.3       6 GLP5        0.0000 
     30 CA        -30.5770   12.7380   -7.4465 C.3       3 GLC5        0.0000 
     31 CA        -30.5830   14.9530   -7.1420 C.3       6 GLP5        0.0000 
     32 CA        -29.5745    8.5065   -7.5010 C.3       3 GLC5        0.0000 
     33 CA        -31.0380    9.1710   -8.2630 C.3       9 GLL5        0.0000 
     34 CA        -28.1110    7.8420   -6.7390 C.3       6 GLP5        0.0000 
     35 CA        -37.8500   10.4052   -8.8390 C.3       3 GLC5        0.0000 
     36 CA        -37.1380    8.3340   -9.4560 C.3       9 GLL5        0.0000 
     37 CA        -36.8349    6.7383   -8.5273 C.3       3 GLC5        0.0000 
     38 CA        -38.4980    8.2530   -8.8380 C.3       9 GLL5        0.0000 
     39 CA        -37.9894    9.6738  -10.8458 C.3       3 GLC5        0.0000 
     40 CA        -38.2260   11.1690  -12.2230 C.3       6 GLP5        0.0000 
     41 CA        -41.0430    8.7165  -10.8155 C.3       3 GLC5        0.0000 
     42 CA        -39.2270    7.2300  -10.8960 C.3       9 GLL5        0.0000 
     43 CA        -42.7180    9.9740  -11.3810 C.3       6 GLP5        0.0000 
     44 CA        -38.4057    9.2215  -11.6988 C.3       3 GLC5        0.0000 
     45 CA        -38.9278    7.6205  -12.9958 C.3       3 GLC5        0.0000 
     46 CA        -37.9440    7.3180  -11.4530 C.3       9 GLL5        0.0000 
     47 CA        -39.2700    7.9670  -14.8170 C.3       6 GLP5        0.0000 
     48 CA        -37.1476   11.7985   -5.5045 C.3       3 GLC5        0.0000 
     49 CA        -35.9980   10.8250   -4.0750 C.3       9 GLL5        0.0000 
     50 CA        -38.1630   13.1440   -6.1170 C.3       6 GLP5        0.0000 
     51 CA        -34.3598   12.6217   -6.4848 C.3       3 GLC5        0.0000 
     52 CA        -34.3420   10.4680   -5.9450 C.3       9 GLL5        0.0000 
     53 CA        -34.8620   14.4820   -7.4340 C.3       6 GLP5        0.0000 
     54 CA        -33.7685   11.3648   -1.9282 C.3       3 GLC5        0.0000 
     55 CA        -33.1930   11.2830   -0.2780 C.3       6 GLP5        0.0000 
     56 CA        -35.9311    9.4312   -2.9691 C.3       3 GLC5        0.0000 
     57 CA        -36.4620    7.8720   -1.8990 C.3       6 GLP5        0.0000 
     58 CA        -30.9408    8.4345   -6.5885 C.3       3 GLC5        0.0000 
     59 CA        -31.0770    7.0220   -5.1700 C.3       6 GLP5        0.0000 
     60 CA        -33.7332   13.2170   -8.0427 C.3       3 GLC5        0.0000 
     61 CA        -32.5230   12.1610   -7.9280 C.3       9 GLL5        0.0000 
     62 CA        -31.5938   13.4525   -7.8967 C.3       3 GLC5        0.0000 
@<TRIPOS>BOND
@<TRIPOS>SUBSTRUCTURE
     1 ALC1        9 GROUP        1 X    ALC  0     ROOT ALC X 1
     2 SEC2       21 GROUP        1 X    SEC  0     **** SEC X 2
     3 GLC5        1 GROUP        1 X    GLC  0     **** GLC X 6
     4 ALP1       11 GROUP        1 Y    ALP  0     ROOT ALP Y 8
     5 SEP2       23 GROUP        1 Y    SEP  0     **** SEP Y 9
     6 GLP5        3 GROUP        1 Y    GLP  0     **** GLP Y 13
     7 ALL1       10 GROUP        1 Z    ALL  0     ROOT ALL Z 15
     8 SEL2       22 GROUP        1 Z    SEL  0     **** SEL Z 16
     9 GLL5        2 GROUP        1 Z    GLL  0     **** GLL Z 20
@<TRIPOS>SET

