#    Name: 3say_OFT_2_ligand
#    Modification time : Tue Mar 25 12:22:36 2014

@<TRIPOS>MOLECULE
3say_OFT_2_ligand
   49    52     1     0     0
SMALL
NO_CHARGES


@<TRIPOS>ATOM
      1 C1        -36.8770    7.8740  -10.7420 C.ar      1 OFT431      0.0000 
      2 C2        -37.1380    8.3340   -9.4560 C.ar      1 OFT431      0.0000 
      3 C3        -38.4980    8.2530   -8.8380 C.ar      1 OFT431      0.0000 
      4 C4        -39.5090    7.6880   -9.6040 C.ar      1 OFT431      0.0000 
      5 C5        -39.2270    7.2300  -10.8960 C.ar      1 OFT431      0.0000 
      6 C6        -37.9440    7.3180  -11.4530 C.ar      1 OFT431      0.0000 
      7 C7        -36.3180    8.9640   -8.4100 C.2       1 OFT431      0.0000 
      8 C8        -37.2370    9.1960   -7.2850 C.2       1 OFT431      0.0000 
      9 N9        -38.4830    8.7660   -7.5760 N.pl3     1 OFT431      0.0000 
     10 C10       -36.9020    9.8130   -5.9680 C.2       1 OFT431      0.0000 
     11 C11       -35.6310   10.3490   -5.4500 C.ar      1 OFT431      0.0000 
     12 C12       -35.9980   10.8250   -4.0750 C.ar      1 OFT431      0.0000 
     13 N13       -37.3160   10.6000   -3.8090 N.am      1 OFT431      0.0000 
     14 C14       -37.8680   10.0100   -4.8830 C.2       1 OFT431      0.0000 
     15 C15       -34.3420   10.4680   -5.9450 C.ar      1 OFT431      0.0000 
     16 C16       -33.3730   11.0550   -5.1260 C.ar      1 OFT431      0.0000 
     17 C17       -33.7020   11.4990   -3.8410 C.ar      1 OFT431      0.0000 
     18 C18       -34.9860   11.3940   -3.3160 C.ar      1 OFT431      0.0000 
     19 O19       -39.0980    9.6670   -4.9720 O.2       1 OFT431      0.0000 
     20 N20       -34.9910    9.2750   -8.4730 N.2       1 OFT431      0.0000 
     21 O21       -34.2260    9.0060   -9.6080 O.3       1 OFT431      0.0000 
     22 S22       -31.8520   11.2400   -5.5970 S.o2      1 OFT431      0.0000 
     23 O23       -31.3470   12.4410   -4.9950 O.2       1 OFT431      0.0000 
     24 O24       -31.1020   10.1380   -5.0810 O.2       1 OFT431      0.0000 
     25 N25       -31.6560   11.2940   -7.1250 N.pl3     1 OFT431      0.0000 
     26 C26       -30.5710   10.5230   -7.7510 C.3       1 OFT431      0.0000 
     27 C27       -31.0380    9.1710   -8.2630 C.3       1 OFT431      0.0000 
     28 C28       -32.5230   12.1610   -7.9280 C.3       1 OFT431      0.0000 
     29 C29       -32.6860   11.7430   -9.3750 C.3       1 OFT431      0.0000 
     30 H         -35.9562    7.9375  -11.1482 H         1 OFT431      0.0000 
     31 H         -40.4595    7.6045   -9.2292 H         1 OFT431      0.0000 
     32 H         -39.9927    6.8112  -11.4610 H         1 OFT431      0.0000 
     33 H         -37.7848    6.9628  -12.4126 H         1 OFT431      0.0000 
     34 H         -39.2497    8.8118   -6.9860 H         1 OFT431      0.0000 
     35 H         -37.7645   10.8290   -2.9879 H         1 OFT431      0.0000 
     36 H         -34.1026   10.1400   -6.8750 H         1 OFT431      0.0000 
     37 H         -32.9500   11.9268   -3.2536 H         1 OFT431      0.0000 
     38 H         -35.1825   11.7378   -2.3676 H         1 OFT431      0.0000 
     39 H         -29.7532   10.3576   -7.0289 H         1 OFT431      0.0000 
     40 H         -30.1409   11.0855   -8.5973 H         1 OFT431      0.0000 
     41 H         -32.1367   13.2074   -7.9117 H         1 OFT431      0.0000 
     42 H         -33.5377   12.2174   -7.4679 H         1 OFT431      0.0000 
     43 H         -30.2921    8.6559   -8.6852 H         1 OFT431      0.0000 
     44 H         -31.4072    8.6027   -7.5276 H         1 OFT431      0.0000 
     45 H         -31.7572    9.2629   -8.9517 H         1 OFT431      0.0000 
     46 H         -31.8108   11.7294   -9.8585 H         1 OFT431      0.0000 
     47 H         -33.0793   10.8271   -9.4549 H         1 OFT431      0.0000 
     48 H         -33.2878   12.3651   -9.8758 H         1 OFT431      0.0000 
     49 H         -34.5289    9.6734  -10.2883 H         1 OFT431      0.0000 
@<TRIPOS>BOND
     1    2    1 ar   
     2    6    1 ar   
     3   30    1 1    
     4    3    2 ar   
     5    7    2 1    
     6    4    3 ar   
     7    9    3 1    
     8    5    4 ar   
     9   31    4 1    
    10    6    5 ar   
    11   32    5 1    
    12   33    6 1    
    13    8    7 1    
    14   20    7 2    
    15    9    8 1    
    16   10    8 2    
    17   34    9 1    
    18   11   10 1    
    19   14   10 1    
    20   12   11 ar   
    21   15   11 ar   
    22   13   12 1    
    23   18   12 ar   
    24   14   13 am   
    25   35   13 1    
    26   19   14 2    
    27   16   15 ar   
    28   36   15 1    
    29   17   16 ar   
    30   22   16 1    
    31   18   17 ar   
    32   37   17 1    
    33   38   18 1    
    34   21   20 1    
    35   49   21 1    
    36   23   22 2    
    37   24   22 2    
    38   25   22 1    
    39   26   25 1    
    40   28   25 1    
    41   27   26 1    
    42   39   26 1    
    43   40   26 1    
    44   43   27 1    
    45   44   27 1    
    46   45   27 1    
    47   29   28 1    
    48   41   28 1    
    49   42   28 1    
    50   46   29 1    
    51   47   29 1    
    52   48   29 1    
@<TRIPOS>SUBSTRUCTURE
     1 OFT431      1 GROUP   
@<TRIPOS>SET

