#    Name: 3up2_0C8_1_INTS_M
#    Modification time : Mon Mar 24 23:12:05 2014

@<TRIPOS>MOLECULE
3up2_0C8_1_INTS_M
   82     0    12     0     0
SMALL
NO_CHARGES


@<TRIPOS>ATOM
      1 N           3.4740   32.9860   10.0060 N.am      2 SEC2        0.0000 
      2 N           3.8470   31.8080    9.1560 N.am     10 SEL2        0.0000 
      3 N           3.1010   34.1640   10.8560 N.am      6 SEP2        0.0000 
      4 O           3.0520   34.2435    7.7225 O.2       1 ALC1        0.0000 
      5 O           3.3000   33.0480    7.2230 O.2       9 ALL1        0.0000 
      6 O           2.8040   35.4390    8.2220 O.2       5 ALP1        0.0000 
      7 CA          3.0870   31.6915   11.0145 C.3       4 GLC5        0.0000 
      8 CA          4.4050   30.7600    9.8000 C.3      12 GLL5        0.0000 
      9 CA          1.7690   32.6230   12.2290 C.3       8 GLP5        0.0000 
     10 CA          2.2845   31.0190    7.3490 C.3       4 GLC5        0.0000 
     11 CA          3.8970   31.8900    7.8130 C.3      12 GLL5        0.0000 
     12 CA          0.6720   30.1480    6.8850 C.3       8 GLP5        0.0000 
     13 CA          4.4830   33.6330    8.9370 C.3       4 GLC5        0.0000 
     14 CA          5.0690   35.3760   10.0610 C.3       8 GLP5        0.0000 
     15 CA          5.4435   32.5750    7.1730 C.3       4 GLC5        0.0000 
     16 CA          6.9900   33.2600    6.5330 C.3       8 GLP5        0.0000 
     17 CA          2.8725   30.0105    7.2715 C.3       4 GLC5        0.0000 
     18 CA          5.0730   29.8730    7.6580 C.3      12 GLL5        0.0000 
     19 CA          4.0675   27.7045    5.3405 C.3       4 GLC5        0.0000 
     20 CA          4.8940   29.3620    4.6080 C.3      12 GLL5        0.0000 
     21 CA          3.2410   26.0470    6.0730 C.3       8 GLP5        0.0000 
     22 CA          1.8055   31.6905    6.3645 C.3       4 GLC5        0.0000 
     23 CA          2.9390   33.2330    5.8440 C.3      12 GLL5        0.0000 
     24 NZ          2.5505   35.6375    0.4650 N.4       3 LYC4        0.0000 
     25 NZ          2.5500   34.0330    0.8680 N.4      11 LYL4        0.0000 
     26 NZ          2.5510   37.2420    0.0620 N.4       7 LYP4        0.0000 
     27 NZ         -0.6890   33.9740    2.5400 N.4       3 LYC4        0.0000 
     28 NZ          0.4820   34.2340    1.6720 N.4      11 LYL4        0.0000 
     29 NZ         -2.5650   32.9800    2.5500 N.4       7 LYP4        0.0000 
     30 NZ          1.5165   35.7380    0.8670 N.4       3 LYC4        0.0000 
     31 N          -0.7675   33.4215    1.5310 N.am      2 SEC2        0.0000 
     32 N           0.4820   34.2340    1.6720 N.am     10 SEL2        0.0000 
     33 N          -2.0170   32.6090    1.3900 N.am      6 SEP2        0.0000 
     34 N          -0.6890   33.9740    2.5400 N.am      2 SEC2        0.0000 
     35 N          -1.8600   33.7140    3.4080 N.am      6 SEP2        0.0000 
     36 CA          8.4520   31.8750    7.0235 C.3       4 GLC5        0.0000 
     37 CA          8.9500   30.4610    6.3330 C.3      12 GLL5        0.0000 
     38 CA          7.9540   33.2890    7.7140 C.3       8 GLP5        0.0000 
     39 CA         11.8030   30.1885    5.1510 C.3       4 GLC5        0.0000 
     40 CA         10.1490   29.1930    5.0330 C.3      12 GLL5        0.0000 
     41 CA         13.4570   31.1840    5.2690 C.3       8 GLP5        0.0000 
     42 CA         11.6380   28.3525    6.4265 C.3       4 GLC5        0.0000 
     43 CA         13.1270   27.5120    7.8200 C.3       8 GLP5        0.0000 
     44 CA         11.5530   28.0930    7.4745 C.3       4 GLC5        0.0000 
     45 CA          9.9790   28.6740    7.1290 C.3      12 GLL5        0.0000 
     46 CA          3.1205   29.4967    9.9920 C.3       4 GLC5        0.0000 
     47 CA          5.0290   29.7550    9.0540 C.3      12 GLL5        0.0000 
     48 CA          1.5240   28.7360   10.5570 C.3       8 GLP5        0.0000 
     49 CA          6.0830   30.4108   10.7350 C.3       4 GLC5        0.0000 
     50 CA          7.4490   30.5640   12.0430 C.3       8 GLP5        0.0000 
     51 CA          3.9885   28.3175    7.8530 C.3       4 GLC5        0.0000 
     52 CA          2.9260   26.8210    7.3500 C.3       8 GLP5        0.0000 
     53 CA          6.1670   31.2041    8.6792 C.3       4 GLC5        0.0000 
     54 CA          7.4390   32.3430    8.8160 C.3       8 GLP5        0.0000 
     55 CA          5.6190   27.1893    5.6572 C.3       4 GLC5        0.0000 
     56 CA          5.9350   29.0050    5.4600 C.3      12 GLL5        0.0000 
     57 CA          4.6660   25.4800    6.1120 C.3       8 GLP5        0.0000 
     58 CA          3.0385   29.4552    4.2185 C.3       4 GLC5        0.0000 
     59 CA          1.0710   29.4700    4.5100 C.3       8 GLP5        0.0000 
     60 CA          4.3957   28.4286    2.1498 C.3       4 GLC5        0.0000 
     61 CA          3.0950   27.4840    0.9720 C.3       8 GLP5        0.0000 
     62 CA          7.3910   31.1260    2.8625 C.3       4 GLC5        0.0000 
     63 CA          7.4250   28.9340    3.5740 C.3      12 GLL5        0.0000 
     64 CA          7.8760   33.1320    2.5740 C.3       8 GLP5        0.0000 
     65 CA          7.3487   27.0020    3.2685 C.3       4 GLC5        0.0000 
     66 CA          6.3870   29.3060    2.7280 C.3      12 GLL5        0.0000 
     67 CA          7.6400   25.0480    2.4890 C.3       8 GLP5        0.0000 
     68 CA          3.4992   34.9002    5.0183 C.3       4 GLC5        0.0000 
     69 CA          4.5990   36.1510    4.3300 C.3       8 GLP5        0.0000 
     70 CA          5.1415   33.1025    5.9260 C.3       4 GLC5        0.0000 
     71 CA          3.2148   35.0888    4.0350 C.3       4 GLC5        0.0000 
     72 CA          1.4770   34.3250    4.2630 C.3      12 GLL5        0.0000 
     73 CA          0.5386   32.4699    4.5708 C.3       4 GLC5        0.0000 
     74 CA          2.1840   33.7280    3.2170 C.3      12 GLL5        0.0000 
     75 CA         -0.8490   30.9780    5.0750 C.3       8 GLP5        0.0000 
     76 CA          2.2628   31.1197    4.3205 C.3       4 GLC5        0.0000 
     77 CA          3.2620   32.8820    3.4680 C.3      12 GLL5        0.0000 
     78 CA          4.0267   34.4603    4.2305 C.3       4 GLC5        0.0000 
     79 CA          3.6470   32.6570    4.7940 C.3      12 GLL5        0.0000 
     80 CA         10.1234   30.3070    7.9854 C.3       4 GLC5        0.0000 
     81 CA          9.3310   29.1990    6.0800 C.3      12 GLL5        0.0000 
     82 CA         10.6870   31.3620    9.3030 C.3       8 GLP5        0.0000 
@<TRIPOS>BOND
@<TRIPOS>SUBSTRUCTURE
     1 ALC1        4 GROUP        1 X    ALC  0     ROOT ALC X 1
     2 SEC2        1 GROUP        1 X    SEC  0     **** SEC X 2
     3 LYC4       24 GROUP        1 X    LYC  0     **** LYC X 4
     4 GLC5        7 GROUP        1 X    GLC  0     **** GLC X 6
     5 ALP1        6 GROUP        1 Y    ALP  0     ROOT ALP Y 8
     6 SEP2        3 GROUP        1 Y    SEP  0     **** SEP Y 9
     7 LYP4       26 GROUP        1 Y    LYP  0     **** LYP Y 11
     8 GLP5        9 GROUP        1 Y    GLP  0     **** GLP Y 13
     9 ALL1        5 GROUP        1 Z    ALL  0     ROOT ALL Z 15
    10 SEL2        2 GROUP        1 Z    SEL  0     **** SEL Z 16
    11 LYL4       25 GROUP        1 Z    LYL  0     **** LYL Z 18
    12 GLL5        8 GROUP        1 Z    GLL  0     **** GLL Z 20
@<TRIPOS>SET

