#    Name: 3up2_0C8_1_ligand
#    Modification time : Mon Mar 24 23:12:06 2014

@<TRIPOS>MOLECULE
3up2_0C8_1_ligand
   40    42     1     0     0
SMALL
NO_CHARGES


@<TRIPOS>ATOM
      1 N01         3.8470   31.8080    9.1560 N.ar      1 0C81        0.0000 
      2 N02         4.5020   30.9520    7.0580 N.ar      1 0C81        0.0000 
      3 N03         5.7040   28.8430    6.8710 N.pl3     1 0C81        0.0000 
      4 N04         3.3000   33.0480    7.2230 N.pl3     1 0C81        0.0000 
      5 C05         4.4050   30.7600    9.8000 C.ar      1 0C81        0.0000 
      6 C06         3.8970   31.8900    7.8130 C.ar      1 0C81        0.0000 
      7 C07         5.0730   29.8730    7.6580 C.ar      1 0C81        0.0000 
      8 C08         5.0290   29.7550    9.0540 C.ar      1 0C81        0.0000 
      9 C09         5.9350   29.0050    5.4600 C.ar      1 0C81        0.0000 
     10 C10         4.8940   29.3620    4.6080 C.ar      1 0C81        0.0000 
     11 C11         5.1180   29.5190    3.2460 C.ar      1 0C81        0.0000 
     12 C12         6.3870   29.3060    2.7280 C.ar      1 0C81        0.0000 
     13 C13         7.4250   28.9340    3.5740 C.ar      1 0C81        0.0000 
     14 C14         7.2090   28.7920    4.9450 C.ar      1 0C81        0.0000 
     15 C15         9.3310   29.1990    6.0800 C.3       1 0C81        0.0000 
     16 C16         2.9390   33.2330    5.8440 C.ar      1 0C81        0.0000 
     17 C17         1.8600   34.0660    5.5690 C.ar      1 0C81        0.0000 
     18 C18         1.4770   34.3250    4.2630 C.ar      1 0C81        0.0000 
     19 C19         2.1840   33.7280    3.2170 C.ar      1 0C81        0.0000 
     20 C20         3.2620   32.8820    3.4680 C.ar      1 0C81        0.0000 
     21 C21         3.6470   32.6570    4.7940 C.ar      1 0C81        0.0000 
     22 C22         1.7230   34.0080    1.8330 C.2       1 0C81        0.0000 
     23 O23         2.5500   34.0330    0.8680 O.co2     1 0C81        0.0000 
     24 O24         0.4820   34.2340    1.6720 O.co2     1 0C81        0.0000 
     25 O25         8.2480   28.3950    5.7790 O.3       1 0C81        0.0000 
     26 F26         8.9500   30.4610    6.3330 F         1 0C81        0.0000 
     27 F27        10.1490   29.1930    5.0330 F         1 0C81        0.0000 
     28 F28         9.9790   28.6740    7.1290 F         1 0C81        0.0000 
     29 H           5.9948   27.9745    7.3288 H         1 0C81        0.0000 
     30 H           3.0993   33.8669    7.8768 H         1 0C81        0.0000 
     31 H           4.3829   30.6819   10.8249 H         1 0C81        0.0000 
     32 H           5.4454   28.9493    9.5165 H         1 0C81        0.0000 
     33 H           3.9477   29.5112    4.9925 H         1 0C81        0.0000 
     34 H           4.3460   29.7919    2.6255 H         1 0C81        0.0000 
     35 H           6.5604   29.4226    1.7218 H         1 0C81        0.0000 
     36 H           8.3659   28.7605    3.1865 H         1 0C81        0.0000 
     37 H           1.3376   34.4971    6.3518 H         1 0C81        0.0000 
     38 H           0.6888   34.9436    4.0625 H         1 0C81        0.0000 
     39 H           3.7620   32.4346    2.7026 H         1 0C81        0.0000 
     40 H           4.4629   32.0587    4.9912 H         1 0C81        0.0000 
@<TRIPOS>BOND
     1    5    1 ar   
     2    6    1 ar   
     3    6    2 ar   
     4    7    2 ar   
     5    7    3 1    
     6    9    3 1    
     7   29    3 1    
     8    6    4 1    
     9   16    4 1    
    10   30    4 1    
    11    8    5 ar   
    12   31    5 1    
    13    8    7 ar   
    14   32    8 1    
    15   10    9 ar   
    16   14    9 ar   
    17   11   10 ar   
    18   33   10 1    
    19   12   11 ar   
    20   34   11 1    
    21   13   12 ar   
    22   35   12 1    
    23   14   13 ar   
    24   36   13 1    
    25   25   14 1    
    26   25   15 1    
    27   26   15 1    
    28   27   15 1    
    29   28   15 1    
    30   17   16 ar   
    31   21   16 ar   
    32   18   17 ar   
    33   37   17 1    
    34   19   18 ar   
    35   38   18 1    
    36   20   19 ar   
    37   22   19 1    
    38   21   20 ar   
    39   39   20 1    
    40   40   21 1    
    41   23   22 ar   
    42   24   22 ar   
@<TRIPOS>SUBSTRUCTURE
     1 0C81        1 GROUP   
@<TRIPOS>SET

