#    Name: 1RI3_1_CAVITY_N1_6.mol2
#    Modification time : Tue Mar 11 05:58:12 2014

@<TRIPOS>MOLECULE
1RI3_1_CAVITY_N1_6.mol2
  100     0     7     0     0
SMALL
NO_CHARGES


@<TRIPOS>ATOM
      1 CA         17.4128   30.5079   93.5446 C.3       6 GLY6        0.0000 
      2 CA         15.8340   33.4085   96.6014 C.3       6 GLY6        0.0000 
      3 CA         20.6793   34.6264   89.1154 C.3       6 GLY6        0.0000 
      4 O          15.2542   32.1524   96.0218 O.2       2 ALA2        0.0000 
      5 O          16.0618   32.3554   94.7741 O.2       2 ALA2        0.0000 
      6 DU         16.8693   32.5583   93.5264 H         7 CUB7        0.0000 
      7 DU         19.2920   33.1673   89.7834 H         7 CUB7        0.0000 
      8 CA         20.0995   33.3702   88.5358 C.3       6 GLY6        0.0000 
      9 CA         20.9070   33.5732   87.2881 C.3       6 GLY6        0.0000 
     10 N          14.6744   30.8962   95.4421 N.2       2 ALA2        0.0000 
     11 N          15.4820   31.0992   94.1945 N.2       2 ALA2        0.0000 
     12 CA         16.2895   31.3022   92.9468 C.3       6 GLY6        0.0000 
     13 DU         17.0971   31.5052   91.6991 H         7 CUB7        0.0000 
     14 N          18.7122   31.9111   89.2038 N.2       2 ALA2        0.0000 
     15 OG         19.5197   32.1141   87.9561 O.2       1 SER1        0.0000 
     16 N          15.7098   30.0460   92.3672 N.2       2 ALA2        0.0000 
     17 N          16.5173   30.2490   91.1195 N.2       2 ALA2        0.0000 
     18 CA         14.4830   35.2560   97.8309 C.3       6 GLY6        0.0000 
     19 DU         17.7132   36.0679   92.8402 H         7 CUB7        0.0000 
     20 OG         18.5207   36.2709   91.5925 O.2       1 SER1        0.0000 
     21 OG         19.3283   36.4738   90.3449 O.2       1 SER1        0.0000 
     22 CA         14.7108   34.2028   96.0036 C.3       6 GLY6        0.0000 
     23 DU         15.5183   34.4058   94.7559 H         7 CUB7        0.0000 
     24 DU         17.9409   35.0147   91.0129 H         7 CUB7        0.0000 
     25 OG         18.7485   35.2177   89.7652 O.2       1 SER1        0.0000 
     26 OG         19.5560   35.4207   88.5176 O.2       1 SER1        0.0000 
     27 CA         14.1310   32.9467   95.4240 C.3       6 GLY6        0.0000 
     28 DU         14.9385   33.1497   94.1763 H         7 CUB7        0.0000 
     29 DU         15.7461   33.3526   92.9286 H         7 CUB7        0.0000 
     30 DU         16.5536   33.5556   91.6810 H         7 CUB7        0.0000 
     31 DU         17.3611   33.7586   90.4333 H         7 CUB7        0.0000 
     32 DU         18.1687   33.9616   89.1856 H         7 CUB7        0.0000 
     33 DU         18.9762   34.1645   87.9380 H         7 CUB7        0.0000 
     34 OG         19.7838   34.3675   86.6903 O.2       1 SER1        0.0000 
     35 O          13.5512   31.6905   94.8443 O.2       2 ALA2        0.0000 
     36 N          14.3587   31.8935   93.5967 N.2       2 ALA2        0.0000 
     37 DU         15.1663   32.0965   92.3490 H         7 CUB7        0.0000 
     38 DU         15.9738   32.2995   91.1013 H         7 CUB7        0.0000 
     39 N          16.7814   32.5024   89.8537 N.2       2 ALA2        0.0000 
     40 N          17.5889   32.7054   88.6060 N.2       2 ALA2        0.0000 
     41 N          18.3964   32.9084   87.3583 N.2       2 ALA2        0.0000 
     42 O          12.1639   30.2314   95.5124 O.2       2 ALA2        0.0000 
     43 N          13.7789   30.6374   93.0171 N.2       2 ALA2        0.0000 
     44 N          14.5865   30.8403   91.7694 N.2       2 ALA2        0.0000 
     45 N          15.3940   31.0433   90.5217 N.2       2 ALA2        0.0000 
     46 N          13.1992   29.3812   92.4374 N.2       2 ALA2        0.0000 
     47 CA         16.3621   37.9154   94.0697 C.3       6 GLY6        0.0000 
     48 N          13.3597   36.0503   97.2331 N.2       2 ALA2        0.0000 
     49 N          14.1673   36.2533   95.9854 N.2       2 ALA2        0.0000 
     50 DU         14.9748   36.4562   94.7377 H         7 CUB7        0.0000 
     51 DU         17.3974   37.0652   90.9947 H         7 CUB7        0.0000 
     52 CA         12.7799   34.7941   96.6534 C.3       6 GLY6        0.0000 
     53 OD1        13.5875   34.9971   95.4058 O.3       3 ASP3        0.0000 
     54 OD1        14.3950   35.2001   94.1581 O.3       3 ASP3        0.0000 
     55 DU         15.2026   35.4031   92.9104 H         7 CUB7        0.0000 
     56 DU         16.0101   35.6060   91.6628 H         7 CUB7        0.0000 
     57 DU         16.8177   35.8090   90.4151 H         7 CUB7        0.0000 
     58 DU         17.6252   36.0120   89.1674 H         7 CUB7        0.0000 
     59 OG         18.4328   36.2150   87.9198 O.2       1 SER1        0.0000 
     60 OD1        13.0077   33.7410   94.8261 O.3       3 ASP3        0.0000 
     61 OD1        13.8152   33.9439   93.5785 O.3       3 ASP3        0.0000 
     62 OD1        14.6228   34.1469   92.3308 O.3       3 ASP3        0.0000 
     63 CZ         15.4303   34.3499   91.0831 C.ar      5 PHE5        0.0000 
     64 CA         16.2379   34.5529   89.8355 C.3       6 GLY6        0.0000 
     65 CA         17.0454   34.7559   88.5878 C.3       6 GLY6        0.0000 
     66 CA         17.8530   34.9588   87.3401 C.3       6 GLY6        0.0000 
     67 OG         18.6605   35.1618   86.0925 O.2       1 SER1        0.0000 
     68 OD1        12.4279   32.4848   94.2465 O.3       3 ASP3        0.0000 
     69 OD1        13.2355   32.6878   92.9989 O.3       3 ASP3        0.0000 
     70 CZ         14.0430   32.8908   91.7512 C.ar      5 PHE5        0.0000 
     71 CZ         14.8506   33.0938   90.5035 C.ar      5 PHE5        0.0000 
     72 N          17.2732   33.7027   86.7605 N.2       2 ALA2        0.0000 
     73 N          18.0807   33.9057   85.5129 N.2       2 ALA2        0.0000 
     74 NZ         11.8481   31.2287   93.6669 N.2       4 LYS4        0.0000 
     75 OD1        12.6557   31.4317   92.4192 O.3       3 ASP3        0.0000 
     76 N          13.4632   31.6346   91.1716 N.2       2 ALA2        0.0000 
     77 NZ         11.2684   29.9725   93.0873 N.2       4 LYS4        0.0000 
     78 CA         12.0759   30.1755   91.8396 C.3       6 GLY6        0.0000 
     79 O          14.4313   38.5067   94.7195 O.2       2 ALA2        0.0000 
     80 CA         15.2389   38.7096   93.4719 C.3       6 GLY6        0.0000 
     81 N          13.8515   37.2505   94.1399 N.2       2 ALA2        0.0000 
     82 DU         14.6591   37.4535   92.8922 H         7 CUB7        0.0000 
     83 DU         15.4666   37.6565   91.6446 H         7 CUB7        0.0000 
     84 OD1        13.2718   35.9944   93.5603 O.3       3 ASP3        0.0000 
     85 OD1        14.0793   36.1974   92.3126 O.3       3 ASP3        0.0000 
     86 CZ         14.8869   36.4003   91.0650 C.ar      5 PHE5        0.0000 
     87 CZ         15.6944   36.6033   89.8173 C.ar      5 PHE5        0.0000 
     88 CZ         16.5019   36.8063   88.5696 C.ar      5 PHE5        0.0000 
     89 OD1        13.4995   34.9412   91.7330 O.3       3 ASP3        0.0000 
     90 CZ         15.1146   35.3472   89.2377 C.ar      5 PHE5        0.0000 
     91 CZ         15.9222   35.5502   87.9900 C.ar      5 PHE5        0.0000 
     92 OG         16.7297   35.7531   86.7423 O.2       1 SER1        0.0000 
     93 CZ         12.9197   33.6851   91.1534 C.ar      5 PHE5        0.0000 
     94 CA         11.5324   32.2260   91.8214 C.3       6 GLY6        0.0000 
     95 O          12.7283   38.0448   93.5421 O.2       2 ALA2        0.0000 
     96 CA         13.5358   38.2478   92.2944 C.3       6 GLY6        0.0000 
     97 O          14.3434   38.4508   91.0468 O.2       2 ALA2        0.0000 
     98 CZ         12.9560   36.9917   91.7148 C.ar      5 PHE5        0.0000 
     99 CZ         13.7636   37.1946   90.4672 C.ar      5 PHE5        0.0000 
    100 CZ         14.5711   37.3976   89.2195 C.ar      5 PHE5        0.0000 
@<TRIPOS>BOND
@<TRIPOS>SUBSTRUCTURE
     1 SER1       15 GROUP   
     2 ALA2        4 GROUP   
     3 ASP3       53 GROUP   
     4 LYS4       74 GROUP   
     5 PHE5       63 GROUP   
     6 GLY6        1 GROUP   
     7 CUB7        6 GROUP   
@<TRIPOS>SET

