#    Name: 1ri3_SAH_1_INTS_M
#    Modification time : Tue Mar 25 00:43:31 2014

@<TRIPOS>MOLECULE
1ri3_SAH_1_INTS_M
   70     0    12     0     0
SMALL
NO_CHARGES


@<TRIPOS>ATOM
      1 O          13.8905   28.7850   91.1040 O.2       1 ALC1        0.0000 
      2 O          13.2380   29.9270   91.1340 O.2       9 ALL1        0.0000 
      3 O          14.5430   27.6430   91.0740 O.2       5 ALP1        0.0000 
      4 O          13.1835   30.3320   89.8280 O.2       1 ALC1        0.0000 
      5 O          13.1290   30.7370   88.5220 O.2       5 ALP1        0.0000 
      6 O          12.1940   29.8515   92.1620 O.2       1 ALC1        0.0000 
      7 O          11.1500   29.7760   93.1900 O.2       5 ALP1        0.0000 
      8 CA         13.7750   28.7395   92.7240 C.3       4 GLC5        0.0000 
      9 CA         14.0880   30.8470   92.0110 C.3      12 GLL5        0.0000 
     10 CA         13.4620   26.6320   93.4370 C.3       8 GLP5        0.0000 
     11 NZ         11.5620   33.4880   92.5310 N.4       3 LYC4        0.0000 
     12 NZ         12.1370   32.2920   91.8160 N.4      11 LYL4        0.0000 
     13 NZ         10.9870   34.6840   93.2460 N.4       7 LYP4        0.0000 
     14 N          11.5620   33.4880   92.5310 N.am      2 SEC2        0.0000 
     15 N          12.1370   32.2920   91.8160 N.am     10 SEL2        0.0000 
     16 N          10.9870   34.6840   93.2460 N.am      6 SEP2        0.0000 
     17 NZ         12.4355   33.8525   93.1430 N.4       3 LYC4        0.0000 
     18 NZ         13.8840   33.0210   93.0400 N.4      11 LYL4        0.0000 
     19 N          12.4355   33.8525   93.1430 N.am      2 SEC2        0.0000 
     20 N          13.8840   33.0210   93.0400 N.am     10 SEL2        0.0000 
     21 CA         18.2690   29.5530   86.9220 C.3       4 GLC5        0.0000 
     22 CA         17.5720   29.7360   88.7200 C.3      12 GLL5        0.0000 
     23 CA         18.9660   29.3700   85.1240 C.3       8 GLP5        0.0000 
     24 CA         16.3250   26.9190   89.7450 C.3       4 GLC5        0.0000 
     25 CA         17.8280   28.3390   89.4150 C.3      12 GLL5        0.0000 
     26 CA         14.8220   25.4990   90.0750 C.3       8 GLP5        0.0000 
     27 N          16.6890   27.0990   87.5600 N.am      2 SEC2        0.0000 
     28 N          17.9170   27.4530   88.3420 N.am     10 SEL2        0.0000 
     29 N          15.4610   26.7450   86.7780 N.am      6 SEP2        0.0000 
     30 O          18.1615   26.8445   91.8695 O.2       1 ALC1        0.0000 
     31 O          18.8870   27.9540   91.5330 O.2       9 ALL1        0.0000 
     32 O          17.4360   25.7350   92.2060 O.2       5 ALP1        0.0000 
     33 O          19.8985   25.3020   91.1050 O.2       1 ALC1        0.0000 
     34 O          20.6070   26.1630   90.2210 O.2       9 ALL1        0.0000 
     35 O          19.1900   24.4410   91.9890 O.2       5 ALP1        0.0000 
     36 CA         16.7050   25.8880   89.4510 C.3       4 GLC5        0.0000 
     37 CA         18.5880   26.2770   88.8270 C.3      12 GLL5        0.0000 
     38 CA         19.9400   24.4935   88.9845 C.3       4 GLC5        0.0000 
     39 CA         21.2920   22.7100   89.1420 C.3       8 GLP5        0.0000 
     40 CA         19.4815   21.7030   87.9530 C.3       4 GLC5        0.0000 
     41 CA         18.1960   22.1150   86.6020 C.3      12 GLL5        0.0000 
     42 CA         20.7670   21.2910   89.3040 C.3       8 GLP5        0.0000 
     43 CA         18.3885   19.9645   87.1080 C.3       4 GLC5        0.0000 
     44 CA         18.5810   17.8140   87.6140 C.3       8 GLP5        0.0000 
     45 CA         17.2515   21.4815   84.7190 C.3       4 GLC5        0.0000 
     46 CA         16.3070   20.8480   82.8360 C.3       8 GLP5        0.0000 
     47 O          18.5140   19.8550   85.1590 O.2       1 ALC1        0.0000 
     48 O          18.5640   21.3470   85.5700 O.2       9 ALL1        0.0000 
     49 O          18.4640   18.3630   84.7480 O.2       5 ALP1        0.0000 
     50 N          16.8190   20.0755   87.2885 N.am      2 SEC2        0.0000 
     51 N          17.3130   21.6610   87.5650 N.am     10 SEL2        0.0000 
     52 N          16.3250   18.4900   87.0120 N.am      6 SEP2        0.0000 
     53 N          15.8525   21.0270   87.6240 N.am      2 SEC2        0.0000 
     54 N          14.3920   20.3930   87.6830 N.am      6 SEP2        0.0000 
     55 CA         15.8660   23.9510   89.3525 C.3       4 GLC5        0.0000 
     56 CA         16.9100   22.4030   88.6300 C.3      12 GLL5        0.0000 
     57 CA         16.9990   22.3600   90.4875 C.3       4 GLC5        0.0000 
     58 CA         17.0880   22.3170   92.3450 C.3       8 GLP5        0.0000 
     59 CA         18.8385   21.8470   88.9670 C.3       4 GLC5        0.0000 
     60 N          18.2145   22.7085   89.9655 N.am      2 SEC2        0.0000 
     61 N          17.3440   23.6760   88.8630 N.am     10 SEL2        0.0000 
     62 N          19.0850   21.7410   91.0680 N.am      6 SEP2        0.0000 
     63 CA         16.5170   24.8190   88.9885 C.3       4 GLC5        0.0000 
     64 CA         18.2120   24.1390   87.9020 C.3      12 GLL5        0.0000 
     65 CA         16.3650   29.4695   92.8835 C.3       4 GLC5        0.0000 
     66 CA         16.4440   30.2720   91.1840 C.3      12 GLL5        0.0000 
     67 CA         16.8020   28.1680   94.4110 C.3       8 GLP5        0.0000 
     68 CA         16.2965   28.5353   87.9663 C.3       4 GLC5        0.0000 
     69 CA         14.8930   28.0330   86.8650 C.3       8 GLP5        0.0000 
     70 CA         19.8660   23.2533   88.2480 C.3       4 GLC5        0.0000 
@<TRIPOS>BOND
@<TRIPOS>SUBSTRUCTURE
     1 ALC1        1 GROUP        1 X    ALC  0     ROOT ALC X 1
     2 SEC2       14 GROUP        1 X    SEC  0     **** SEC X 2
     3 LYC4       11 GROUP        1 X    LYC  0     **** LYC X 4
     4 GLC5        8 GROUP        1 X    GLC  0     **** GLC X 6
     5 ALP1        3 GROUP        1 Y    ALP  0     ROOT ALP Y 8
     6 SEP2       16 GROUP        1 Y    SEP  0     **** SEP Y 9
     7 LYP4       13 GROUP        1 Y    LYP  0     **** LYP Y 11
     8 GLP5       10 GROUP        1 Y    GLP  0     **** GLP Y 13
     9 ALL1        2 GROUP        1 Z    ALL  0     ROOT ALL Z 15
    10 SEL2       15 GROUP        1 Z    SEL  0     **** SEL Z 16
    11 LYL4       12 GROUP        1 Z    LYL  0     **** LYL Z 18
    12 GLL5        9 GROUP        1 Z    GLL  0     **** GLL Z 20
@<TRIPOS>SET

