#    Name: 1ri3_SAH_1_ligand
#    Modification time : Tue Mar 25 00:43:31 2014

@<TRIPOS>MOLECULE
1ri3_SAH_1_ligand
   46    48     1     0     0
SMALL
NO_CHARGES


@<TRIPOS>ATOM
      1 N          13.2380   29.9270   91.1340 N.4       1 SAH299      0.0000 
      2 CA         14.0880   30.8470   92.0110 C.3       1 SAH299      0.0000 
      3 CB         15.4120   31.2700   91.5280 C.3       1 SAH299      0.0000 
      4 CG         16.4440   30.2720   91.1840 C.3       1 SAH299      0.0000 
      5 SD         17.4580   31.0420   89.8580 S.3       1 SAH299      0.0000 
      6 C          13.2740   32.1530   92.2950 C.2       1 SAH299      0.0000 
      7 O          12.1370   32.2920   91.8160 O.co2     1 SAH299      0.0000 
      8 OXT        13.8840   33.0210   93.0400 O.co2     1 SAH299      0.0000 
      9 C5'        17.5720   29.7360   88.7200 C.3       1 SAH299      0.0000 
     10 C4'        17.8280   28.3390   89.4150 C.3       1 SAH299      0.0000 
     11 O4'        17.9170   27.4530   88.3420 O.3       1 SAH299      0.0000 
     12 C3'        19.1500   28.1920   90.1630 C.3       1 SAH299      0.0000 
     13 O3'        18.8870   27.9540   91.5330 O.3       1 SAH299      0.0000 
     14 C2'        19.8110   26.9880   89.3900 C.3       1 SAH299      0.0000 
     15 O2'        20.6070   26.1630   90.2210 O.3       1 SAH299      0.0000 
     16 C1'        18.5880   26.2770   88.8270 C.3       1 SAH299      0.0000 
     17 N9         18.8340   25.4010   87.8690 N.pl3     1 SAH299      0.0000 
     18 C8         19.6060   25.3840   86.7280 C.2       1 SAH299      0.0000 
     19 N7         19.5600   24.2750   86.0590 N.2       1 SAH299      0.0000 
     20 C5         18.6680   23.4540   86.8060 C.ar      1 SAH299      0.0000 
     21 C6         18.1960   22.1150   86.6020 C.ar      1 SAH299      0.0000 
     22 N6         18.5640   21.3470   85.5700 N.pl3     1 SAH299      0.0000 
     23 N1         17.3130   21.6610   87.5650 N.ar      1 SAH299      0.0000 
     24 C2         16.9100   22.4030   88.6300 C.ar      1 SAH299      0.0000 
     25 N3         17.3440   23.6760   88.8630 N.ar      1 SAH299      0.0000 
     26 C4         18.2120   24.1390   87.9020 C.ar      1 SAH299      0.0000 
     27 H          14.1929   30.3740   93.0069 H         1 SAH299      0.0000 
     28 H          15.8589   31.9966   92.2917 H         1 SAH299      0.0000 
     29 H          15.2633   31.9557   90.6233 H         1 SAH299      0.0000 
     30 H          16.0947   29.4095   90.6966 H         1 SAH299      0.0000 
     31 H          17.1719   30.1010   91.9219 H         1 SAH299      0.0000 
     32 H          18.3854   30.0003   88.0750 H         1 SAH299      0.0000 
     33 H          16.6368   29.7409   88.1976 H         1 SAH299      0.0000 
     34 H          17.0122   28.1167   90.0396 H         1 SAH299      0.0000 
     35 H          19.7282   29.0551   89.9558 H         1 SAH299      0.0000 
     36 H          20.3371   27.4261   88.5623 H         1 SAH299      0.0000 
     37 H          18.0390   25.9228   89.6856 H         1 SAH299      0.0000 
     38 H          20.1516   26.1956   86.4685 H         1 SAH299      0.0000 
     39 H          18.1916   20.4190   85.5573 H         1 SAH299      0.0000 
     40 H          19.1785   21.7698   84.9040 H         1 SAH299      0.0000 
     41 H          16.2242   21.9738   89.3155 H         1 SAH299      0.0000 
     42 H          13.0315   30.3442   90.2489 H         1 SAH299      0.0000 
     43 H          13.6999   29.0597   90.9486 H         1 SAH299      0.0000 
     44 H          12.3631   29.7068   91.5654 H         1 SAH299      0.0000 
     45 H          18.1311   27.2993   91.5414 H         1 SAH299      0.0000 
     46 H          19.9536   25.6382   90.7666 H         1 SAH299      0.0000 
@<TRIPOS>BOND
     1    2    1 1    
     2   42    1 1    
     3   43    1 1    
     4   44    1 1    
     5    3    2 1    
     6    6    2 1    
     7   27    2 1    
     8    4    3 1    
     9   28    3 1    
    10   29    3 1    
    11    5    4 1    
    12   30    4 1    
    13   31    4 1    
    14    9    5 1    
    15    7    6 ar   
    16    8    6 ar   
    17   10    9 1    
    18   32    9 1    
    19   33    9 1    
    20   11   10 1    
    21   12   10 1    
    22   34   10 1    
    23   16   11 1    
    24   13   12 1    
    25   14   12 1    
    26   35   12 1    
    27   45   13 1    
    28   15   14 1    
    29   16   14 1    
    30   36   14 1    
    31   46   15 1    
    32   17   16 1    
    33   37   16 1    
    34   18   17 1    
    35   26   17 1    
    36   19   18 2    
    37   38   18 1    
    38   20   19 1    
    39   21   20 ar   
    40   26   20 ar   
    41   22   21 1    
    42   23   21 ar   
    43   39   22 1    
    44   40   22 1    
    45   24   23 ar   
    46   25   24 ar   
    47   41   24 1    
    48   26   25 ar   
@<TRIPOS>SUBSTRUCTURE
     1 SAH299      1 GROUP   
@<TRIPOS>SET

