#    Name: 3k88_NAD_2_INTS_M
#    Modification time : Mon Mar 24 18:52:58 2014

@<TRIPOS>MOLECULE
3k88_NAD_2_INTS_M
   44     0    12     0     0
SMALL
NO_CHARGES


@<TRIPOS>ATOM
      1 NZ         81.3860   38.9060  -20.1650 N.4       3 LYC4        0.0000 
      2 NZ         80.9480   38.4480  -19.2100 N.4      11 LYL4        0.0000 
      3 NZ         81.2340   40.1790  -21.9930 N.4       7 LYP4        0.0000 
      4 N          81.3860   38.9060  -20.1650 N.am      2 SEC2        0.0000 
      5 N          80.9480   38.4480  -19.2100 N.am     10 SEL2        0.0000 
      6 N          81.8240   39.3640  -21.1200 N.am      6 SEP2        0.0000 
      7 CA         76.4535   39.7770  -19.0640 C.3       4 GLC5        0.0000 
      8 CA         78.1850   40.0810  -17.9580 C.3      12 GLL5        0.0000 
      9 CA         74.7220   39.4730  -20.1700 C.3       8 GLP5        0.0000 
     10 CA         79.2745   41.6275  -18.9525 C.3       4 GLC5        0.0000 
     11 CA         80.3640   43.1740  -19.9470 C.3       8 GLP5        0.0000 
     12 CA         75.9810   40.8225  -18.3430 C.3       4 GLC5        0.0000 
     13 CA         77.3980   40.6580  -16.7110 C.3      12 GLL5        0.0000 
     14 CA         74.5640   40.9870  -19.9750 C.3       8 GLP5        0.0000 
     15 CA         76.4995   42.3730  -16.8780 C.3       4 GLC5        0.0000 
     16 CA         75.6010   44.0880  -17.0450 C.3       8 GLP5        0.0000 
     17 CA         76.2115   42.4710  -15.6830 C.3       4 GLC5        0.0000 
     18 CA         76.8220   40.8540  -14.3210 C.3      12 GLL5        0.0000 
     19 CA         74.5480   42.0550  -15.4915 C.3       4 GLC5        0.0000 
     20 CA         75.5600   40.6810  -15.1570 C.3      12 GLL5        0.0000 
     21 CA         73.5360   43.4290  -15.8260 C.3       8 GLP5        0.0000 
     22 CA         73.6890   36.7800  -17.1730 C.3       4 GLC5        0.0000 
     23 CA         73.2170   36.4230  -15.0700 C.3      12 GLL5        0.0000 
     24 CA         74.1610   37.1370  -19.2760 C.3       8 GLP5        0.0000 
     25 CA         74.7160   36.7890  -17.7695 C.3       4 GLC5        0.0000 
     26 CA         75.2710   36.4410  -16.2630 C.3      12 GLL5        0.0000 
     27 CA         74.1400   38.5240  -17.2220 C.3       4 GLC5        0.0000 
     28 CA         74.4830   38.3960  -15.1560 C.3      12 GLL5        0.0000 
     29 CA         73.7970   38.6520  -19.2880 C.3       8 GLP5        0.0000 
     30 O          78.3980   29.6500  -14.3825 O.2       1 ALC1        0.0000 
     31 O          77.6370   30.6070  -15.1330 O.2       9 ALL1        0.0000 
     32 O          79.1590   28.6930  -13.6320 O.2       5 ALP1        0.0000 
     33 N          73.1730   35.9825  -10.7395 N.am      2 SEC2        0.0000 
     34 N          74.5130   36.2760  -11.2240 N.am     10 SEL2        0.0000 
     35 N          71.8330   35.6890  -10.2550 N.am      6 SEP2        0.0000 
     36 CA         71.6593   37.5508  -16.1810 C.3       4 GLC5        0.0000 
     37 CA         73.3540   37.7780  -14.7120 C.3      12 GLL5        0.0000 
     38 CA         70.0330   38.0010  -17.4710 C.3       8 GLP5        0.0000 
     39 CA         78.3020   33.4213  -12.1245 C.3       4 GLC5        0.0000 
     40 CA         77.8640   34.1980  -13.9660 C.3      12 GLL5        0.0000 
     41 CA         78.9840   33.3470  -10.3900 C.3       8 GLP5        0.0000 
     42 CA         77.4432   36.2592  -10.8507 C.3       4 GLC5        0.0000 
     43 CA         76.6360   35.7590  -12.6290 C.3      12 GLL5        0.0000 
     44 CA         77.8540   35.2410   -9.3750 C.3       8 GLP5        0.0000 
@<TRIPOS>BOND
@<TRIPOS>SUBSTRUCTURE
     1 ALC1       30 GROUP        1 X    ALC  0     ROOT ALC X 1
     2 SEC2        4 GROUP        1 X    SEC  0     **** SEC X 2
     3 LYC4        1 GROUP        1 X    LYC  0     **** LYC X 4
     4 GLC5        7 GROUP        1 X    GLC  0     **** GLC X 6
     5 ALP1       32 GROUP        1 Y    ALP  0     ROOT ALP Y 8
     6 SEP2        6 GROUP        1 Y    SEP  0     **** SEP Y 9
     7 LYP4        3 GROUP        1 Y    LYP  0     **** LYP Y 11
     8 GLP5        9 GROUP        1 Y    GLP  0     **** GLP Y 13
     9 ALL1       31 GROUP        1 Z    ALL  0     ROOT ALL Z 15
    10 SEL2        5 GROUP        1 Z    SEL  0     **** SEL Z 16
    11 LYL4        2 GROUP        1 Z    LYL  0     **** LYL Z 18
    12 GLL5        8 GROUP        1 Z    GLL  0     **** GLL Z 20
@<TRIPOS>SET

