#    Name: 3k88_NAD_2_ligand
#    Modification time : Mon Mar 24 18:52:58 2014

@<TRIPOS>MOLECULE
3k88_NAD_2_ligand
   70    74     1     0     0
SMALL
NO_CHARGES


@<TRIPOS>ATOM
      1 PA         80.2710   38.3370  -17.9230 P.3       1 NAD1501     0.0000 
      2 O1A        80.9610   39.4830  -16.9180 O.co2     1 NAD1501     0.0000 
      3 O2A        80.9480   38.4480  -19.2100 O.co2     1 NAD1501     0.0000 
      4 O5B        78.5850   38.6820  -18.1100 O.3       1 NAD1501     0.0000 
      5 C5B        78.1850   40.0810  -17.9580 C.3       1 NAD1501     0.0000 
      6 C4B        77.3980   40.6580  -16.7110 C.3       1 NAD1501     0.0000 
      7 O4B        76.0280   40.1490  -16.4110 O.3       1 NAD1501     0.0000 
      8 C3B        78.0250   40.5310  -15.2600 C.3       1 NAD1501     0.0000 
      9 O3B        79.2180   41.2700  -15.0730 O.3       1 NAD1501     0.0000 
     10 C2B        76.8220   40.8540  -14.3210 C.3       1 NAD1501     0.0000 
     11 O2B        76.9020   42.0680  -13.5750 O.3       1 NAD1501     0.0000 
     12 C1B        75.5600   40.6810  -15.1570 C.3       1 NAD1501     0.0000 
     13 N9A        74.4570   39.7780  -14.6600 N.pl3     1 NAD1501     0.0000 
     14 C8A        73.2850   39.9580  -13.9480 C.2       1 NAD1501     0.0000 
     15 N7A        72.5390   38.7060  -13.9300 N.2       1 NAD1501     0.0000 
     16 C5A        73.3540   37.7780  -14.7120 C.ar      1 NAD1501     0.0000 
     17 C6A        73.2170   36.4230  -15.0700 C.ar      1 NAD1501     0.0000 
     18 N6A        72.0400   35.7140  -14.6910 N.pl3     1 NAD1501     0.0000 
     19 N1A        74.1410   35.7910  -15.8230 N.ar      1 NAD1501     0.0000 
     20 C2A        75.2710   36.4410  -16.2630 C.ar      1 NAD1501     0.0000 
     21 N3A        75.4360   37.7850  -15.9130 N.ar      1 NAD1501     0.0000 
     22 C4A        74.4830   38.3960  -15.1560 C.ar      1 NAD1501     0.0000 
     23 O3         80.5790   36.7580  -17.4420 O.3       1 NAD1501     0.0000 
     24 PN         79.4290   35.6620  -18.0420 P.3       1 NAD1501     0.0000 
     25 O1N        79.3310   35.9430  -19.6890 O.co2     1 NAD1501     0.0000 
     26 O2N        78.0930   36.0210  -17.4760 O.co2     1 NAD1501     0.0000 
     27 O5D        79.8900   34.0240  -17.7830 O.3       1 NAD1501     0.0000 
     28 C5D        79.0950   32.9000  -17.3210 C.3       1 NAD1501     0.0000 
     29 C4D        78.4800   33.0080  -15.8890 C.3       1 NAD1501     0.0000 
     30 O4D        78.4810   34.2850  -15.2670 O.3       1 NAD1501     0.0000 
     31 C3D        77.7850   32.0180  -14.9470 C.3       1 NAD1501     0.0000 
     32 O3D        77.6370   30.6070  -15.1330 O.3       1 NAD1501     0.0000 
     33 C2D        77.3760   32.7930  -13.7520 C.3       1 NAD1501     0.0000 
     34 O2D        76.5950   32.2840  -12.6520 O.3       1 NAD1501     0.0000 
     35 C1D        77.8640   34.1980  -13.9660 C.3       1 NAD1501     0.0000 
     36 N1N        77.8070   35.4640  -13.2460 N.pl3     1 NAD1501     0.0000 
     37 C2N        76.6360   35.7590  -12.6290 C.ar      1 NAD1501     0.0000 
     38 C3N        76.5080   37.0850  -12.0870 C.ar      1 NAD1501     0.0000 
     39 C7N        75.2170   37.2660  -11.2910 C.2       1 NAD1501     0.0000 
     40 O7N        74.5130   36.2760  -11.2240 O.2       1 NAD1501     0.0000 
     41 N7N        74.9280   38.5920  -10.6700 N.am      1 NAD1501     0.0000 
     42 C4N        77.4930   38.1330  -12.2950 C.ar      1 NAD1501     0.0000 
     43 C5N        78.6510   37.8470  -13.0850 C.ar      1 NAD1501     0.0000 
     44 C6N        78.7840   36.5330  -13.6090 C.ar      1 NAD1501     0.0000 
     45 H          77.5722   40.4102  -18.8788 H         1 NAD1501     0.0000 
     46 H          79.1097   40.7621  -18.0713 H         1 NAD1501     0.0000 
     47 H          77.2812   41.7723  -16.8427 H         1 NAD1501     0.0000 
     48 H          78.1858   39.4313  -15.1457 H         1 NAD1501     0.0000 
     49 H          76.8022   39.9663  -13.6022 H         1 NAD1501     0.0000 
     50 H          75.1485   41.6772  -15.3576 H         1 NAD1501     0.0000 
     51 H          72.9803   40.7457  -13.5269 H         1 NAD1501     0.0000 
     52 H          71.1720   36.1109  -14.9894 H         1 NAD1501     0.0000 
     53 H          72.1813   34.8794  -14.1586 H         1 NAD1501     0.0000 
     54 H          75.9717   35.9676  -16.8265 H         1 NAD1501     0.0000 
     55 H          79.6957   31.9534  -17.3393 H         1 NAD1501     0.0000 
     56 H          78.2412   32.7021  -18.0204 H         1 NAD1501     0.0000 
     57 H          79.7439   32.7329  -15.2712 H         1 NAD1501     0.0000 
     58 H          76.5408   32.3368  -15.5658 H         1 NAD1501     0.0000 
     59 H          78.6251   32.4690  -13.1380 H         1 NAD1501     0.0000 
     60 H          79.1446   33.8670  -13.4278 H         1 NAD1501     0.0000 
     61 H          75.8739   35.1129  -12.5349 H         1 NAD1501     0.0000 
     62 H          74.0861   38.6526  -10.1338 H         1 NAD1501     0.0000 
     63 H          75.5995   39.3132  -10.8400 H         1 NAD1501     0.0000 
     64 H          77.3540   39.0390  -11.8869 H         1 NAD1501     0.0000 
     65 H          79.3399   38.5503  -13.2596 H         1 NAD1501     0.0000 
     66 H          79.5385   36.2879  -14.2375 H         1 NAD1501     0.0000 
     67 H          79.9089   40.7861  -15.6101 H         1 NAD1501     0.0000 
     68 H          76.8364   41.7879  -12.6173 H         1 NAD1501     0.0000 
     69 H          77.9745   30.1976  -14.2854 H         1 NAD1501     0.0000 
     70 H          76.3874   31.3373  -12.8984 H         1 NAD1501     0.0000 
@<TRIPOS>BOND
     1    2    1 ar   
     2    3    1 ar   
     3    4    1 1    
     4   23    1 1    
     5    5    4 1    
     6    6    5 1    
     7   45    5 1    
     8   46    5 1    
     9    7    6 1    
    10    8    6 1    
    11   47    6 1    
    12   12    7 1    
    13    9    8 1    
    14   10    8 1    
    15   48    8 1    
    16   67    9 1    
    17   11   10 1    
    18   12   10 1    
    19   49   10 1    
    20   68   11 1    
    21   13   12 1    
    22   50   12 1    
    23   14   13 1    
    24   22   13 1    
    25   15   14 2    
    26   51   14 1    
    27   16   15 1    
    28   17   16 ar   
    29   22   16 ar   
    30   18   17 1    
    31   19   17 ar   
    32   52   18 1    
    33   53   18 1    
    34   20   19 ar   
    35   21   20 ar   
    36   54   20 1    
    37   22   21 ar   
    38   24   23 1    
    39   25   24 ar   
    40   26   24 ar   
    41   27   24 1    
    42   28   27 1    
    43   29   28 1    
    44   55   28 1    
    45   56   28 1    
    46   30   29 1    
    47   31   29 1    
    48   57   29 1    
    49   35   30 1    
    50   32   31 1    
    51   33   31 1    
    52   58   31 1    
    53   69   32 1    
    54   34   33 1    
    55   35   33 1    
    56   59   33 1    
    57   70   34 1    
    58   36   35 1    
    59   60   35 1    
    60   37   36 ar   
    61   44   36 ar   
    62   38   37 ar   
    63   61   37 1    
    64   39   38 1    
    65   42   38 ar   
    66   40   39 2    
    67   41   39 am   
    68   62   41 1    
    69   63   41 1    
    70   43   42 ar   
    71   64   42 1    
    72   44   43 ar   
    73   65   43 1    
    74   66   44 1    
@<TRIPOS>SUBSTRUCTURE
     1 NAD1501     1 GROUP   
@<TRIPOS>SET

