#    Name: 2a2x_NA9_1_INTS_M
#    Modification time : Mon Mar 24 18:26:00 2014

@<TRIPOS>MOLECULE
2a2x_NA9_1_INTS_M
   66     0     9     0     0
SMALL
NO_CHARGES


@<TRIPOS>ATOM
      1 CA         10.6300   19.9690   21.8480 C.3       3 GLC5        0.0000 
      2 CA         12.4160   20.9810   22.4580 C.3       9 GLL5        0.0000 
      3 CA          8.8440   18.9570   21.2380 C.3       6 GLP5        0.0000 
      4 CA         14.2060   22.7005   23.7245 C.3       3 GLC5        0.0000 
      5 CA         12.1040   22.2140   23.0930 C.3       9 GLL5        0.0000 
      6 CA         16.3080   23.1870   24.3560 C.3       6 GLP5        0.0000 
      7 CA         13.1605   25.1955   21.6495 C.3       3 GLC5        0.0000 
      8 CA         13.6450   23.3730   21.7340 C.3       9 GLL5        0.0000 
      9 CA         12.6760   27.0180   21.5650 C.3       6 GLP5        0.0000 
     10 CA         10.0925   24.0115   23.2790 C.3       3 GLC5        0.0000 
     11 CA         11.1000   22.2730   24.1850 C.3       9 GLL5        0.0000 
     12 CA          9.0850   25.7500   22.3730 C.3       6 GLP5        0.0000 
     13 CA         11.1745   23.2270   26.1495 C.3       3 GLC5        0.0000 
     14 CA         11.2490   24.1810   28.1140 C.3       6 GLP5        0.0000 
     15 O           9.2175   21.3405   25.1595 O.2       1 ALC1        0.0000 
     16 O          10.3980   21.1890   24.5240 O.2       7 ALL1        0.0000 
     17 O           8.0370   21.4920   25.7950 O.2       4 ALP1        0.0000 
     18 O          10.4560   19.7795   24.2010 O.2       1 ALC1        0.0000 
     19 O          10.5140   18.3700   23.8780 O.2       4 ALP1        0.0000 
     20 O           9.5025   23.5570   25.3460 O.2       1 ALC1        0.0000 
     21 O          10.9090   23.4190   24.8350 O.2       7 ALL1        0.0000 
     22 O           8.0960   23.6950   25.8570 O.2       4 ALP1        0.0000 
     23 O          16.7175   23.4300   21.4065 O.2       1 ALC1        0.0000 
     24 O          16.3750   22.1220   20.5990 O.2       7 ALL1        0.0000 
     25 O          17.0600   24.7380   22.2140 O.2       4 ALP1        0.0000 
     26 CA         18.0470   21.7355   22.9970 C.3       3 GLC5        0.0000 
     27 CA         18.4710   20.9460   21.1980 C.3       9 GLL5        0.0000 
     28 CA         17.6230   22.5250   24.7960 C.3       6 GLP5        0.0000 
     29 CA         19.4285   22.9485   19.2265 C.3       3 GLC5        0.0000 
     30 CA         19.5720   21.3730   20.2110 C.3       9 GLL5        0.0000 
     31 CA         19.2850   24.5240   18.2420 C.3       6 GLP5        0.0000 
     32 CA         19.0645   19.6765   18.9275 C.3       3 GLC5        0.0000 
     33 CA         18.5570   17.9800   17.6440 C.3       6 GLP5        0.0000 
     34 CA         21.5960   18.8780   20.5670 C.3       3 GLC5        0.0000 
     35 CA         19.7050   18.6630   21.1420 C.3       9 GLL5        0.0000 
     36 CA         23.4870   19.0930   19.9920 C.3       6 GLP5        0.0000 
     37 CA         19.4815   17.7530   19.5375 C.3       3 GLC5        0.0000 
     38 CA         19.2580   16.8430   17.9330 C.3       6 GLP5        0.0000 
     39 N          16.0730   20.6160   24.2575 N.am      2 SEC2        0.0000 
     40 N          17.1470   19.8810   23.3700 N.am      8 SEL2        0.0000 
     41 N          14.9990   21.3510   25.1450 N.am      5 SEP2        0.0000 
     42 N          13.1810   16.2845   23.9710 N.am      2 SEC2        0.0000 
     43 N          14.3770   16.2070   23.2590 N.am      8 SEL2        0.0000 
     44 N          11.9850   16.3620   24.6830 N.am      5 SEP2        0.0000 
     45 CA         21.8005   21.1840   24.3255 C.3       3 GLC5        0.0000 
     46 CA         22.5640   19.4070   25.3530 C.3       9 GLL5        0.0000 
     47 CA         21.0370   22.9610   23.2980 C.3       6 GLP5        0.0000 
     48 CA         22.0555   21.8240   25.7000 C.3       3 GLC5        0.0000 
     49 CA         21.4970   19.8170   26.3920 C.3       9 GLL5        0.0000 
     50 CA         22.6140   23.8310   25.0080 C.3       6 GLP5        0.0000 
     51 CA         21.5060   19.9155   28.4880 C.3       3 GLC5        0.0000 
     52 CA         21.5150   20.0140   30.5840 C.3       6 GLP5        0.0000 
     53 CA         19.7365   21.0040   26.8950 C.3       3 GLC5        0.0000 
     54 CA         17.9760   22.1910   27.3980 C.3       6 GLP5        0.0000 
     55 CA         20.5575   21.2735   24.5560 C.3       3 GLC5        0.0000 
     56 CA         20.0780   19.5860   25.8140 C.3       9 GLL5        0.0000 
     57 CA         10.7030   21.8323   21.4213 C.3       3 GLC5        0.0000 
     58 CA          9.1460   22.0670   20.0670 C.3       6 GLP5        0.0000 
     59 CA         15.0665   22.9848   22.8768 C.3       3 GLC5        0.0000 
     60 CA         12.8350   21.3016   24.7046 C.3       3 GLC5        0.0000 
     61 CA         13.9900   20.6680   25.9290 C.3       6 GLP5        0.0000 
     62 CA         20.0292   22.0602   22.0012 C.3       3 GLC5        0.0000 
     63 CA         23.3017   20.6625   27.0708 C.3       3 GLC5        0.0000 
     64 CA         24.5730   21.7130   28.2690 C.3       6 GLP5        0.0000 
     65 CA         18.5171   19.8664   26.6200 C.3       3 GLC5        0.0000 
     66 CA         17.4120   20.9530   27.7260 C.3       6 GLP5        0.0000 
@<TRIPOS>BOND
@<TRIPOS>SUBSTRUCTURE
     1 ALC1       15 GROUP        1 X    ALC  0     ROOT ALC X 1
     2 SEC2       39 GROUP        1 X    SEC  0     **** SEC X 2
     3 GLC5        1 GROUP        1 X    GLC  0     **** GLC X 6
     4 ALP1       17 GROUP        1 Y    ALP  0     ROOT ALP Y 8
     5 SEP2       41 GROUP        1 Y    SEP  0     **** SEP Y 9
     6 GLP5        3 GROUP        1 Y    GLP  0     **** GLP Y 13
     7 ALL1       16 GROUP        1 Z    ALL  0     ROOT ALL Z 15
     8 SEL2       40 GROUP        1 Z    SEL  0     **** SEL Z 16
     9 GLL5        2 GROUP        1 Z    GLL  0     **** GLL Z 20
@<TRIPOS>SET

