#    Name: 2a2x_NA9_1_ligand
#    Modification time : Mon Mar 24 18:26:00 2014

@<TRIPOS>MOLECULE
2a2x_NA9_1_ligand
   65    66     1     0     0
SMALL
NO_CHARGES


@<TRIPOS>ATOM
      1 C1         12.4160   20.9810   22.4580 C.ar      1 NA9501      0.0000 
      2 C2         12.1040   22.2140   23.0930 C.ar      1 NA9501      0.0000 
      3 N3         12.7230   23.3480   22.7090 N.ar      1 NA9501      0.0000 
      4 C4         13.6450   23.3730   21.7340 C.ar      1 NA9501      0.0000 
      5 C5         14.0050   22.1920   21.0610 C.ar      1 NA9501      0.0000 
      6 C6         13.3810   20.9770   21.4290 C.ar      1 NA9501      0.0000 
      7 C7         15.0460   22.2250   19.9720 C.3       1 NA9501      0.0000 
      8 C8         11.1000   22.2730   24.1850 C.2       1 NA9501      0.0000 
      9 N9         10.3980   21.1890   24.5240 N.pl3     1 NA9501      0.0000 
     10 N10        10.9090   23.4190   24.8350 N.pl3     1 NA9501      0.0000 
     11 N11        16.3750   22.1220   20.5990 N.am      1 NA9501      0.0000 
     12 C12        17.1270   20.9880   20.5150 C.2       1 NA9501      0.0000 
     13 C13        18.4710   20.9460   21.1980 C.3       1 NA9501      0.0000 
     14 O14        16.7290   20.0050   19.9140 O.2       1 NA9501      0.0000 
     15 C15        19.5720   21.3730   20.2110 C.3       1 NA9501      0.0000 
     16 C16        19.7050   18.6630   21.1420 C.3       1 NA9501      0.0000 
     17 N17        18.7030   19.5640   21.7630 N.am      1 NA9501      0.0000 
     18 C18        17.9700   19.1410   22.8710 C.2       1 NA9501      0.0000 
     19 C19        18.1620   17.7540   23.4920 C.3       1 NA9501      0.0000 
     20 O20        17.1470   19.8810   23.3700 O.2       1 NA9501      0.0000 
     21 N21        16.9170   16.9810   23.3260 N.4       1 NA9501      0.0000 
     22 C22        16.3280   16.7280   22.0020 C.3       1 NA9501      0.0000 
     23 C23        14.8510   16.4450   22.1540 C.2       1 NA9501      0.0000 
     24 O24        14.3770   16.2070   23.2590 O.co2     1 NA9501      0.0000 
     25 O25        14.1270   16.4540   21.1660 O.co2     1 NA9501      0.0000 
     26 C26        18.4380   17.8530   24.9980 C.3       1 NA9501      0.0000 
     27 C27        19.8950   18.0940   25.4300 C.3       1 NA9501      0.0000 
     28 C28        20.9610   17.6870   24.3790 C.3       1 NA9501      0.0000 
     29 C29        22.3790   17.9240   24.9520 C.3       1 NA9501      0.0000 
     30 C30        22.5640   19.4070   25.3530 C.3       1 NA9501      0.0000 
     31 C31        21.4970   19.8170   26.3920 C.3       1 NA9501      0.0000 
     32 C32        20.0780   19.5860   25.8140 C.3       1 NA9501      0.0000 
     33 H          11.9540   20.1290   22.7410 H         1 NA9501      0.0000 
     34 H          14.1121   24.2563   21.4537 H         1 NA9501      0.0000 
     35 H          13.6263   20.1120   20.9564 H         1 NA9501      0.0000 
     36 H          14.9561   23.1577   19.4214 H         1 NA9501      0.0000 
     37 H          14.8792   21.3919   19.2943 H         1 NA9501      0.0000 
     38 H           9.7301   21.3093   25.2584 H         1 NA9501      0.0000 
     39 H          10.6032   20.3543   24.0130 H         1 NA9501      0.0000 
     40 H          11.7038   24.0215   24.9073 H         1 NA9501      0.0000 
     41 H           9.9879   23.5739   25.1923 H         1 NA9501      0.0000 
     42 H          16.7061   22.9598   21.1074 H         1 NA9501      0.0000 
     43 H          18.4567   21.6619   22.0175 H         1 NA9501      0.0000 
     44 H          18.9730   17.2583   23.0197 H         1 NA9501      0.0000 
     45 H          16.8054   15.8682   21.5291 H         1 NA9501      0.0000 
     46 H          16.4562   17.5967   21.3541 H         1 NA9501      0.0000 
     47 H          18.0766   16.9185   25.4868 H         1 NA9501      0.0000 
     48 H          17.8066   18.6685   25.4213 H         1 NA9501      0.0000 
     49 H          20.0818   17.5136   26.3422 H         1 NA9501      0.0000 
     50 H          20.8304   18.2883   23.4919 H         1 NA9501      0.0000 
     51 H          20.8428   16.6402   24.1428 H         1 NA9501      0.0000 
     52 H          23.1139   17.6655   24.1989 H         1 NA9501      0.0000 
     53 H          22.5172   17.2997   25.8268 H         1 NA9501      0.0000 
     54 H          22.4610   20.0278   24.4725 H         1 NA9501      0.0000 
     55 H          23.5486   19.5378   25.7828 H         1 NA9501      0.0000 
     56 H          21.6152   20.8647   26.6307 H         1 NA9501      0.0000 
     57 H          21.6176   19.2172   27.2832 H         1 NA9501      0.0000 
     58 H          19.3429   19.8520   26.5602 H         1 NA9501      0.0000 
     59 H          19.9502   20.1967   24.9316 H         1 NA9501      0.0000 
     60 H          20.4781   21.3521   20.6336 H         1 NA9501      0.0000 
     61 H          19.6074   20.7730   19.4118 H         1 NA9501      0.0000 
     62 H          19.4275   22.3030   19.8731 H         1 NA9501      0.0000 
     63 H          20.6224   19.0606   21.1581 H         1 NA9501      0.0000 
     64 H          19.7582   17.7840   21.6158 H         1 NA9501      0.0000 
     65 H          19.4868   18.4679   20.1858 H         1 NA9501      0.0000 
@<TRIPOS>BOND
     1    2    1 ar   
     2    6    1 ar   
     3   33    1 1    
     4    3    2 ar   
     5    8    2 1    
     6    4    3 ar   
     7    5    4 ar   
     8   34    4 1    
     9    6    5 ar   
    10    7    5 1    
    11   35    6 1    
    12   11    7 1    
    13   36    7 1    
    14   37    7 1    
    15    9    8 2    
    16   10    8 1    
    17   38    9 1    
    18   39    9 1    
    19   40   10 1    
    20   41   10 1    
    21   12   11 am   
    22   42   11 1    
    23   13   12 1    
    24   14   12 2    
    25   15   13 1    
    26   17   13 1    
    27   43   13 1    
    28   60   15 1    
    29   61   15 1    
    30   62   15 1    
    31   17   16 1    
    32   63   16 1    
    33   64   16 1    
    34   65   16 1    
    35   18   17 am   
    36   19   18 1    
    37   20   18 2    
    38   21   19 1    
    39   26   19 1    
    40   44   19 1    
    41   22   21 1    
    42   23   22 1    
    43   45   22 1    
    44   46   22 1    
    45   24   23 ar   
    46   25   23 ar   
    47   27   26 1    
    48   47   26 1    
    49   48   26 1    
    50   28   27 1    
    51   32   27 1    
    52   49   27 1    
    53   29   28 1    
    54   50   28 1    
    55   51   28 1    
    56   30   29 1    
    57   52   29 1    
    58   53   29 1    
    59   31   30 1    
    60   54   30 1    
    61   55   30 1    
    62   32   31 1    
    63   56   31 1    
    64   57   31 1    
    65   58   32 1    
    66   59   32 1    
@<TRIPOS>SUBSTRUCTURE
     1 NA9501      1 GROUP   
@<TRIPOS>SET

