#    Name: 1m13_HYF_1_INTS_M
#    Modification time : Tue Mar 25 11:20:31 2014

@<TRIPOS>MOLECULE
1m13_HYF_1_INTS_M
  102     0     6     0     0
SMALL
NO_CHARGES


@<TRIPOS>ATOM
      1 CA          7.8135   71.7340   -3.5520 C.3       2 GLC5        0.0000 
      2 CA          9.5070   71.9840   -4.1800 C.3       6 GLL5        0.0000 
      3 CA          6.1200   71.4840   -2.9240 C.3       4 GLP5        0.0000 
      4 CA         14.4575   76.3920   -6.8980 C.3       2 GLC5        0.0000 
      5 CA         13.6650   77.9120   -5.8650 C.3       6 GLL5        0.0000 
      6 CA         15.2500   74.8720   -7.9310 C.3       4 GLP5        0.0000 
      7 CA         14.1825   78.3460   -7.8280 C.3       2 GLC5        0.0000 
      8 CA         14.7000   78.7800   -9.7910 C.3       4 GLP5        0.0000 
      9 CA         16.5495   78.0845   -3.4145 C.3       2 GLC5        0.0000 
     10 CA         15.1880   79.1870   -4.2550 C.3       6 GLL5        0.0000 
     11 CA         17.9110   76.9820   -2.5740 C.3       4 GLP5        0.0000 
     12 CA          4.2985   75.7815   -2.3100 C.3       2 GLC5        0.0000 
     13 CA          5.0030   74.6870   -1.2500 C.3       6 GLL5        0.0000 
     14 CA          3.5940   76.8760   -3.3700 C.3       4 GLP5        0.0000 
     15 CA          3.3145   73.7590   -2.1510 C.3       2 GLC5        0.0000 
     16 CA          1.6260   72.8310   -3.0520 C.3       4 GLP5        0.0000 
     17 CA          5.2445   76.3225   -1.4365 C.3       2 GLC5        0.0000 
     18 CA          6.2350   74.6680   -0.3330 C.3       6 GLL5        0.0000 
     19 CA          4.2540   77.9770   -2.5400 C.3       4 GLP5        0.0000 
     20 CA          3.8685   75.0120    1.5470 C.3       2 GLC5        0.0000 
     21 CA          5.8040   74.2810    1.0940 C.3       6 GLL5        0.0000 
     22 CA          1.9330   75.7430    2.0000 C.3       4 GLP5        0.0000 
     23 CA          6.5120   74.5530    2.7085 C.3       2 GLC5        0.0000 
     24 CA          7.2200   74.8250    4.3230 C.3       4 GLP5        0.0000 
     25 CA         13.9040   76.4530   -2.6440 C.3       2 GLC5        0.0000 
     26 CA         12.0810   76.9660   -3.2950 C.3       6 GLL5        0.0000 
     27 CA         15.7270   75.9400   -1.9930 C.3       4 GLP5        0.0000 
     28 CA          6.3680   77.7210   -2.8410 C.3       2 GLC5        0.0000 
     29 CA          8.4820   77.4650   -3.1420 C.3       6 GLL5        0.0000 
     30 CA         15.4045   81.8365   -0.9460 C.3       2 GLC5        0.0000 
     31 CA         13.6170   80.8910   -0.1630 C.3       6 GLL5        0.0000 
     32 CA         17.1920   82.7820   -1.7290 C.3       4 GLP5        0.0000 
     33 CA         15.0905   79.4010   -0.4180 C.3       2 GLC5        0.0000 
     34 CA         16.5640   77.9110   -0.6730 C.3       4 GLP5        0.0000 
     35 CA         10.2305   83.5110   -0.3230 C.3       2 GLC5        0.0000 
     36 CA         11.7280   82.6660   -0.4250 C.3       6 GLL5        0.0000 
     37 CA          8.7330   84.3560   -0.2210 C.3       4 GLP5        0.0000 
     38 CA         10.2540   81.3460    2.3225 C.3       2 GLC5        0.0000 
     39 CA         11.1890   80.4850    0.6070 C.3       6 GLL5        0.0000 
     40 CA          9.3190   82.2070    4.0380 C.3       4 GLP5        0.0000 
     41 N          12.1015   75.9485    3.4880 N.am      1 SEC2        0.0000 
     42 N          11.4100   76.5640    2.5800 N.am      5 SEL2        0.0000 
     43 N          12.7930   75.3330    4.3960 N.am      3 SEP2        0.0000 
     44 N           8.5855   72.7710    0.4410 N.am      1 SEC2        0.0000 
     45 N           8.9400   73.7130   -0.4720 N.am      5 SEL2        0.0000 
     46 N           8.2310   71.8290    1.3540 N.am      3 SEP2        0.0000 
     47 CA         14.8095   74.6320   -1.1530 C.3       2 GLC5        0.0000 
     48 CA         13.8920   73.3240   -0.3130 C.3       6 GLL5        0.0000 
     49 CA         12.9805   69.6225   -1.9110 C.3       2 GLC5        0.0000 
     50 CA         12.6770   71.1600   -1.0270 C.3       6 GLL5        0.0000 
     51 CA         13.2840   68.0850   -2.7950 C.3       4 GLP5        0.0000 
     52 CA         12.4310   69.3030   -0.0580 C.3       2 GLC5        0.0000 
     53 CA         12.1850   67.4460    0.9110 C.3       4 GLP5        0.0000 
     54 CA         11.4535   72.2615    2.6180 C.3       2 GLC5        0.0000 
     55 CA         11.1320   73.7480    1.5960 C.3       6 GLL5        0.0000 
     56 CA         11.7750   70.7750    3.6400 C.3       4 GLP5        0.0000 
     57 CA         12.4655   74.1125    3.0215 C.3       2 GLC5        0.0000 
     58 CA         13.7990   74.4770    4.4470 C.3       4 GLP5        0.0000 
     59 CA         13.6980   76.6350   -1.4380 C.3       2 GLC5        0.0000 
     60 CA         11.6690   77.3300   -0.8830 C.3       6 GLL5        0.0000 
     61 CA         10.1330   78.2820   -4.0735 C.3       2 GLC5        0.0000 
     62 CA         10.9400   77.4360   -2.3010 C.3       6 GLL5        0.0000 
     63 CA          9.3260   79.1280   -5.8460 C.3       4 GLP5        0.0000 
     64 CA          9.8710   76.0000   -5.1290 C.3       2 GLC5        0.0000 
     65 CA          9.6030   75.2470   -3.1780 C.3       6 GLL5        0.0000 
     66 CA         10.1390   76.7530   -7.0800 C.3       4 GLP5        0.0000 
     67 CA          7.2920   72.8985   -3.2995 C.3       2 GLC5        0.0000 
     68 CA          8.4640   74.3130   -3.6750 C.3       6 GLL5        0.0000 
     69 CA          7.4675   72.2990   -4.4235 C.3       2 GLC5        0.0000 
     70 CA          9.0340   73.1930   -4.5490 C.3       6 GLL5        0.0000 
     71 CA          5.9010   71.4050   -4.2980 C.3       4 GLP5        0.0000 
     72 CA          8.0530   70.9220   -2.4835 C.3       2 GLC5        0.0000 
     73 CA          9.5590   71.4920   -2.7470 C.3       6 GLL5        0.0000 
     74 CA          6.5470   70.3520   -2.2200 C.3       4 GLP5        0.0000 
     75 CA          8.0660   70.6190   -5.0990 C.3       2 GLC5        0.0000 
     76 CA         10.0210   71.0400   -5.2370 C.3       6 GLL5        0.0000 
     77 CA          6.1110   70.1980   -4.9610 C.3       4 GLP5        0.0000 
     78 CA         10.5040   69.2800   -5.3985 C.3       2 GLC5        0.0000 
     79 CA         10.9870   67.5200   -5.5600 C.3       4 GLP5        0.0000 
     80 CA          9.9450   71.1885   -7.3275 C.3       2 GLC5        0.0000 
     81 CA          9.8690   71.3370   -9.4180 C.3       4 GLP5        0.0000 
     82 CA         12.1642   78.2742   -5.8632 C.3       2 GLC5        0.0000 
     83 CA         10.4970   78.4540   -6.5770 C.3       4 GLP5        0.0000 
     84 CA          5.8695   73.0807   -1.8577 C.3       2 GLC5        0.0000 
     85 CA          4.8902   73.2786   -0.2204 C.3       2 GLC5        0.0000 
     86 CA          4.0690   72.0780   -0.5920 C.3       4 GLP5        0.0000 
     87 CA         14.6918   77.0040   -2.9415 C.3       2 GLC5        0.0000 
     88 CA         13.3150   77.8590   -3.3460 C.3       6 GLL5        0.0000 
     89 CA         11.5975   77.9332   -4.9488 C.3       2 GLC5        0.0000 
     90 CA          9.1310   78.0620   -4.2717 C.3       2 GLC5        0.0000 
     91 CA         11.9475   82.7020   -1.9178 C.3       2 GLC5        0.0000 
     92 CA         12.1300   81.2800    0.0420 C.3       6 GLL5        0.0000 
     93 CA         11.9660   83.4310   -3.6440 C.3       4 GLP5        0.0000 
     94 CA         13.3409   82.8989    0.4791 C.3       2 GLC5        0.0000 
     95 CA         14.3810   83.9220    1.2010 C.3       4 GLP5        0.0000 
     96 CA         12.7629   71.5410    1.3035 C.3       2 GLC5        0.0000 
     97 CA         11.5570   72.6370    0.5940 C.3       6 GLL5        0.0000 
     98 CA         13.2600   70.7550    2.6300 C.3       4 GLP5        0.0000 
     99 CA          9.6590   74.4292    2.6555 C.3       2 GLC5        0.0000 
    100 CA          8.5430   74.4930    4.0260 C.3       4 GLP5        0.0000 
    101 CA          7.1650   74.1175   -5.3090 C.3       2 GLC5        0.0000 
    102 CA          5.5810   74.4820   -6.5060 C.3       4 GLP5        0.0000 
@<TRIPOS>BOND
@<TRIPOS>SUBSTRUCTURE
     1 SEC2       41 GROUP        1 X    SEC  0     ROOT SEC X 2
     2 GLC5        1 GROUP        1 X    GLC  0     **** GLC X 6
     3 SEP2       43 GROUP        1 Y    SEP  0     ROOT SEP Y 9
     4 GLP5        3 GROUP        1 Y    GLP  0     **** GLP Y 13
     5 SEL2       42 GROUP        1 Z    SEL  0     ROOT SEL Z 16
     6 GLL5        2 GROUP        1 Z    GLL  0     **** GLL Z 20
@<TRIPOS>SET

