#    Name: 1m13_HYF_1_ligand
#    Modification time : Tue Mar 25 11:20:31 2014

@<TRIPOS>MOLECULE
1m13_HYF_1_ligand
   90    91     1     0     0
SMALL
NO_CHARGES


@<TRIPOS>ATOM
      1 C1          9.5070   71.9840   -4.1800 C.2       1 HYF435      0.0000 
      2 C2         13.6650   77.9120   -5.8650 C.3       1 HYF435      0.0000 
      3 C3         15.1880   79.1870   -4.2550 C.3       1 HYF435      0.0000 
      4 C4          5.0030   74.6870   -1.2500 C.3       1 HYF435      0.0000 
      5 C5          6.2350   74.6680   -0.3330 C.3       1 HYF435      0.0000 
      6 C6          5.8040   74.2810    1.0940 C.3       1 HYF435      0.0000 
      7 C7          7.0020   76.0620   -0.3760 C.2       1 HYF435      0.0000 
      8 O8          6.2840   77.0480   -0.1880 O.2       1 HYF435      0.0000 
      9 C9         13.3150   77.8590   -3.3460 C.2       1 HYF435      0.0000 
     10 C10        13.9980   78.2770   -4.4340 C.2       1 HYF435      0.0000 
     11 C11        12.0810   76.9660   -3.2950 C.3       1 HYF435      0.0000 
     12 C12         8.4820   77.4650   -3.1420 C.3       1 HYF435      0.0000 
     13 C13        13.6170   80.8910   -0.1630 C.3       1 HYF435      0.0000 
     14 C14        11.7280   82.6660   -0.4250 C.3       1 HYF435      0.0000 
     15 C15        12.1300   81.2800    0.0420 C.2       1 HYF435      0.0000 
     16 C16        11.1890   80.4850    0.6070 C.2       1 HYF435      0.0000 
     17 C17        11.3950   79.0610    1.1560 C.3       1 HYF435      0.0000 
     18 C18         9.2020   77.7360    0.0590 C.2       1 HYF435      0.0000 
     19 O19         8.4850   78.7260    0.2600 O.2       1 HYF435      0.0000 
     20 O20        11.4100   76.5640    2.5800 O.2       1 HYF435      0.0000 
     21 O21         8.9400   73.7130   -0.4720 O.co2     1 HYF435      0.0000 
     22 C22        13.8920   73.3240   -0.3130 C.3       1 HYF435      0.0000 
     23 C23        12.6770   71.1600   -1.0270 C.3       1 HYF435      0.0000 
     24 C24        12.6530   72.4240   -0.1930 C.2       1 HYF435      0.0000 
     25 C25        11.5570   72.6370    0.5940 C.2       1 HYF435      0.0000 
     26 C26        11.1320   73.7480    1.5960 C.3       1 HYF435      0.0000 
     27 C27         8.6440   76.2870   -0.6350 C.3       1 HYF435      0.0000 
     28 C28         9.3820   74.9580   -0.0020 C.2       1 HYF435      0.0000 
     29 C29        10.4180   74.9830    0.9740 C.2       1 HYF435      0.0000 
     30 C30        10.9160   76.4320    1.4580 C.2       1 HYF435      0.0000 
     31 C31        10.7900   77.7140    0.4640 C.3       1 HYF435      0.0000 
     32 C32        11.6690   77.3300   -0.8830 C.3       1 HYF435      0.0000 
     33 C33        10.9400   77.4360   -2.3010 C.3       1 HYF435      0.0000 
     34 C34         9.3900   76.5270   -2.2530 C.3       1 HYF435      0.0000 
     35 C35         9.6030   75.2470   -3.1780 C.3       1 HYF435      0.0000 
     36 C36         8.4640   74.3130   -3.6750 C.3       1 HYF435      0.0000 
     37 C37         9.0340   73.1930   -4.5490 C.2       1 HYF435      0.0000 
     38 C38         9.5590   71.4920   -2.7470 C.3       1 HYF435      0.0000 
     39 C39        10.0210   71.0400   -5.2370 C.3       1 HYF435      0.0000 
     40 H           6.9204   73.9101   -0.7019 H         1 HYF435      0.0000 
     41 H          13.6323   78.1603   -2.3638 H         1 HYF435      0.0000 
     42 H          12.3732   75.9429   -3.0011 H         1 HYF435      0.0000 
     43 H          11.6322   76.8926   -4.3008 H         1 HYF435      0.0000 
     44 H          10.1851   80.8151    0.7138 H         1 HYF435      0.0000 
     45 H          11.0408   79.0303    2.2394 H         1 HYF435      0.0000 
     46 H          12.5133   78.8685    1.2670 H         1 HYF435      0.0000 
     47 H          10.7469   71.8673    0.5475 H         1 HYF435      0.0000 
     48 H          12.0308   74.0975    2.1345 H         1 HYF435      0.0000 
     49 H          10.4630   73.3010    2.3527 H         1 HYF435      0.0000 
     50 H          12.0286   76.3006   -0.7437 H         1 HYF435      0.0000 
     51 H          12.5492   77.9885   -0.8852 H         1 HYF435      0.0000 
     52 H          10.6933   78.4469   -2.4571 H         1 HYF435      0.0000 
     53 H          10.3844   74.5963   -2.6525 H         1 HYF435      0.0000 
     54 H          10.1861   75.6059   -4.0952 H         1 HYF435      0.0000 
     55 H           7.7583   74.9011   -4.2503 H         1 HYF435      0.0000 
     56 H           7.9647   73.8849   -2.8134 H         1 HYF435      0.0000 
     57 H           9.0299   73.4698   -5.5944 H         1 HYF435      0.0000 
     58 H          14.4213   77.4344   -6.3121 H         1 HYF435      0.0000 
     59 H          12.8667   77.3122   -5.9191 H         1 HYF435      0.0000 
     60 H          13.4619   78.7208   -6.4169 H         1 HYF435      0.0000 
     61 H          16.0246   78.7811   -4.6228 H         1 HYF435      0.0000 
     62 H          15.0587   80.0632   -4.7193 H         1 HYF435      0.0000 
     63 H          15.3595   79.3888   -3.2907 H         1 HYF435      0.0000 
     64 H           5.2422   74.9369   -2.1883 H         1 HYF435      0.0000 
     65 H           4.5557   73.7935   -1.2896 H         1 HYF435      0.0000 
     66 H           4.3174   75.3444   -0.9373 H         1 HYF435      0.0000 
     67 H           6.5815   74.2536    1.7222 H         1 HYF435      0.0000 
     68 H           5.1446   74.9309    1.4719 H         1 HYF435      0.0000 
     69 H           5.3741   73.3785    1.1202 H         1 HYF435      0.0000 
     70 H           8.3594   78.3660   -2.7259 H         1 HYF435      0.0000 
     71 H           8.8762   77.6122   -4.0492 H         1 HYF435      0.0000 
     72 H           7.5698   77.0784   -3.2780 H         1 HYF435      0.0000 
     73 H          14.2331   81.5069    0.3280 H         1 HYF435      0.0000 
     74 H          13.8070   79.9650    0.1632 H         1 HYF435      0.0000 
     75 H          13.8793   80.9216   -1.1275 H         1 HYF435      0.0000 
     76 H          12.2398   83.3812    0.0509 H         1 HYF435      0.0000 
     77 H          11.8917   82.7902   -1.4037 H         1 HYF435      0.0000 
     78 H          10.7571   82.8447   -0.2653 H         1 HYF435      0.0000 
     79 H          14.7258   72.8470   -0.0351 H         1 HYF435      0.0000 
     80 H          14.0332   73.6384   -1.2517 H         1 HYF435      0.0000 
     81 H          13.8157   74.1394    0.2608 H         1 HYF435      0.0000 
     82 H          12.7571   71.3607   -2.0034 H         1 HYF435      0.0000 
     83 H          13.4472   70.5699   -0.7850 H         1 HYF435      0.0000 
     84 H          11.8444   70.6195   -0.9062 H         1 HYF435      0.0000 
     85 H           9.9416   70.5702   -2.6845 H         1 HYF435      0.0000 
     86 H          10.1238   72.0835   -2.1715 H         1 HYF435      0.0000 
     87 H           8.6498   71.4607   -2.3318 H         1 HYF435      0.0000 
     88 H          10.7858   71.4341   -5.7467 H         1 HYF435      0.0000 
     89 H          10.3442   70.1802   -4.8416 H         1 HYF435      0.0000 
     90 H           9.3129   70.8080   -5.9039 H         1 HYF435      0.0000 
@<TRIPOS>BOND
     1   37    1 2    
     2   38    1 1    
     3   39    1 1    
     4   10    2 1    
     5   58    2 1    
     6   59    2 1    
     7   60    2 1    
     8   10    3 1    
     9   61    3 1    
    10   62    3 1    
    11   63    3 1    
    12    5    4 1    
    13   64    4 1    
    14   65    4 1    
    15   66    4 1    
    16    6    5 1    
    17    7    5 1    
    18   40    5 1    
    19   67    6 1    
    20   68    6 1    
    21   69    6 1    
    22    8    7 2    
    23   27    7 1    
    24   10    9 2    
    25   11    9 1    
    26   41    9 1    
    27   33   11 1    
    28   42   11 1    
    29   43   11 1    
    30   34   12 1    
    31   70   12 1    
    32   71   12 1    
    33   72   12 1    
    34   15   13 1    
    35   73   13 1    
    36   74   13 1    
    37   75   13 1    
    38   15   14 1    
    39   76   14 1    
    40   77   14 1    
    41   78   14 1    
    42   16   15 2    
    43   17   16 1    
    44   44   16 1    
    45   31   17 1    
    46   45   17 1    
    47   46   17 1    
    48   19   18 2    
    49   27   18 1    
    50   31   18 1    
    51   30   20 2    
    52   28   21 ar   
    53   24   22 1    
    54   79   22 1    
    55   80   22 1    
    56   81   22 1    
    57   24   23 1    
    58   82   23 1    
    59   83   23 1    
    60   84   23 1    
    61   25   24 2    
    62   26   25 1    
    63   47   25 1    
    64   29   26 1    
    65   48   26 1    
    66   49   26 1    
    67   28   27 1    
    68   34   27 1    
    69   29   28 2    
    70   30   29 1    
    71   31   30 1    
    72   32   31 1    
    73   33   32 1    
    74   50   32 1    
    75   51   32 1    
    76   34   33 1    
    77   52   33 1    
    78   35   34 1    
    79   36   35 1    
    80   53   35 1    
    81   54   35 1    
    82   37   36 1    
    83   55   36 1    
    84   56   36 1    
    85   57   37 1    
    86   85   38 1    
    87   86   38 1    
    88   87   38 1    
    89   88   39 1    
    90   89   39 1    
    91   90   39 1    
@<TRIPOS>SUBSTRUCTURE
     1 HYF435      1 GROUP   
@<TRIPOS>SET

