#    Name: 4jv6_18F_1_INTS_M
#    Modification time : Tue Mar 25 06:32:42 2014

@<TRIPOS>MOLECULE
4jv6_18F_1_INTS_M
   64     0     6     0     0
SMALL
NO_CHARGES


@<TRIPOS>ATOM
      1 CA         19.6895  -13.2080   17.5050 C.3       2 GLC5        0.0000 
      2 CA         20.7250  -14.6170   16.1790 C.3       6 GLL5        0.0000 
      3 CA         18.6540  -11.7990   18.8310 C.3       4 GLP5        0.0000 
      4 CA         17.5705  -19.3605   14.2685 C.3       2 GLC5        0.0000 
      5 CA         19.0330  -18.1330   14.1750 C.3       6 GLL5        0.0000 
      6 CA         16.1080  -20.5880   14.3620 C.3       4 GLP5        0.0000 
      7 CA         21.5755  -19.7845   14.6485 C.3       2 GLC5        0.0000 
      8 CA         21.4460  -19.2740   12.5480 C.3       6 GLL5        0.0000 
      9 CA         21.7050  -20.2950   16.7490 C.3       4 GLP5        0.0000 
     10 CA         21.1465  -21.3670   10.0145 C.3       2 GLC5        0.0000 
     11 CA         22.2360  -19.4210   10.2490 C.3       6 GLL5        0.0000 
     12 CA         20.0570  -23.3130    9.7800 C.3       4 GLP5        0.0000 
     13 N          18.2880  -17.5265    9.2490 N.am      1 SEC2        0.0000 
     14 N          18.9040  -17.6770   10.5530 N.am      5 SEL2        0.0000 
     15 N          17.6720  -17.3760    7.9450 N.am      3 SEP2        0.0000 
     16 N          18.3680  -18.9395   10.2145 N.am      1 SEC2        0.0000 
     17 N          17.8320  -20.2020    9.8760 N.am      3 SEP2        0.0000 
     18 CA         17.5900  -14.0125   13.3430 C.3       2 GLC5        0.0000 
     19 CA         16.8820  -16.0000   12.9860 C.3       6 GLL5        0.0000 
     20 CA         18.2980  -12.0250   13.7000 C.3       4 GLP5        0.0000 
     21 CA         20.4935  -17.5055   17.6717 C.3       2 GLC5        0.0000 
     22 CA         19.4930  -16.7440   16.2510 C.3       6 GLL5        0.0000 
     23 CA         21.2220  -18.8360   18.7840 C.3       4 GLP5        0.0000 
     24 CA         18.4285  -15.6845   18.0258 C.3       2 GLC5        0.0000 
     25 CA         17.0920  -15.1940   19.4920 C.3       4 GLP5        0.0000 
     26 CA         22.1915  -15.9772   15.9887 C.3       2 GLC5        0.0000 
     27 CA         20.0370  -15.6060   16.8680 C.3       6 GLL5        0.0000 
     28 CA         24.0020  -16.8430   15.4540 C.3       4 GLP5        0.0000 
     29 CA         21.1350  -15.1613   18.1322 C.3       2 GLC5        0.0000 
     30 CA         21.8890  -15.2110   19.7410 C.3       4 GLP5        0.0000 
     31 CA         21.9475  -15.5980   13.2005 C.3       2 GLC5        0.0000 
     32 CA         20.9190  -14.7670   14.7990 C.3       6 GLL5        0.0000 
     33 CA         23.2520  -15.8630   11.9150 C.3       4 GLP5        0.0000 
     34 CA         19.4462  -13.6603   14.2655 C.3       2 GLC5        0.0000 
     35 CA         20.3670  -15.8990   14.1730 C.3       6 GLL5        0.0000 
     36 CA         22.0732  -16.4743   15.0673 C.3       2 GLC5        0.0000 
     37 CA         20.5222  -18.9002   15.6370 C.3       2 GLC5        0.0000 
     38 CA         19.6460  -16.8780   14.8750 C.3       6 GLL5        0.0000 
     39 CA         22.0615  -17.4055   12.1113 C.3       2 GLC5        0.0000 
     40 CA         23.4475  -19.2535   13.3545 C.3       2 GLC5        0.0000 
     41 CA         24.9500  -19.0290   14.6220 C.3       4 GLP5        0.0000 
     42 CA         24.0905  -19.1448   10.3528 C.3       2 GLC5        0.0000 
     43 CA         22.4440  -19.6820   11.6260 C.3       6 GLL5        0.0000 
     44 CA         25.8410  -18.7380    9.7680 C.3       4 GLP5        0.0000 
     45 CA         22.7960  -17.7073   11.4262 C.3       2 GLC5        0.0000 
     46 CA         22.0945  -18.2630    8.1375 C.3       2 GLC5        0.0000 
     47 CA         22.5290  -17.4390    6.2570 C.3       4 GLP5        0.0000 
     48 CA         21.5560  -16.8963   10.3338 C.3       2 GLC5        0.0000 
     49 CA         21.0840  -18.7530    9.7870 C.3       6 GLL5        0.0000 
     50 CA         22.5180  -15.2310   10.4190 C.3       4 GLP5        0.0000 
     51 CA         20.0465  -16.8502    9.1723 C.3       2 GLC5        0.0000 
     52 CA         19.4990  -15.1390    8.0960 C.3       4 GLP5        0.0000 
     53 CA         15.9590  -15.8347   10.4123 C.3       2 GLC5        0.0000 
     54 CA         17.1020  -16.9920   12.0360 C.3       6 GLL5        0.0000 
     55 CA         15.3500  -14.3750    9.1260 C.3       4 GLP5        0.0000 
     56 CA         16.3380  -18.9413   13.0302 C.3       2 GLC5        0.0000 
     57 CA         16.0340  -17.5970   11.3610 C.3       6 GLL5        0.0000 
     58 CA         14.9800  -15.5305   10.6007 C.3       2 GLC5        0.0000 
     59 CA         14.7040  -17.1780   11.5880 C.3       6 GLL5        0.0000 
     60 CA         15.7873  -15.0868   11.1178 C.3       2 GLC5        0.0000 
     61 CA         15.5670  -15.5970   13.2330 C.3       6 GLL5        0.0000 
     62 CA         15.5319  -17.0364   14.4685 C.3       2 GLC5        0.0000 
     63 CA         14.5160  -16.1940   12.5630 C.3       6 GLL5        0.0000 
     64 CA         15.1020  -18.1250   15.9950 C.3       4 GLP5        0.0000 
@<TRIPOS>BOND
@<TRIPOS>SUBSTRUCTURE
     1 SEC2       13 GROUP        1 X    SEC  0     ROOT SEC X 2
     2 GLC5        1 GROUP        1 X    GLC  0     **** GLC X 6
     3 SEP2       15 GROUP        1 Y    SEP  0     ROOT SEP Y 9
     4 GLP5        3 GROUP        1 Y    GLP  0     **** GLP Y 13
     5 SEL2       14 GROUP        1 Z    SEL  0     ROOT SEL Z 16
     6 GLL5        2 GROUP        1 Z    GLL  0     **** GLL Z 20
@<TRIPOS>SET

