#    Name: 4jv6_18F_1_ligand
#    Modification time : Tue Mar 25 06:32:42 2014

@<TRIPOS>MOLECULE
4jv6_18F_1_ligand
   38    41     1     0     0
SMALL
NO_CHARGES


@<TRIPOS>ATOM
      1 CAR        19.4930  -16.7440   16.2510 C.ar      1 18F201      0.0000 
      2 CAS        20.0370  -15.6060   16.8680 C.ar      1 18F201      0.0000 
      3 CAT        20.7250  -14.6170   16.1790 C.ar      1 18F201      0.0000 
      4 CAU        20.9190  -14.7670   14.7990 C.ar      1 18F201      0.0000 
      5 CAV        20.3670  -15.8990   14.1730 C.ar      1 18F201      0.0000 
      6 CAQ        19.6460  -16.8780   14.8750 C.ar      1 18F201      0.0000 
      7 CAP        19.0330  -18.1330   14.1750 C.3       1 18F201      0.0000 
      8 NAE        19.2110  -18.1020   12.6900 N.pl3     1 18F201      0.0000 
      9 CAD        20.2960  -18.6220   12.0670 C.ar      1 18F201      0.0000 
     10 CAI        21.4460  -19.2740   12.5480 C.ar      1 18F201      0.0000 
     11 CAH        22.4440  -19.6820   11.6260 C.ar      1 18F201      0.0000 
     12 CAG        22.2360  -19.4210   10.2490 C.ar      1 18F201      0.0000 
     13 CAF        21.0840  -18.7530    9.7870 C.ar      1 18F201      0.0000 
     14 CAC        20.1040  -18.3700   10.7100 C.ar      1 18F201      0.0000 
     15 NAB        18.9040  -17.6770   10.5530 N.2       1 18F201      0.0000 
     16 CAA        18.3740  -17.5190   11.7700 C.2       1 18F201      0.0000 
     17 CAJ        17.1020  -16.9920   12.0360 C.ar      1 18F201      0.0000 
     18 CAK        16.0340  -17.5970   11.3610 C.ar      1 18F201      0.0000 
     19 CAL        14.7040  -17.1780   11.5880 C.ar      1 18F201      0.0000 
     20 CAM        14.5160  -16.1940   12.5630 C.ar      1 18F201      0.0000 
     21 CAN        15.5670  -15.5970   13.2330 C.ar      1 18F201      0.0000 
     22 CAO        16.8820  -16.0000   12.9860 C.ar      1 18F201      0.0000 
     23 H          19.0049  -17.4428   16.7969 H         1 18F201      0.0000 
     24 H          19.9131  -15.5039   17.9067 H         1 18F201      0.0000 
     25 H          21.0846  -13.7955   16.6612 H         1 18F201      0.0000 
     26 H          21.4395  -14.0836   14.2678 H         1 18F201      0.0000 
     27 H          20.4992  -16.0150   13.1453 H         1 18F201      0.0000 
     28 H          17.9685  -18.1722   14.4313 H         1 18F201      0.0000 
     29 H          19.5149  -19.0210   14.5989 H         1 18F201      0.0000 
     30 H          21.5651  -19.4525   13.5395 H         1 18F201      0.0000 
     31 H          23.2802  -20.1461   11.9435 H         1 18F201      0.0000 
     32 H          22.9491  -19.7296    9.5683 H         1 18F201      0.0000 
     33 H          20.9707  -18.5542    8.7961 H         1 18F201      0.0000 
     34 H          16.2149  -18.3561   10.6908 H         1 18F201      0.0000 
     35 H          13.9415  -17.5694   11.0741 H         1 18F201      0.0000 
     36 H          13.5362  -15.9019   12.7902 H         1 18F201      0.0000 
     37 H          15.3870  -14.8496   13.9201 H         1 18F201      0.0000 
     38 H          17.6562  -15.5771   13.4894 H         1 18F201      0.0000 
@<TRIPOS>BOND
     1    2    1 ar   
     2    6    1 ar   
     3   23    1 1    
     4    3    2 ar   
     5   24    2 1    
     6    4    3 ar   
     7   25    3 1    
     8    5    4 ar   
     9   26    4 1    
    10    6    5 ar   
    11   27    5 1    
    12    7    6 1    
    13    8    7 1    
    14   28    7 1    
    15   29    7 1    
    16    9    8 1    
    17   16    8 1    
    18   10    9 ar   
    19   14    9 ar   
    20   11   10 ar   
    21   30   10 1    
    22   12   11 ar   
    23   31   11 1    
    24   13   12 ar   
    25   32   12 1    
    26   14   13 ar   
    27   33   13 1    
    28   15   14 1    
    29   16   15 2    
    30   17   16 1    
    31   18   17 ar   
    32   22   17 ar   
    33   19   18 ar   
    34   34   18 1    
    35   20   19 ar   
    36   35   19 1    
    37   21   20 ar   
    38   36   20 1    
    39   22   21 ar   
    40   37   21 1    
    41   38   22 1    
@<TRIPOS>SUBSTRUCTURE
     1 18F201      1 GROUP   
@<TRIPOS>SET

