#    Name: 4K6Q_1_CAVITY_N1_ALL.mol2
#    Modification time : Tue Mar 11 10:03:55 2014

@<TRIPOS>MOLECULE
4K6Q_1_CAVITY_N1_ALL.mol2
   79     0     6     0     0
SMALL
NO_CHARGES


@<TRIPOS>ATOM
      1 NZ         24.8927   -0.3650   -5.8052 N.2       3 LYS4        0.0000 
      2 CA         23.9632    0.3456   -6.7439 C.3       5 GLY6        0.0000 
      3 NZ         24.7692    0.7655   -4.8272 N.2       3 LYS4        0.0000 
      4 CZ         25.9400    1.4489   -5.4692 C.ar      4 PHE5        0.0000 
      5 NZ         22.6689    0.7928   -5.1238 N.2       3 LYS4        0.0000 
      6 NZ         23.8397    1.4761   -5.7658 N.2       3 LYS4        0.0000 
      7 CZ         25.0105    2.1594   -6.4079 C.ar      4 PHE5        0.0000 
      8 CA         22.2220    4.2912   -9.2239 C.3       5 GLY6        0.0000 
      9 O          21.2926    5.0017  -10.1626 O.2       2 ALA2        0.0000 
     10 CZ         24.6458    1.8961   -3.8491 C.ar      4 PHE5        0.0000 
     11 O          22.5455    1.9233   -4.1457 O.2       2 ALA2        0.0000 
     12 CZ         23.7163    2.6066   -4.7878 C.ar      4 PHE5        0.0000 
     13 CA         22.7868    3.3172   -5.7264 C.3       5 GLY6        0.0000 
     14 CZ         23.9576    4.0006   -6.3685 C.ar      4 PHE5        0.0000 
     15 OG         28.6408    6.7339   -8.9368 O.2       1 SER1        0.0000 
     16 CA         23.0281    4.7111   -7.3072 C.3       5 GLY6        0.0000 
     17 O          20.9278    4.7384   -7.6038 O.2       2 ALA2        0.0000 
     18 CA         22.0986    5.4217   -8.2459 C.3       5 GLY6        0.0000 
     19 DU         23.2694    6.1051   -8.8879 H         6 CUB7        0.0000 
     20 CZ         21.1691    6.1323   -9.1845 C.ar      4 PHE5        0.0000 
     21 DU         22.3399    6.8156   -9.8266 H         6 CUB7        0.0000 
     22 DU         23.5107    7.4990  -10.4687 H         6 CUB7        0.0000 
     23 N          22.5812    8.2095  -11.4074 N.2       2 ALA2        0.0000 
     24 N          22.4220    3.0538   -3.1676 N.2       2 ALA2        0.0000 
     25 CZ         23.5928    3.7372   -3.8097 C.ar      4 PHE5        0.0000 
     26 N          22.6633    4.4478   -4.7484 N.2       2 ALA2        0.0000 
     27 CZ         23.8341    5.1311   -5.3904 C.ar      4 PHE5        0.0000 
     28 CA         28.5173    7.8645   -7.9587 C.3       5 GLY6        0.0000 
     29 CA         21.7338    5.1583   -5.6870 C.3       5 GLY6        0.0000 
     30 CZ         22.9046    5.8417   -6.3291 C.ar      4 PHE5        0.0000 
     31 OG         24.0754    6.5250   -6.9712 O.2       1 SER1        0.0000 
     32 OG         26.4170    7.8917   -8.2553 O.2       1 SER1        0.0000 
     33 CA         27.5878    8.5750   -8.8974 C.3       5 GLY6        0.0000 
     34 O          20.8043    5.8689   -6.6257 O.2       2 ALA2        0.0000 
     35 CZ         21.9751    6.5523   -7.2678 C.ar      4 PHE5        0.0000 
     36 DU         23.1459    7.2356   -7.9099 H         6 CUB7        0.0000 
     37 OG         24.3167    7.9189   -8.5519 O.2       1 SER1        0.0000 
     38 CA         25.4875    8.6023   -9.1940 C.3       5 GLY6        0.0000 
     39 CZ         21.0456    7.2628   -8.2065 C.ar      4 PHE5        0.0000 
     40 CZ         22.2164    7.9462   -8.8485 C.ar      4 PHE5        0.0000 
     41 N          23.3872    8.6295   -9.4906 N.2       2 ALA2        0.0000 
     42 N          24.5580    9.3129  -10.1327 N.2       2 ALA2        0.0000 
     43 CA         25.7288    9.9962  -10.7748 C.3       5 GLY6        0.0000 
     44 CZ         21.2869    8.6567   -9.7872 C.ar      4 PHE5        0.0000 
     45 N          22.4577    9.3401  -10.4293 N.2       2 ALA2        0.0000 
     46 CA         22.2985    4.1844   -2.1895 C.3       5 GLY6        0.0000 
     47 N          21.3690    4.8950   -3.1282 N.2       2 ALA2        0.0000 
     48 CZ         22.5398    5.5783   -3.7703 C.ar      4 PHE5        0.0000 
     49 N          20.4395    5.6055   -4.0669 N.2       2 ALA2        0.0000 
     50 N          21.6103    6.2889   -4.7090 N.2       2 ALA2        0.0000 
     51 CZ         22.7812    6.9722   -5.3510 C.ar      4 PHE5        0.0000 
     52 CZ         23.9520    7.6556   -5.9931 C.ar      4 PHE5        0.0000 
     53 OG         25.1228    8.3389   -6.6352 O.2       1 SER1        0.0000 
     54 OG         26.2936    9.0222   -7.2773 O.2       1 SER1        0.0000 
     55 CZ         19.5100    6.3161   -5.0056 C.ar      4 PHE5        0.0000 
     56 CZ         20.6808    6.9995   -5.6476 C.ar      4 PHE5        0.0000 
     57 CZ         21.8517    7.6828   -6.2897 C.ar      4 PHE5        0.0000 
     58 DU         23.0225    8.3661   -6.9318 H         6 CUB7        0.0000 
     59 OG         24.1933    9.0495   -7.5739 O.2       1 SER1        0.0000 
     60 O          25.3641    9.7328   -8.2159 O.2       2 ALA2        0.0000 
     61 N          22.0930    9.0767   -7.8705 N.2       2 ALA2        0.0000 
     62 N          23.2638    9.7601   -8.5125 N.2       2 ALA2        0.0000 
     63 N          24.4346   10.4434   -9.1546 N.2       2 ALA2        0.0000 
     64 CA         21.2456    6.0255   -2.1502 C.3       5 GLY6        0.0000 
     65 CZ         22.4164    6.7088   -2.7922 C.ar      4 PHE5        0.0000 
     66 CA         20.3161    6.7361   -3.0888 C.3       5 GLY6        0.0000 
     67 CA         21.4869    7.4194   -3.7309 C.3       5 GLY6        0.0000 
     68 O          22.6577    8.1028   -4.3730 O.2       2 ALA2        0.0000 
     69 O          23.8285    8.7861   -5.0150 O.2       2 ALA2        0.0000 
     70 CZ         24.9993    9.4694   -5.6571 C.ar      4 PHE5        0.0000 
     71 CA         19.3866    7.4467   -4.0275 C.3       5 GLY6        0.0000 
     72 CZ         20.5574    8.1300   -4.6696 C.ar      4 PHE5        0.0000 
     73 O          21.7282    8.8133   -5.3116 O.2       2 ALA2        0.0000 
     74 O          22.8990    9.4967   -5.9537 O.2       2 ALA2        0.0000 
     75 O          24.0698   10.1800   -6.5958 O.2       2 ALA2        0.0000 
     76 CZ         25.2406   10.8634   -7.2379 C.ar      4 PHE5        0.0000 
     77 NZ         21.9695   10.2073   -6.8924 N.2       3 LYS4        0.0000 
     78 CA         21.3634    8.5500   -2.7528 C.3       5 GLY6        0.0000 
     79 CA         20.4339    9.2605   -3.6915 C.3       5 GLY6        0.0000 
@<TRIPOS>BOND
@<TRIPOS>SUBSTRUCTURE
     1 SER1       15 GROUP   
     2 ALA2        9 GROUP   
     3 LYS4        1 GROUP   
     4 PHE5        4 GROUP   
     5 GLY6        2 GROUP   
     6 CUB7       19 GROUP   
@<TRIPOS>SET

