#    Name: 4k6q_C5P_1_INTS_M
#    Modification time : Tue Mar 25 07:22:39 2014

@<TRIPOS>MOLECULE
4k6q_C5P_1_INTS_M
   39     0     9     0     0
SMALL
NO_CHARGES


@<TRIPOS>ATOM
      1 N          18.3540    3.7325  -10.5000 N.am      2 SEC2        0.0000 
      2 N          19.6730    4.3330  -10.9130 N.am      8 SEL2        0.0000 
      3 N          17.0350    3.1320  -10.0870 N.am      5 SEP2        0.0000 
      4 N          19.5820    4.6460   -8.3185 N.am      2 SEC2        0.0000 
      5 N          20.6790    5.2820   -8.8670 N.am      8 SEL2        0.0000 
      6 N          18.4850    4.0100   -7.7700 N.am      5 SEP2        0.0000 
      7 N          19.5450    4.8980   -6.6975 N.am      2 SEC2        0.0000 
      8 N          20.6050    5.7860   -5.6250 N.am      8 SEL2        0.0000 
      9 N          22.6380    9.7270   -4.0990 N.am      2 SEC2        0.0000 
     10 N          22.1870    8.3690   -4.3320 N.am      8 SEL2        0.0000 
     11 N          23.0890   11.0850   -3.8660 N.am      5 SEP2        0.0000 
     12 N          23.4375    9.1385   -3.5310 N.am      2 SEC2        0.0000 
     13 N          24.6880    9.9080   -2.7300 N.am      5 SEP2        0.0000 
     14 CA         19.9290    7.4275   -3.2015 C.3       3 GLC5        0.0000 
     15 CA         21.2360    6.1580   -4.4340 C.3       9 GLL5        0.0000 
     16 CA         18.6220    8.6970   -1.9690 C.3       6 GLP5        0.0000 
     17 CA         24.0375    3.9155   -2.2945 C.3       3 GLC5        0.0000 
     18 CA         22.6530    2.8150   -3.6760 C.3       9 GLL5        0.0000 
     19 CA         25.4220    5.0160   -0.9130 C.3       6 GLP5        0.0000 
     20 N          22.0195    5.6290   -0.2545 N.am      2 SEC2        0.0000 
     21 N          21.1770    5.9460   -1.7380 N.am      8 SEL2        0.0000 
     22 N          22.8620    5.3120    1.2290 N.am      5 SEP2        0.0000 
     23 O          22.5935    2.1980   -0.2330 O.2       1 ALC1        0.0000 
     24 O          22.9410    1.8200   -1.5560 O.2       7 ALL1        0.0000 
     25 O          22.2460    2.5760    1.0900 O.2       4 ALP1        0.0000 
     26 O          23.5240    0.7135   -1.6655 O.2       1 ALC1        0.0000 
     27 O          24.1070   -0.3930   -1.7750 O.2       4 ALP1        0.0000 
     28 CA         20.7118    4.0325   -7.0505 C.3       3 GLC5        0.0000 
     29 CA         21.5120    5.1160   -7.7550 C.3       9 GLL5        0.0000 
     30 CA         20.0250    2.3860   -6.8370 C.3       6 GLP5        0.0000 
     31 CA         19.9158    6.8950   -7.6060 C.3       3 GLC5        0.0000 
     32 CA         18.4330    8.1110   -7.9480 C.3       6 GLP5        0.0000 
     33 CA         24.2680    6.9817   -4.8308 C.3       3 GLC5        0.0000 
     34 CA         22.5730    6.8960   -6.2860 C.3       9 GLL5        0.0000 
     35 CA         26.0390    7.0010   -4.1260 C.3       6 GLP5        0.0000 
     36 CA         21.0607    2.1102   -3.7065 C.3       3 GLC5        0.0000 
     37 CA         22.2060    3.9200   -4.3820 C.3       9 GLL5        0.0000 
     38 CA         19.6920    0.8530   -3.3840 C.3       6 GLP5        0.0000 
     39 CA         21.2272    2.8768   -5.4330 C.3       3 GLC5        0.0000 
@<TRIPOS>BOND
@<TRIPOS>SUBSTRUCTURE
     1 ALC1       23 GROUP        1 X    ALC  0     ROOT ALC X 1
     2 SEC2        1 GROUP        1 X    SEC  0     **** SEC X 2
     3 GLC5       14 GROUP        1 X    GLC  0     **** GLC X 6
     4 ALP1       25 GROUP        1 Y    ALP  0     ROOT ALP Y 8
     5 SEP2        3 GROUP        1 Y    SEP  0     **** SEP Y 9
     6 GLP5       16 GROUP        1 Y    GLP  0     **** GLP Y 13
     7 ALL1       24 GROUP        1 Z    ALL  0     ROOT ALL Z 15
     8 SEL2        2 GROUP        1 Z    SEL  0     **** SEL Z 16
     9 GLL5       15 GROUP        1 Z    GLL  0     **** GLL Z 20
@<TRIPOS>SET

