#    Name: 4k6q_C5P_1_ligand
#    Modification time : Tue Mar 25 07:22:39 2014

@<TRIPOS>MOLECULE
4k6q_C5P_1_ligand
   33    34     1     0     0
SMALL
NO_CHARGES


@<TRIPOS>ATOM
      1 O3P        19.6730    4.3330  -10.9130 O.co2     1 C5P304      0.0000 
      2 P          20.9850    4.6480  -10.3140 P.3       1 C5P304      0.0000 
      3 O1P        21.8060    3.4210  -10.0930 O.co2     1 C5P304      0.0000 
      4 O2P        21.7860    5.7160  -10.9610 O.co2     1 C5P304      0.0000 
      5 O5'        20.6790    5.2820   -8.8670 O.3       1 C5P304      0.0000 
      6 C5'        21.5120    5.1160   -7.7550 C.3       1 C5P304      0.0000 
      7 C4'        21.2850    6.2420   -6.7730 C.3       1 C5P304      0.0000 
      8 O4'        20.6050    5.7860   -5.6250 O.3       1 C5P304      0.0000 
      9 C3'        22.5730    6.8960   -6.2860 C.3       1 C5P304      0.0000 
     10 O3'        22.8030    8.1570   -6.9090 O.3       1 C5P304      0.0000 
     11 C2'        22.4210    7.0290   -4.7850 C.3       1 C5P304      0.0000 
     12 O2'        22.1870    8.3690   -4.3320 O.3       1 C5P304      0.0000 
     13 C1'        21.2360    6.1580   -4.4340 C.3       1 C5P304      0.0000 
     14 N1         21.6950    4.9700   -3.7410 N.am      1 C5P304      0.0000 
     15 C2         21.6060    4.9650   -2.3420 C.2       1 C5P304      0.0000 
     16 N3         22.0320    3.8940   -1.6550 N.2       1 C5P304      0.0000 
     17 C4         22.5490    2.8420   -2.2910 C.2       1 C5P304      0.0000 
     18 C5         22.6530    2.8150   -3.6760 C.2       1 C5P304      0.0000 
     19 C6         22.2060    3.9200   -4.3820 C.2       1 C5P304      0.0000 
     20 O2         21.1770    5.9460   -1.7380 O.2       1 C5P304      0.0000 
     21 N4         22.9410    1.8200   -1.5560 N.pl3     1 C5P304      0.0000 
     22 H          22.5789    5.1215   -8.0295 H         1 C5P304      0.0000 
     23 H          21.3186    4.1682   -7.2278 H         1 C5P304      0.0000 
     24 H          20.6971    7.0223   -7.2675 H         1 C5P304      0.0000 
     25 H          23.3786    6.1952   -6.4704 H         1 C5P304      0.0000 
     26 H          23.2891    6.5863   -4.3184 H         1 C5P304      0.0000 
     27 H          20.5813    6.7295   -3.8009 H         1 C5P304      0.0000 
     28 H          23.0446    2.0099   -4.1542 H         1 C5P304      0.0000 
     29 H          22.2803    3.9066   -5.4217 H         1 C5P304      0.0000 
     30 H          23.6708    1.2552   -1.9412 H         1 C5P304      0.0000 
     31 H          22.4728    1.7026   -0.6803 H         1 C5P304      0.0000 
     32 H          22.0908    8.7582   -6.5468 H         1 C5P304      0.0000 
     33 H          21.3195    8.6361   -4.7515 H         1 C5P304      0.0000 
@<TRIPOS>BOND
     1    2    1 ar   
     2    3    2 ar   
     3    4    2 ar   
     4    5    2 1    
     5    6    5 1    
     6    7    6 1    
     7   22    6 1    
     8   23    6 1    
     9    8    7 1    
    10    9    7 1    
    11   24    7 1    
    12   13    8 1    
    13   10    9 1    
    14   11    9 1    
    15   25    9 1    
    16   32   10 1    
    17   12   11 1    
    18   13   11 1    
    19   26   11 1    
    20   33   12 1    
    21   14   13 1    
    22   27   13 1    
    23   15   14 am   
    24   19   14 1    
    25   16   15 1    
    26   20   15 2    
    27   17   16 2    
    28   18   17 1    
    29   21   17 1    
    30   19   18 2    
    31   28   18 1    
    32   29   19 1    
    33   30   21 1    
    34   31   21 1    
@<TRIPOS>SUBSTRUCTURE
     1 C5P304      1 GROUP   
@<TRIPOS>SET

