#    Name: 3tso_GNP_1_INTS_M
#    Modification time : Mon Mar 24 20:53:20 2014

@<TRIPOS>MOLECULE
3tso_GNP_1_INTS_M
   76     0    15     0     0
SMALL
NO_CHARGES


@<TRIPOS>ATOM
      1 N           0.6205   25.8095   12.8620 N.am      2 SEC2        0.0000 
      2 N           0.2810   25.7710   14.0510 N.am     12 SEL2        0.0000 
      3 N           0.9600   25.8480   11.6730 N.am      7 SEP2        0.0000 
      4 N          -0.4575   26.8135   14.0205 N.am      2 SEC2        0.0000 
      5 N          -1.1960   27.8560   13.9900 N.am      7 SEP2        0.0000 
      6 Zn          0.0270   24.7890   17.3440 Zn        4 ZIC7        0.0000 
      7 Zn          0.0970   25.3690   16.5390 Zn       14 ZIL7        0.0000 
      8 Zn         -0.0430   24.2090   18.1490 Zn        9 ZIP7        0.0000 
      9 N          -1.0785   26.1485   16.6950 N.am      2 SEC2        0.0000 
     10 N           0.0970   25.3690   16.5390 N.am     12 SEL2        0.0000 
     11 N          -2.2540   26.9280   16.8510 N.am      7 SEP2        0.0000 
     12 NZ          3.5510   24.7630   15.5330 N.4       3 LYC4        0.0000 
     13 NZ          2.3890   25.4330   15.3530 N.4      13 LYL4        0.0000 
     14 NZ          4.7130   24.0930   15.7130 N.4       8 LYP4        0.0000 
     15 N           3.5510   24.7630   15.5330 N.am      2 SEC2        0.0000 
     16 N           2.3890   25.4330   15.3530 N.am     12 SEL2        0.0000 
     17 N           4.7130   24.0930   15.7130 N.am      7 SEP2        0.0000 
     18 N           3.2415   26.6280   15.3820 N.am      2 SEC2        0.0000 
     19 N           4.0940   27.8230   15.4110 N.am      7 SEP2        0.0000 
     20 NZ          3.6945   23.0315   15.6905 N.4       3 LYC4        0.0000 
     21 NZ          2.6760   21.9700   15.6680 N.4      13 LYL4        0.0000 
     22 N           2.8515   20.4830   15.3605 N.am      2 SEC2        0.0000 
     23 N           2.6760   21.9700   15.6680 N.am     12 SEL2        0.0000 
     24 N           3.0270   18.9960   15.0530 N.am      7 SEP2        0.0000 
     25 N           3.0470   21.0130   16.6795 N.am      2 SEC2        0.0000 
     26 N           3.4180   20.0560   17.6910 N.am      7 SEP2        0.0000 
     27 N           3.6945   23.0315   15.6905 N.am      2 SEC2        0.0000 
     28 Zn          0.4245   23.4045   17.7685 Zn        4 ZIC7        0.0000 
     29 Zn          0.8920   22.6000   17.3880 Zn       14 ZIL7        0.0000 
     30 N           1.2935   21.7705   18.5940 N.am      2 SEC2        0.0000 
     31 N           0.8920   22.6000   17.3880 N.am     12 SEL2        0.0000 
     32 N           1.6950   20.9410   19.8000 N.am      7 SEP2        0.0000 
     33 N           1.7785   19.9750   15.2295 N.am      2 SEC2        0.0000 
     34 N           0.5300   20.9540   15.4060 N.am     12 SEL2        0.0000 
     35 N          -0.0295   19.1315   18.8260 N.am      2 SEC2        0.0000 
     36 N          -0.2250   19.5230   17.3420 N.am     12 SEL2        0.0000 
     37 N           0.1660   18.7400   20.3100 N.am      7 SEP2        0.0000 
     38 N          -1.3260   18.5720   17.7920 N.am      2 SEC2        0.0000 
     39 N          -2.4270   17.6210   18.2420 N.am      7 SEP2        0.0000 
     40 CA          0.0380   20.4190   12.7185 C.3       5 GLC5        0.0000 
     41 CA         -1.3860   19.3290   13.7080 C.3      15 GLL5        0.0000 
     42 CA          1.4620   21.5090   11.7290 C.3      10 GLP5        0.0000 
     43 N          -0.2435   16.6690   12.1400 N.am      2 SEC2        0.0000 
     44 N          -1.2490   16.8620   13.1290 N.am     12 SEL2        0.0000 
     45 N           0.7620   16.4760   11.1510 N.am      7 SEP2        0.0000 
     46 CA         -4.6220   19.2710   13.4005 C.3       5 GLC5        0.0000 
     47 CA         -3.3450   17.8130   13.8950 C.3      15 GLL5        0.0000 
     48 CA         -5.8990   20.7290   12.9060 C.3      10 GLP5        0.0000 
     49 O          -4.6615   15.9900   16.4460 O.2       1 ALC1        0.0000 
     50 O          -4.0280   15.8880   15.3050 O.2      11 ALL1        0.0000 
     51 O          -5.2950   16.0920   17.5870 O.2       6 ALP1        0.0000 
     52 CA         -0.1330   15.8930   13.0090 C.3       5 GLC5        0.0000 
     53 CA         -2.0620   15.9240   14.0070 C.3      15 GLL5        0.0000 
     54 CA          1.7960   15.8620   12.0110 C.3      10 GLP5        0.0000 
     55 N           2.3385   14.9115   15.9500 N.am      2 SEC2        0.0000 
     56 N           0.7110   14.8370   15.9130 N.am     12 SEL2        0.0000 
     57 N           3.9660   14.9860   15.9870 N.am      7 SEP2        0.0000 
     58 CA          1.7415   13.7320   13.8650 C.3       5 GLC5        0.0000 
     59 CA          0.4230   13.6820   15.2460 C.3      15 GLL5        0.0000 
     60 CA          3.0600   13.7820   12.4840 C.3      10 GLP5        0.0000 
     61 CA          1.0105   13.5780   17.3500 C.3       5 GLC5        0.0000 
     62 CA          1.5980   13.4740   19.4540 C.3      10 GLP5        0.0000 
     63 N           1.0560   11.3370   17.1360 N.am      2 SEC2        0.0000 
     64 N           1.9610   12.0050   15.8930 N.am     12 SEL2        0.0000 
     65 N           0.1510   10.6690   18.3790 N.am      7 SEP2        0.0000 
     66 O           1.0415   10.2025   14.2940 O.2       1 ALC1        0.0000 
     67 O           0.4060   11.4040   14.3850 O.2      11 ALL1        0.0000 
     68 O           1.6770    9.0010   14.2030 O.2       6 ALP1        0.0000 
     69 O           0.1570    9.9350   13.7030 O.2       1 ALC1        0.0000 
     70 O          -0.0920    8.4660   13.0210 O.2       6 ALP1        0.0000 
     71 O          -0.6780    9.6400   12.9025 O.2       1 ALC1        0.0000 
     72 O          -1.2640   10.8140   12.7840 O.2      11 ALL1        0.0000 
     73 CA          0.5700   14.9220   13.2320 C.3       5 GLC5        0.0000 
     74 CA         -0.6560   13.9820   14.4530 C.3      15 GLL5        0.0000 
     75 CA         -2.8927   14.7045   15.7020 C.3       5 GLC5        0.0000 
     76 CA         -3.2980   13.0740   16.9640 C.3      10 GLP5        0.0000 
@<TRIPOS>BOND
@<TRIPOS>SUBSTRUCTURE
     1 ALC1       49 GROUP        1 X    ALC  0     ROOT ALC X 1
     2 SEC2        1 GROUP        1 X    SEC  0     **** SEC X 2
     3 LYC4       12 GROUP        1 X    LYC  0     **** LYC X 4
     4 ZIC7        6 GROUP        1 X    ZIC  0     **** ZIC X 5
     5 GLC5       40 GROUP        1 X    GLC  0     **** GLC X 6
     6 ALP1       51 GROUP        1 Y    ALP  0     ROOT ALP Y 8
     7 SEP2        3 GROUP        1 Y    SEP  0     **** SEP Y 9
     8 LYP4       14 GROUP        1 Y    LYP  0     **** LYP Y 11
     9 ZIP7        8 GROUP        1 Y    ZIP  0     **** ZIP Y 12
    10 GLP5       42 GROUP        1 Y    GLP  0     **** GLP Y 13
    11 ALL1       50 GROUP        1 Z    ALL  0     ROOT ALL Z 15
    12 SEL2        2 GROUP        1 Z    SEL  0     **** SEL Z 16
    13 LYL4       13 GROUP        1 Z    LYL  0     **** LYL Z 18
    14 ZIL7        7 GROUP        1 Z    ZIL  0     **** ZIL Z 19
    15 GLL5       41 GROUP        1 Z    GLL  0     **** GLL Z 20
@<TRIPOS>SET

