#    Name: 3tso_GNP_1_ligand
#    Modification time : Mon Mar 24 20:53:20 2014

@<TRIPOS>MOLECULE
3tso_GNP_1_ligand
   44    46     1     0     0
SMALL
NO_CHARGES


@<TRIPOS>ATOM
      1 PG          0.8940   25.0920   15.2380 P.3       1 GNP201      0.0000 
      2 O1G         0.2810   25.7710   14.0510 O.co2     1 GNP201      0.0000 
      3 O2G         0.0970   25.3690   16.5390 O.co2     1 GNP201      0.0000 
      4 O3G         2.3890   25.4330   15.3530 O.co2     1 GNP201      0.0000 
      5 N3B         0.8170   23.4450   14.9430 N.4       1 GNP201      0.0000 
      6 PB          1.2800   22.3190   15.9900 P.3       1 GNP201      0.0000 
      7 O1B         2.6760   21.9700   15.6680 O.co2     1 GNP201      0.0000 
      8 O2B         0.8920   22.6000   17.3880 O.co2     1 GNP201      0.0000 
      9 O3A         0.5300   20.9540   15.4060 O.3       1 GNP201      0.0000 
     10 PA         -0.7210   20.2090   16.1270 P.3       1 GNP201      0.0000 
     11 O1A        -0.2250   19.5230   17.3420 O.co2     1 GNP201      0.0000 
     12 O2A        -1.8840   21.0620   16.2170 O.co2     1 GNP201      0.0000 
     13 O5'        -0.9270   19.0260   15.0680 O.3       1 GNP201      0.0000 
     14 C5'        -1.3860   19.3290   13.7080 C.3       1 GNP201      0.0000 
     15 C4'        -2.0470   18.0500   13.0710 C.3       1 GNP201      0.0000 
     16 O4'        -1.2490   16.8620   13.1290 O.3       1 GNP201      0.0000 
     17 C3'        -3.3450   17.8130   13.8950 C.3       1 GNP201      0.0000 
     18 O3'        -4.5270   17.4290   13.1020 O.3       1 GNP201      0.0000 
     19 C2'        -2.9130   16.7460   14.8730 C.3       1 GNP201      0.0000 
     20 O2'        -4.0280   15.8880   15.3050 O.3       1 GNP201      0.0000 
     21 C1'        -2.0620   15.9240   14.0070 C.3       1 GNP201      0.0000 
     22 N9         -0.9850   15.2460   14.6960 N.pl3     1 GNP201      0.0000 
     23 C8         -0.1220   15.7940   15.6050 C.2       1 GNP201      0.0000 
     24 N7          0.7110   14.8370   15.9130 N.2       1 GNP201      0.0000 
     25 C5          0.4230   13.6820   15.2460 C.2       1 GNP201      0.0000 
     26 C6          0.9760   12.3610   15.2240 C.2       1 GNP201      0.0000 
     27 O6          1.9610   12.0050   15.8930 O.2       1 GNP201      0.0000 
     28 N1          0.4060   11.4040   14.3850 N.am      1 GNP201      0.0000 
     29 C2         -0.7120   11.7540   13.5970 C.2       1 GNP201      0.0000 
     30 N2         -1.2640   10.8140   12.7840 N.pl3     1 GNP201      0.0000 
     31 N3         -1.1920   13.0420   13.6380 N.2       1 GNP201      0.0000 
     32 C4         -0.6560   13.9820   14.4530 C.2       1 GNP201      0.0000 
     33 H          -0.5608   19.6205   13.0634 H         1 GNP201      0.0000 
     34 H          -2.1366   20.1151   13.7055 H         1 GNP201      0.0000 
     35 H          -2.3587   18.3059   12.0786 H         1 GNP201      0.0000 
     36 H          -3.5143   18.7201   14.4651 H         1 GNP201      0.0000 
     37 H          -2.3673   17.1516   15.6433 H         1 GNP201      0.0000 
     38 H          -2.5927   15.2805   13.3814 H         1 GNP201      0.0000 
     39 H          -0.1546   16.6912   15.9224 H         1 GNP201      0.0000 
     40 H           0.7866   10.4599   14.3356 H         1 GNP201      0.0000 
     41 H          -1.1474    9.8626   13.0689 H         1 GNP201      0.0000 
     42 H          -1.7379   11.1572   11.9730 H         1 GNP201      0.0000 
     43 H          -4.8555   16.5823   13.5206 H         1 GNP201      0.0000 
     44 H          -4.2608   16.2090   16.2230 H         1 GNP201      0.0000 
@<TRIPOS>BOND
     1    2    1 ar   
     2    3    1 ar   
     3    4    1 ar   
     4    5    1 1    
     5    6    5 1    
     6    7    6 ar   
     7    8    6 ar   
     8    9    6 1    
     9   10    9 1    
    10   11   10 ar   
    11   12   10 ar   
    12   13   10 1    
    13   14   13 1    
    14   15   14 1    
    15   33   14 1    
    16   34   14 1    
    17   16   15 1    
    18   17   15 1    
    19   35   15 1    
    20   21   16 1    
    21   18   17 1    
    22   19   17 1    
    23   36   17 1    
    24   43   18 1    
    25   20   19 1    
    26   21   19 1    
    27   37   19 1    
    28   44   20 1    
    29   22   21 1    
    30   38   21 1    
    31   23   22 1    
    32   32   22 1    
    33   24   23 2    
    34   39   23 1    
    35   25   24 1    
    36   26   25 1    
    37   32   25 2    
    38   27   26 2    
    39   28   26 am   
    40   29   28 1    
    41   40   28 1    
    42   30   29 1    
    43   31   29 2    
    44   41   30 1    
    45   42   30 1    
    46   32   31 1    
@<TRIPOS>SUBSTRUCTURE
     1 GNP201      1 GROUP   
@<TRIPOS>SET

