#    Name: 1HP0_2_CAVITY_N1_ALL.mol2
#    Modification time : Tue Mar 11 05:31:02 2014

@<TRIPOS>MOLECULE
1HP0_2_CAVITY_N1_ALL.mol2
  112     0     6     0     0
SMALL
NO_CHARGES


@<TRIPOS>ATOM
      1 N          12.5266   29.1735   44.6897 N.2       2 ALA2        0.0000 
      2 DU         12.3182   30.9330   43.5232 H         6 CUB7        0.0000 
      3 DU         12.8899   29.5663   43.2883 H         6 CUB7        0.0000 
      4 CZ         13.4617   28.1996   43.0535 C.ar      4 PHE5        0.0000 
      5 NZ         12.6815   31.3258   42.1218 N.2       3 LYS4        0.0000 
      6 NZ         13.2533   29.9591   41.8870 N.2       3 LYS4        0.0000 
      7 CZ         13.8250   28.5923   41.6522 C.ar      4 PHE5        0.0000 
      8 NZ         14.1883   28.9851   40.2508 N.2       3 LYS4        0.0000 
      9 CZ         14.7601   27.6184   40.0160 C.ar      4 PHE5        0.0000 
     10 CZ         15.3318   26.2516   39.7812 C.ar      4 PHE5        0.0000 
     11 NZ         14.5517   29.3779   38.8495 N.2       3 LYS4        0.0000 
     12 DU         15.1234   28.0111   38.6147 H         6 CUB7        0.0000 
     13 DU         15.6952   26.6444   38.3799 H         6 CUB7        0.0000 
     14 CZ         16.2669   25.2777   38.1450 C.ar      4 PHE5        0.0000 
     15 N          15.4868   28.4039   37.2134 N.2       2 ALA2        0.0000 
     16 DU         16.0585   27.0372   36.9785 H         6 CUB7        0.0000 
     17 CZ         16.6302   25.6704   36.7437 C.ar      4 PHE5        0.0000 
     18 CA         15.8501   28.7967   35.8120 C.3       5 GLY6        0.0000 
     19 DU         16.4218   27.4299   35.5772 H         6 CUB7        0.0000 
     20 CZ         16.9936   26.0632   35.3424 C.ar      4 PHE5        0.0000 
     21 CA         16.2134   29.1894   34.4107 C.3       5 GLY6        0.0000 
     22 CZ         16.7852   27.8227   34.1759 C.ar      4 PHE5        0.0000 
     23 CZ         17.1485   28.2155   32.7746 C.ar      4 PHE5        0.0000 
     24 O          17.7203   26.8487   32.5397 O.2       2 ALA2        0.0000 
     25 CA         12.9298   30.6248   46.8066 C.3       5 GLY6        0.0000 
     26 CA         13.5016   29.2580   46.5718 C.3       5 GLY6        0.0000 
     27 O          13.2932   31.0175   45.4053 O.2       2 ALA2        0.0000 
     28 N          13.8649   29.6508   45.1704 N.2       2 ALA2        0.0000 
     29 N          13.6565   31.4103   44.0039 N.2       2 ALA2        0.0000 
     30 N          14.2283   30.0436   43.7691 N.2       2 ALA2        0.0000 
     31 N          14.8000   28.6768   43.5343 N.2       2 ALA2        0.0000 
     32 OG         14.0198   31.8031   42.6026 O.2       1 SER1        0.0000 
     33 NZ         14.5916   30.4363   42.3678 N.2       3 LYS4        0.0000 
     34 CA         15.1633   29.0696   42.1329 C.3       5 GLY6        0.0000 
     35 NZ         15.5267   29.4624   40.7316 N.2       3 LYS4        0.0000 
     36 CA         16.0984   28.0956   40.4968 C.3       5 GLY6        0.0000 
     37 CA         16.6702   26.7289   40.2620 C.3       5 GLY6        0.0000 
     38 NZ         15.8900   29.8551   39.3303 N.2       3 LYS4        0.0000 
     39 N          16.4617   28.4884   39.0955 N.2       2 ALA2        0.0000 
     40 DU         17.0335   27.1216   38.8606 H         6 CUB7        0.0000 
     41 CZ         17.6052   25.7549   38.6258 C.ar      4 PHE5        0.0000 
     42 N          16.8251   28.8811   37.6941 N.2       2 ALA2        0.0000 
     43 CZ         17.3968   27.5144   37.4593 C.ar      4 PHE5        0.0000 
     44 CZ         17.9686   26.1477   37.2245 C.ar      4 PHE5        0.0000 
     45 N          17.7602   27.9072   36.0580 N.2       2 ALA2        0.0000 
     46 CZ         18.3319   26.5404   35.8231 C.ar      4 PHE5        0.0000 
     47 CZ         17.5518   29.6667   34.8915 C.ar      4 PHE5        0.0000 
     48 CZ         18.1235   28.2999   34.6566 C.ar      4 PHE5        0.0000 
     49 O          18.6952   26.9332   34.4218 O.2       2 ALA2        0.0000 
     50 CZ         23.3218   28.0567   39.1475 C.ar      4 PHE5        0.0000 
     51 NZ         23.8936   26.6899   38.9127 N.2       3 LYS4        0.0000 
     52 CZ         23.6852   28.4494   37.7462 C.ar      4 PHE5        0.0000 
     53 N          24.0485   28.8422   36.3449 N.2       2 ALA2        0.0000 
     54 NZ         23.3617   29.1151   42.6658 N.2       3 LYS4        0.0000 
     55 NZ         23.9335   27.7484   42.4309 N.2       3 LYS4        0.0000 
     56 CZ         23.7251   29.5079   41.2644 C.ar      4 PHE5        0.0000 
     57 DU         24.2968   28.1412   41.0296 H         6 CUB7        0.0000 
     58 N          24.8686   26.7744   40.7948 N.2       2 ALA2        0.0000 
     59 CZ         24.6602   28.5339   39.6283 C.ar      4 PHE5        0.0000 
     60 NZ         25.2319   27.1672   39.3935 N.2       3 LYS4        0.0000 
     61 NZ         25.0235   28.9267   38.2270 N.2       3 LYS4        0.0000 
     62 O          25.6351   28.6184   41.5104 O.2       2 ALA2        0.0000 
     63 NZ         25.9985   29.0112   40.1091 N.2       3 LYS4        0.0000 
     64 N          26.5702   27.6445   39.8742 N.2       2 ALA2        0.0000 
     65 CA         15.2032   30.1280   45.6512 C.3       5 GLY6        0.0000 
     66 N          15.5666   30.5208   44.2499 N.2       2 ALA2        0.0000 
     67 CA         16.1383   29.1541   44.0150 C.3       5 GLY6        0.0000 
     68 N          15.3582   32.2803   43.0834 N.2       2 ALA2        0.0000 
     69 N          15.9299   30.9136   42.8485 N.2       2 ALA2        0.0000 
     70 CA         16.5016   29.5468   42.6137 C.3       5 GLY6        0.0000 
     71 CZ         16.2932   31.3063   41.4472 C.ar      4 PHE5        0.0000 
     72 CA         16.8650   29.9396   41.2124 C.3       5 GLY6        0.0000 
     73 CA         17.4367   28.5729   40.9775 C.3       5 GLY6        0.0000 
     74 N          17.2283   30.3324   39.8110 N.2       2 ALA2        0.0000 
     75 CZ         17.8001   28.9656   39.5762 C.ar      4 PHE5        0.0000 
     76 O          18.3718   27.5989   39.3414 O.2       2 ALA2        0.0000 
     77 CZ         18.9436   26.2322   39.1066 C.ar      4 PHE5        0.0000 
     78 CZ         18.7351   27.9917   37.9401 C.ar      4 PHE5        0.0000 
     79 CZ         19.3069   26.6249   37.7052 C.ar      4 PHE5        0.0000 
     80 N          19.0985   28.3844   36.5387 N.2       2 ALA2        0.0000 
     81 CZ         19.6702   27.0177   36.3039 C.ar      4 PHE5        0.0000 
     82 CZ         19.4618   28.7772   35.1374 C.ar      4 PHE5        0.0000 
     83 OG         20.0336   27.4105   34.9026 O.2       1 SER1        0.0000 
     84 CZ         21.0484   28.5534   40.3029 C.ar      4 PHE5        0.0000 
     85 O          21.6202   27.1867   40.0681 O.2       2 ALA2        0.0000 
     86 CZ         22.1919   25.8199   39.8333 C.ar      4 PHE5        0.0000 
     87 CZ         21.9835   27.5794   38.6668 C.ar      4 PHE5        0.0000 
     88 CZ         22.5553   26.2127   38.4319 C.ar      4 PHE5        0.0000 
     89 CZ         22.3469   27.9722   37.2654 C.ar      4 PHE5        0.0000 
     90 CZ         22.9186   26.6055   37.0306 C.ar      4 PHE5        0.0000 
     91 CZ         22.1385   29.7317   36.0989 C.ar      4 PHE5        0.0000 
     92 CZ         22.7102   28.3650   35.8641 C.ar      4 PHE5        0.0000 
     93 O          22.0234   28.6379   42.1850 O.2       2 ALA2        0.0000 
     94 NZ         22.5952   27.2712   41.9502 N.2       3 LYS4        0.0000 
     95 CZ         22.3868   29.0307   40.7837 C.ar      4 PHE5        0.0000 
     96 DU         22.9585   27.6639   40.5489 H         6 CUB7        0.0000 
     97 CZ         23.5302   26.2972   40.3140 C.ar      4 PHE5        0.0000 
     98 NZ         11.9149   29.4818   41.4062 N.2       3 LYS4        0.0000 
     99 CZ         13.9935   25.7744   39.3004 C.ar      4 PHE5        0.0000 
    100 N          16.9049   30.9981   44.7306 N.2       2 ALA2        0.0000 
    101 N          17.2682   31.3908   43.3293 N.2       2 ALA2        0.0000 
    102 O          17.8400   30.0241   43.0945 O.2       2 ALA2        0.0000 
    103 CZ         17.6316   31.7836   41.9280 C.ar      4 PHE5        0.0000 
    104 O          18.2033   30.4169   41.6931 O.2       2 ALA2        0.0000 
    105 O          19.7101   28.0761   39.8222 O.2       2 ALA2        0.0000 
    106 CZ         20.2819   26.7094   39.5873 C.ar      4 PHE5        0.0000 
    107 CZ         20.0735   28.4689   38.4208 C.ar      4 PHE5        0.0000 
    108 CZ         20.6452   27.1022   38.1860 C.ar      4 PHE5        0.0000 
    109 CZ         20.4368   28.8617   37.0195 C.ar      4 PHE5        0.0000 
    110 CZ         21.0085   27.4949   36.7847 C.ar      4 PHE5        0.0000 
    111 CZ         20.8001   29.2544   35.6182 C.ar      4 PHE5        0.0000 
    112 OG         21.3719   27.8877   35.3833 O.2       1 SER1        0.0000 
@<TRIPOS>BOND
@<TRIPOS>SUBSTRUCTURE
     1 SER1       32 GROUP   
     2 ALA2        1 GROUP   
     3 LYS4        5 GROUP   
     4 PHE5        4 GROUP   
     5 GLY6       18 GROUP   
     6 CUB7        2 GROUP   
@<TRIPOS>SET

