#    Name: 1hp0_AD3_2_INTS_M
#    Modification time : Tue Mar 25 05:39:00 2014

@<TRIPOS>MOLECULE
1hp0_AD3_2_INTS_M
   37     0     9     0     0
SMALL
NO_CHARGES


@<TRIPOS>ATOM
      1 N          21.1560   27.8325   42.7395 N.am      2 SEC2        0.0000 
      2 N          22.6420   27.9800   42.6160 N.am      8 SEL2        0.0000 
      3 N          19.6700   27.6850   42.8630 N.am      5 SEP2        0.0000 
      4 O          23.1495   27.3910   43.6815 O.2       1 ALC1        0.0000 
      5 O          22.6420   27.9800   42.6160 O.2       7 ALL1        0.0000 
      6 O          23.6570   26.8020   44.7470 O.2       4 ALP1        0.0000 
      7 CA         23.3790   30.5930   41.9705 C.3       3 GLC5        0.0000 
      8 CA         23.7540   28.7700   42.1670 C.3       9 GLL5        0.0000 
      9 CA         23.0040   32.4160   41.7740 C.3       6 GLP5        0.0000 
     10 CA         25.1535   30.9655   41.6245 C.3       3 GLC5        0.0000 
     11 CA         25.8870   29.0990   41.1310 C.3       9 GLL5        0.0000 
     12 CA         24.4200   32.8320   42.1180 C.3       6 GLP5        0.0000 
     13 N          27.6745   30.1430   41.7665 N.am      2 SEC2        0.0000 
     14 N          27.2410   28.9430   41.5700 N.am      8 SEL2        0.0000 
     15 N          28.1080   31.3430   41.9630 N.am      5 SEP2        0.0000 
     16 N          27.4610   27.6455   40.9540 N.am      2 SEC2        0.0000 
     17 N          27.6810   26.3480   40.3380 N.am      5 SEP2        0.0000 
     18 O          27.4050   28.1425   42.7995 O.2       1 ALC1        0.0000 
     19 O          27.2410   28.9430   41.5700 O.2       7 ALL1        0.0000 
     20 O          27.5690   27.3420   44.0290 O.2       4 ALP1        0.0000 
     21 N          26.9790   30.2280   38.1920 N.am      2 SEC2        0.0000 
     22 N          26.9730   29.0460   38.8260 N.am      8 SEL2        0.0000 
     23 N          26.9850   31.4100   37.5580 N.am      5 SEP2        0.0000 
     24 O          28.0440   29.9675   39.4530 O.2       1 ALC1        0.0000 
     25 O          26.9730   29.0460   38.8260 O.2       7 ALL1        0.0000 
     26 O          29.1150   30.8890   40.0800 O.2       4 ALP1        0.0000 
     27 CA         24.9660   25.6370   39.5470 C.3       3 GLC5        0.0000 
     28 CA         24.8720   27.8160   39.2880 C.3       9 GLL5        0.0000 
     29 CA         25.0600   23.4580   39.8060 C.3       6 GLP5        0.0000 
     30 CA         22.0760   25.5765   40.9095 C.3       3 GLC5        0.0000 
     31 CA         21.6630   27.2780   39.5330 C.3       9 GLL5        0.0000 
     32 CA         22.4890   23.8750   42.2860 C.3       6 GLP5        0.0000 
     33 CA         25.3959   29.4967   43.2023 C.3       3 GLC5        0.0000 
     34 CA         25.6600   30.2550   44.8720 C.3       6 GLP5        0.0000 
     35 CA         24.2280   30.1457   39.3347 C.3       3 GLC5        0.0000 
     36 CA         25.7740   29.0450   39.5910 C.3       9 GLL5        0.0000 
     37 CA         23.1330   31.8610   39.2300 C.3       6 GLP5        0.0000 
@<TRIPOS>BOND
@<TRIPOS>SUBSTRUCTURE
     1 ALC1        4 GROUP        1 X    ALC  0     ROOT ALC X 1
     2 SEC2        1 GROUP        1 X    SEC  0     **** SEC X 2
     3 GLC5        7 GROUP        1 X    GLC  0     **** GLC X 6
     4 ALP1        6 GROUP        1 Y    ALP  0     ROOT ALP Y 8
     5 SEP2        3 GROUP        1 Y    SEP  0     **** SEP Y 9
     6 GLP5        9 GROUP        1 Y    GLP  0     **** GLP Y 13
     7 ALL1        5 GROUP        1 Z    ALL  0     ROOT ALL Z 15
     8 SEL2        2 GROUP        1 Z    SEL  0     **** SEL Z 16
     9 GLL5        8 GROUP        1 Z    GLL  0     **** GLL Z 20
@<TRIPOS>SET

