#    Name: 1hp0_AD3_2_ligand
#    Modification time : Tue Mar 25 05:39:00 2014

@<TRIPOS>MOLECULE
1hp0_AD3_2_ligand
   33    35     1     0     0
SMALL
NO_CHARGES


@<TRIPOS>ATOM
      1 O5'        22.6420   27.9800   42.6160 O.3       1 AD31316     0.0000 
      2 C5'        23.7540   28.7700   42.1670 C.3       1 AD31316     0.0000 
      3 C4'        24.9990   27.9860   41.7010 C.3       1 AD31316     0.0000 
      4 O4'        24.3020   27.4900   40.5330 O.3       1 AD31316     0.0000 
      5 C3'        25.8870   29.0990   41.1310 C.3       1 AD31316     0.0000 
      6 O3'        27.2410   28.9430   41.5700 O.3       1 AD31316     0.0000 
      7 C2'        25.7740   29.0450   39.5910 C.3       1 AD31316     0.0000 
      8 O2'        26.9730   29.0460   38.8260 O.3       1 AD31316     0.0000 
      9 C1'        24.8720   27.8160   39.2880 C.3       1 AD31316     0.0000 
     10 N9         23.7890   27.8700   38.2410 N.pl3     1 AD31316     0.0000 
     11 C8         23.9730   28.1930   36.8810 C.2       1 AD31316     0.0000 
     12 N7         22.8710   28.1860   36.1500 N.2       1 AD31316     0.0000 
     13 C5         21.8540   27.8370   37.0710 C.ar      1 AD31316     0.0000 
     14 C6         20.3920   27.6520   36.9520 C.ar      1 AD31316     0.0000 
     15 N6         19.7300   27.8070   35.8100 N.pl3     1 AD31316     0.0000 
     16 N1         19.6810   27.3030   38.0970 N.ar      1 AD31316     0.0000 
     17 C2         20.3240   27.1400   39.2830 C.ar      1 AD31316     0.0000 
     18 C3         21.6630   27.2780   39.5330 C.ar      1 AD31316     0.0000 
     19 C4         22.3940   27.6360   38.3620 C.ar      1 AD31316     0.0000 
     20 H          24.0963   29.4741   42.9693 H         1 AD31316     0.0000 
     21 H          23.4552   29.4377   41.3177 H         1 AD31316     0.0000 
     22 H          25.3399   27.4023   42.3074 H         1 AD31316     0.0000 
     23 H          25.4664   30.0441   41.4515 H         1 AD31316     0.0000 
     24 H          25.1239   29.9221   39.3151 H         1 AD31316     0.0000 
     25 H          25.5745   26.9826   39.0271 H         1 AD31316     0.0000 
     26 H          24.8908   28.4060   36.5356 H         1 AD31316     0.0000 
     27 H          18.7497   27.6119   35.8397 H         1 AD31316     0.0000 
     28 H          20.2720   28.1047   35.0241 H         1 AD31316     0.0000 
     29 H          19.7045   26.8674   40.1378 H         1 AD31316     0.0000 
     30 H          22.0938   27.1534   40.3954 H         1 AD31316     0.0000 
     31 H          22.9693   27.5173   43.4399 H         1 AD31316     0.0000 
     32 H          27.1837   28.3678   42.3860 H         1 AD31316     0.0000 
     33 H          27.6729   29.4063   39.4426 H         1 AD31316     0.0000 
@<TRIPOS>BOND
     1    2    1 1    
     2   31    1 1    
     3    3    2 1    
     4   20    2 1    
     5   21    2 1    
     6    4    3 1    
     7    5    3 1    
     8   22    3 1    
     9    9    4 1    
    10    6    5 1    
    11    7    5 1    
    12   23    5 1    
    13   32    6 1    
    14    8    7 1    
    15    9    7 1    
    16   24    7 1    
    17   33    8 1    
    18   10    9 1    
    19   25    9 1    
    20   11   10 1    
    21   19   10 1    
    22   12   11 2    
    23   26   11 1    
    24   13   12 1    
    25   14   13 ar   
    26   19   13 ar   
    27   15   14 1    
    28   16   14 ar   
    29   27   15 1    
    30   28   15 1    
    31   17   16 ar   
    32   18   17 ar   
    33   29   17 1    
    34   19   18 ar   
    35   30   18 1    
@<TRIPOS>SUBSTRUCTURE
     1 AD31316     1 GROUP   
@<TRIPOS>SET

