#    Name: 4bqr_IBH_1_INTS_M
#    Modification time : Tue Mar 25 08:07:09 2014

@<TRIPOS>MOLECULE
4bqr_IBH_1_INTS_M
   54     0     6     0     0
SMALL
NO_CHARGES


@<TRIPOS>ATOM
      1 CA        -13.0395    9.6220   22.7145 C.3       2 GLC5        0.0000 
      2 CA        -13.5530    8.0510   23.3090 C.3       6 GLL5        0.0000 
      3 CA        -12.5260   11.1930   22.1200 C.3       4 GLP5        0.0000 
      4 CA        -13.1800    8.1420   21.0940 C.3       2 GLC5        0.0000 
      5 CA        -12.8070    8.2330   18.8790 C.3       4 GLP5        0.0000 
      6 CA        -16.3115    2.6870   23.9965 C.3       2 GLC5        0.0000 
      7 CA        -15.8270    4.8330   24.3960 C.3       6 GLL5        0.0000 
      8 CA        -16.7960    0.5410   23.5970 C.3       4 GLP5        0.0000 
      9 CA        -14.2920    1.7450   23.8500 C.3       2 GLC5        0.0000 
     10 CA        -14.1790    3.4110   23.5030 C.3       6 GLL5        0.0000 
     11 CA        -14.4050    0.0790   24.1970 C.3       4 GLP5        0.0000 
     12 CA        -13.3285    5.0945   21.1605 C.3       2 GLC5        0.0000 
     13 CA        -12.4900    5.4710   22.6700 C.3       6 GLL5        0.0000 
     14 CA        -14.1670    4.7180   19.6510 C.3       4 GLP5        0.0000 
     15 CA        -10.9290    4.5675   21.6170 C.3       2 GLC5        0.0000 
     16 CA         -9.3680    3.6640   20.5640 C.3       4 GLP5        0.0000 
     17 CA         -8.5275    5.6365   24.2605 C.3       2 GLC5        0.0000 
     18 CA         -9.1580    6.8190   25.7020 C.3       6 GLL5        0.0000 
     19 CA         -7.8970    4.4540   22.8190 C.3       4 GLP5        0.0000 
     20 CA        -10.1245    6.5160   27.1880 C.3       2 GLC5        0.0000 
     21 CA        -11.0910    6.2130   28.6740 C.3       4 GLP5        0.0000 
     22 CA         -5.6330   11.0370   25.4680 C.3       2 GLC5        0.0000 
     23 CA         -6.3350    9.7120   26.7170 C.3       6 GLL5        0.0000 
     24 CA         -4.9310   12.3620   24.2190 C.3       4 GLP5        0.0000 
     25 O          -7.3075    9.2780   29.2350 O.2       1 ALC1        0.0000 
     26 O          -7.7050    8.2520   28.0270 O.2       5 ALL1        0.0000 
     27 O          -6.9100   10.3040   30.4430 O.2       3 ALP1        0.0000 
     28 CA         -6.8675    4.3830   29.0600 C.3       2 GLC5        0.0000 
     29 CA         -6.3950    5.6680   27.7180 C.3       6 GLL5        0.0000 
     30 CA         -7.3400    3.0980   30.4020 C.3       4 GLP5        0.0000 
     31 CA         -5.9360    3.4455   28.1010 C.3       2 GLC5        0.0000 
     32 CA         -4.9330    4.9480   27.1360 C.3       6 GLL5        0.0000 
     33 CA         -6.9390    1.9430   29.0660 C.3       4 GLP5        0.0000 
     34 CA         -3.5470    7.6520   26.7780 C.3       2 GLC5        0.0000 
     35 CA         -4.2550    5.8030   26.3270 C.3       6 GLL5        0.0000 
     36 CA         -2.8390    9.5010   27.2290 C.3       4 GLP5        0.0000 
     37 CA         -1.1360    5.0440   25.5885 C.3       2 GLC5        0.0000 
     38 CA         -2.9550    5.5270   25.6450 C.3       6 GLL5        0.0000 
     39 CA          0.6830    4.5610   25.5320 C.3       4 GLP5        0.0000 
     40 CA         -3.6105    3.3985   25.5455 C.3       2 GLC5        0.0000 
     41 CA         -4.2660    1.2700   25.4460 C.3       4 GLP5        0.0000 
     42 CA         -1.7135    6.9795   24.7370 C.3       2 GLC5        0.0000 
     43 CA         -0.4720    8.4320   23.8290 C.3       4 GLP5        0.0000 
     44 CA         -2.7180    6.3620   27.4405 C.3       2 GLC5        0.0000 
     45 CA         -2.4810    7.1970   29.2360 C.3       4 GLP5        0.0000 
     46 CA        -14.7822    5.3522   21.9252 C.3       2 GLC5        0.0000 
     47 CA        -13.8100    5.7230   23.3610 C.3       6 GLL5        0.0000 
     48 CA        -15.5080    4.3520   20.3390 C.3       4 GLP5        0.0000 
     49 CA        -15.1043    4.2170   22.0649 C.3       2 GLC5        0.0000 
     50 CA        -14.6170    4.6730   23.7610 C.3       6 GLL5        0.0000 
     51 CA         -4.7412    9.2583   26.9997 C.3       2 GLC5        0.0000 
     52 CA         -6.9520    8.3190   26.8240 C.3       6 GLL5        0.0000 
     53 CA         -3.3480    6.8870   24.4340 C.3       2 GLC5        0.0000 
     54 CA         -3.0910    8.1090   22.8820 C.3       4 GLP5        0.0000 
@<TRIPOS>BOND
@<TRIPOS>SUBSTRUCTURE
     1 ALC1       25 GROUP        1 X    ALC  0     ROOT ALC X 1
     2 GLC5        1 GROUP        1 X    GLC  0     **** GLC X 6
     3 ALP1       27 GROUP        1 Y    ALP  0     ROOT ALP Y 8
     4 GLP5        3 GROUP        1 Y    GLP  0     **** GLP Y 13
     5 ALL1       26 GROUP        1 Z    ALL  0     ROOT ALL Z 15
     6 GLL5        2 GROUP        1 Z    GLL  0     **** GLL Z 20
@<TRIPOS>SET

