#    Name: 4bqr_IBH_1_ligand
#    Modification time : Tue Mar 25 08:07:09 2014

@<TRIPOS>MOLECULE
4bqr_IBH_1_ligand
   40    42     1     0     0
SMALL
NO_CHARGES


@<TRIPOS>ATOM
      1 F1        -13.5530    8.0510   23.3090 F         1 IBH1271     0.0000 
      2 C11       -14.3030    6.9820   23.6620 C.ar      1 IBH1271     0.0000 
      3 C12       -15.5010    7.2090   24.2950 C.ar      1 IBH1271     0.0000 
      4 C13       -16.2670    6.1180   24.6630 C.ar      1 IBH1271     0.0000 
      5 C14       -15.8270    4.8330   24.3960 C.ar      1 IBH1271     0.0000 
      6 C15       -14.6170    4.6730   23.7610 C.ar      1 IBH1271     0.0000 
      7 F         -14.1790    3.4110   23.5030 F         1 IBH1271     0.0000 
      8 C10       -13.8100    5.7230   23.3610 C.ar      1 IBH1271     0.0000 
      9 C9        -12.4900    5.4710   22.6700 C.3       1 IBH1271     0.0000 
     10 C8        -11.4170    5.7910   23.6910 C.2       1 IBH1271     0.0000 
     11 O         -11.2330    5.0740   24.6780 O.2       1 IBH1271     0.0000 
     12 N3        -10.6900    6.9210   23.3910 N.2       1 IBH1271     0.0000 
     13 C7         -9.6510    7.4310   24.1460 C.2       1 IBH1271     0.0000 
     14 N2         -8.9590    8.4460   23.7130 N.pl3     1 IBH1271     0.0000 
     15 N1         -7.9800    8.8270   24.6140 N.2       1 IBH1271     0.0000 
     16 S1         -9.1580    6.8190   25.7020 S.3       1 IBH1271     0.0000 
     17 C6         -7.9570    8.0850   25.6760 C.2       1 IBH1271     0.0000 
     18 C4         -6.9520    8.3190   26.8240 C.3       1 IBH1271     0.0000 
     19 C5         -6.3350    9.7120   26.7170 C.3       1 IBH1271     0.0000 
     20 O1         -7.7050    8.2520   28.0270 O.3       1 IBH1271     0.0000 
     21 C3         -6.0190    7.1060   26.8320 C.2       1 IBH1271     0.0000 
     22 S          -6.3950    5.6680   27.7180 S.3       1 IBH1271     0.0000 
     23 C2         -4.9330    4.9480   27.1360 C.2       1 IBH1271     0.0000 
     24 N          -4.8740    7.0280   26.1350 N.2       1 IBH1271     0.0000 
     25 C1         -4.2550    5.8030   26.3270 C.2       1 IBH1271     0.0000 
     26 C          -2.9550    5.5270   25.6450 C.3       1 IBH1271     0.0000 
     27 H         -15.8217    8.1584   24.4909 H         1 IBH1271     0.0000 
     28 H         -17.1720    6.2621   25.1395 H         1 IBH1271     0.0000 
     29 H         -16.3903    4.0251   24.6656 H         1 IBH1271     0.0000 
     30 H         -12.3906    6.1224   21.8243 H         1 IBH1271     0.0000 
     31 H         -12.4197    4.4407   22.3820 H         1 IBH1271     0.0000 
     32 H          -9.0836    8.9188   22.8504 H         1 IBH1271     0.0000 
     33 H          -4.8028    4.0861   27.4459 H         1 IBH1271     0.0000 
     34 H          -5.6777    9.8844   27.4507 H         1 IBH1271     0.0000 
     35 H          -5.8486    9.8373   25.8523 H         1 IBH1271     0.0000 
     36 H          -7.0286   10.4305   26.7700 H         1 IBH1271     0.0000 
     37 H          -2.2281    5.3215   26.3003 H         1 IBH1271     0.0000 
     38 H          -3.0197    4.7455   25.0244 H         1 IBH1271     0.0000 
     39 H          -2.6475    6.3081   25.1016 H         1 IBH1271     0.0000 
     40 H          -7.2888    8.9318   28.6309 H         1 IBH1271     0.0000 
@<TRIPOS>BOND
     1    2    1 1    
     2    3    2 ar   
     3    8    2 ar   
     4    4    3 ar   
     5   27    3 1    
     6    5    4 ar   
     7   28    4 1    
     8    6    5 ar   
     9   29    5 1    
    10    7    6 1    
    11    8    6 ar   
    12    9    8 1    
    13   10    9 1    
    14   30    9 1    
    15   31    9 1    
    16   11   10 2    
    17   12   10 1    
    18   13   12 2    
    19   14   13 1    
    20   16   13 1    
    21   15   14 1    
    22   32   14 1    
    23   17   15 2    
    24   17   16 1    
    25   18   17 1    
    26   19   18 1    
    27   20   18 1    
    28   21   18 1    
    29   34   19 1    
    30   35   19 1    
    31   36   19 1    
    32   40   20 1    
    33   22   21 1    
    34   24   21 2    
    35   23   22 1    
    36   25   23 2    
    37   33   23 1    
    38   25   24 1    
    39   26   25 1    
    40   37   26 1    
    41   38   26 1    
    42   39   26 1    
@<TRIPOS>SUBSTRUCTURE
     1 IBH1271     1 GROUP   
@<TRIPOS>SET

