#    Name: 4iqk_IQK_1_INTS_M
#    Modification time : Tue Mar 25 04:15:31 2014

@<TRIPOS>MOLECULE
4iqk_IQK_1_INTS_M
   55     0     6     0     0
SMALL
NO_CHARGES


@<TRIPOS>ATOM
      1 CA        -52.2425    0.5220   -9.1930 C.3       2 GLC5        0.0000 
      2 CA        -52.8870    2.2110  -10.0860 C.3       6 GLL5        0.0000 
      3 CA        -51.5980   -1.1670   -8.3000 C.3       4 GLP5        0.0000 
      4 CA        -46.2590    1.5915   -9.9000 C.3       2 GLC5        0.0000 
      5 CA        -48.0940    2.2040  -10.8700 C.3       6 GLL5        0.0000 
      6 CA        -44.4240    0.9790   -8.9300 C.3       4 GLP5        0.0000 
      7 N         -43.7520    8.0700  -12.8400 N.am      1 SEC2        0.0000 
      8 N         -43.9660    7.5780  -13.9660 N.am      5 SEL2        0.0000 
      9 N         -43.5380    8.5620  -11.7140 N.am      3 SEP2        0.0000 
     10 N         -47.1110   -1.9450  -12.7025 N.am      1 SEC2        0.0000 
     11 N         -46.8140   -0.7890  -12.5430 N.am      5 SEL2        0.0000 
     12 N         -47.4080   -3.1010  -12.8620 N.am      3 SEP2        0.0000 
     13 CA        -42.2150    5.4570  -15.3350 C.3       2 GLC5        0.0000 
     14 CA        -43.6480    4.0730  -16.0010 C.3       6 GLL5        0.0000 
     15 CA        -40.7820    6.8410  -14.6690 C.3       4 GLP5        0.0000 
     16 CA        -49.3110    7.1650   -8.2145 C.3       2 GLC5        0.0000 
     17 CA        -49.7150    7.8710   -9.7010 C.3       6 GLL5        0.0000 
     18 CA        -48.9070    6.4590   -6.7280 C.3       4 GLP5        0.0000 
     19 CA        -48.2745    9.4740   -9.6505 C.3       2 GLC5        0.0000 
     20 CA        -46.8340   11.0770   -9.6000 C.3       4 GLP5        0.0000 
     21 CA        -46.3235    6.8975   -9.6525 C.3       2 GLC5        0.0000 
     22 CA        -47.3980    7.3950  -11.4770 C.3       6 GLL5        0.0000 
     23 CA        -45.2490    6.4000   -7.8280 C.3       4 GLP5        0.0000 
     24 CA        -44.4490    7.5620  -11.6700 C.3       2 GLC5        0.0000 
     25 CA        -46.4130    7.1330  -12.4140 C.3       6 GLL5        0.0000 
     26 CA        -42.4850    7.9910  -10.9260 C.3       4 GLP5        0.0000 
     27 CA        -43.9305    3.0560  -13.8072 C.3       2 GLC5        0.0000 
     28 CA        -45.3010    2.5480  -15.1120 C.3       6 GLL5        0.0000 
     29 CA        -42.9990    4.0860  -12.3600 C.3       4 GLP5        0.0000 
     30 CA        -45.9761    2.1064  -16.6973 C.3       2 GLC5        0.0000 
     31 CA        -44.4230    1.5040  -15.3970 C.3       6 GLL5        0.0000 
     32 CA        -46.7760    2.2560  -18.2770 C.3       4 GLP5        0.0000 
     33 CA        -43.9032   -0.0765  -16.6050 C.3       2 GLC5        0.0000 
     34 CA        -44.0020   -1.7710  -17.5240 C.3       4 GLP5        0.0000 
     35 CA        -43.4592    0.2000  -14.3975 C.3       2 GLC5        0.0000 
     36 CA        -43.1860    1.7320  -15.9750 C.3       6 GLL5        0.0000 
     37 CA        -43.1140   -1.2180  -13.1090 C.3       4 GLP5        0.0000 
     38 CA        -42.9955    3.2298  -14.2402 C.3       2 GLC5        0.0000 
     39 CA        -42.7980    3.0150  -16.2660 C.3       6 GLL5        0.0000 
     40 CA        -42.5880    4.7655  -17.5383 C.3       2 GLC5        0.0000 
     41 CA        -41.9530    5.9870  -18.9430 C.3       4 GLP5        0.0000 
     42 CA        -44.4195    2.9671  -17.5269 C.3       2 GLC5        0.0000 
     43 CA        -45.5190    2.7110  -18.9930 C.3       4 GLP5        0.0000 
     44 CA        -46.0577    3.3247  -16.7870 C.3       2 GLC5        0.0000 
     45 CA        -44.9120    3.8550  -15.4210 C.3       6 GLL5        0.0000 
     46 CA        -44.0113    4.2670  -13.9010 C.3       2 GLC5        0.0000 
     47 CA        -45.7670    4.9320  -15.1730 C.3       6 GLL5        0.0000 
     48 CA        -45.4165    9.8655  -14.1133 C.3       2 GLC5        0.0000 
     49 CA        -46.3820    7.8570  -13.6050 C.3       6 GLL5        0.0000 
     50 CA        -43.9800   11.3710  -14.5040 C.3       4 GLP5        0.0000 
     51 CA        -46.9915    3.1370  -16.3453 C.3       2 GLC5        0.0000 
     52 CA        -47.0130    4.6810  -14.5700 C.3       6 GLL5        0.0000 
     53 CA        -48.1094   -0.3339  -10.4022 C.3       2 GLC5        0.0000 
     54 CA        -48.1870    1.1550  -11.7900 C.3       6 GLL5        0.0000 
     55 CA        -47.4430   -1.7740   -9.1440 C.3       4 GLP5        0.0000 
@<TRIPOS>BOND
@<TRIPOS>SUBSTRUCTURE
     1 SEC2        7 GROUP        1 X    SEC  0     ROOT SEC X 2
     2 GLC5        1 GROUP        1 X    GLC  0     **** GLC X 6
     3 SEP2        9 GROUP        1 Y    SEP  0     ROOT SEP Y 9
     4 GLP5        3 GROUP        1 Y    GLP  0     **** GLP Y 13
     5 SEL2        8 GROUP        1 Z    SEL  0     ROOT SEL Z 16
     6 GLL5        2 GROUP        1 Z    GLL  0     **** GLL Z 20
@<TRIPOS>SET

