#    Name: 4iqk_IQK_1_ligand
#    Modification time : Tue Mar 25 04:15:31 2014

@<TRIPOS>MOLECULE
4iqk_IQK_1_ligand
   56    59     1     0     0
SMALL
NO_CHARGES


@<TRIPOS>ATOM
      1 C1        -52.8870    2.2110  -10.0860 C.3       1 IQK701      0.0000 
      2 N1        -46.7310    0.9870  -14.1580 N.pl3     1 IQK701      0.0000 
      3 O1        -51.5400    2.4590   -9.6760 O.3       1 IQK701      0.0000 
      4 S1        -46.8800    0.6400  -12.5790 S.o2      1 IQK701      0.0000 
      5 C2        -50.4430    2.0120  -10.3770 C.ar      1 IQK701      0.0000 
      6 N2        -45.1760    6.1360  -15.4340 N.pl3     1 IQK701      0.0000 
      7 O2        -49.3550    8.6830  -10.8250 O.3       1 IQK701      0.0000 
      8 S2        -45.2090    7.5510  -14.6680 S.o2      1 IQK701      0.0000 
      9 C3        -49.2160    2.6340  -10.1720 C.ar      1 IQK701      0.0000 
     10 O3        -45.1740    8.5620  -15.6960 O.2       1 IQK701      0.0000 
     11 C4        -48.0940    2.2040  -10.8700 C.ar      1 IQK701      0.0000 
     12 O4        -43.9660    7.5780  -13.9660 O.2       1 IQK701      0.0000 
     13 C5        -48.1870    1.1550  -11.7900 C.ar      1 IQK701      0.0000 
     14 O5        -45.7160    1.1820  -11.9480 O.2       1 IQK701      0.0000 
     15 C6        -46.5580    2.2710  -14.5640 C.ar      1 IQK701      0.0000 
     16 O6        -46.8140   -0.7890  -12.5430 O.2       1 IQK701      0.0000 
     17 C7        -45.3010    2.5480  -15.1120 C.ar      1 IQK701      0.0000 
     18 C8        -44.4230    1.5040  -15.3970 C.ar      1 IQK701      0.0000 
     19 C9        -43.1860    1.7320  -15.9750 C.ar      1 IQK701      0.0000 
     20 C10       -42.7980    3.0150  -16.2660 C.ar      1 IQK701      0.0000 
     21 C11       -43.6480    4.0730  -16.0010 C.ar      1 IQK701      0.0000 
     22 C12       -44.9120    3.8550  -15.4210 C.ar      1 IQK701      0.0000 
     23 C13       -45.7670    4.9320  -15.1730 C.ar      1 IQK701      0.0000 
     24 C14       -46.3820    7.8570  -13.6050 C.ar      1 IQK701      0.0000 
     25 C15       -47.3240    8.8630  -13.8400 C.ar      1 IQK701      0.0000 
     26 C16       -48.3100    9.1250  -12.9080 C.ar      1 IQK701      0.0000 
     27 C17       -48.3550    8.3870  -11.7230 C.ar      1 IQK701      0.0000 
     28 C18       -49.7150    7.8710   -9.7010 C.3       1 IQK701      0.0000 
     29 C19       -47.3980    7.3950  -11.4770 C.ar      1 IQK701      0.0000 
     30 C20       -46.4130    7.1330  -12.4140 C.ar      1 IQK701      0.0000 
     31 C21       -47.0130    4.6810  -14.5700 C.ar      1 IQK701      0.0000 
     32 C22       -47.4010    3.3550  -14.2570 C.ar      1 IQK701      0.0000 
     33 C23       -49.4110    0.5330  -11.9910 C.ar      1 IQK701      0.0000 
     34 C24       -50.5390    0.9640  -11.2920 C.ar      1 IQK701      0.0000 
     35 H         -46.7821    0.1723  -14.7426 H         1 IQK701      0.0000 
     36 H         -44.5397    6.2367  -16.3212 H         1 IQK701      0.0000 
     37 H         -49.1397    3.4120   -9.5038 H         1 IQK701      0.0000 
     38 H         -47.1828    2.6601  -10.7109 H         1 IQK701      0.0000 
     39 H         -44.7082    0.5298  -15.1680 H         1 IQK701      0.0000 
     40 H         -42.5637    0.9377  -16.1835 H         1 IQK701      0.0000 
     41 H         -41.8705    3.1964  -16.6838 H         1 IQK701      0.0000 
     42 H         -43.3621    5.0391  -16.2273 H         1 IQK701      0.0000 
     43 H         -47.2767    9.4071  -14.7136 H         1 IQK701      0.0000 
     44 H         -49.0089    9.8569  -13.0794 H         1 IQK701      0.0000 
     45 H         -47.4327    6.8641  -10.5969 H         1 IQK701      0.0000 
     46 H         -45.7065    6.4095  -12.2366 H         1 IQK701      0.0000 
     47 H         -47.6448    5.4566  -14.3548 H         1 IQK701      0.0000 
     48 H         -48.3049    3.1880  -13.8027 H         1 IQK701      0.0000 
     49 H         -49.4905   -0.2480  -12.6562 H         1 IQK701      0.0000 
     50 H         -51.4465    0.5058  -11.4528 H         1 IQK701      0.0000 
     51 H         -53.0769    2.5952  -10.9895 H         1 IQK701      0.0000 
     52 H         -53.0858    1.2322  -10.1360 H         1 IQK701      0.0000 
     53 H         -53.5481    2.6123   -9.4520 H         1 IQK701      0.0000 
     54 H         -48.9496    7.7518   -9.0686 H         1 IQK701      0.0000 
     55 H         -50.4671    8.2726   -9.1784 H         1 IQK701      0.0000 
     56 H         -50.0083    6.9571   -9.9818 H         1 IQK701      0.0000 
@<TRIPOS>BOND
     1    3    1 1    
     2   51    1 1    
     3   52    1 1    
     4   53    1 1    
     5    4    2 1    
     6   15    2 1    
     7   35    2 1    
     8    5    3 1    
     9   13    4 1    
    10   14    4 2    
    11   16    4 2    
    12    9    5 ar   
    13   34    5 ar   
    14    8    6 1    
    15   23    6 1    
    16   36    6 1    
    17   27    7 1    
    18   28    7 1    
    19   10    8 2    
    20   12    8 2    
    21   24    8 1    
    22   11    9 ar   
    23   37    9 1    
    24   13   11 ar   
    25   38   11 1    
    26   33   13 ar   
    27   17   15 ar   
    28   32   15 ar   
    29   18   17 ar   
    30   22   17 ar   
    31   19   18 ar   
    32   39   18 1    
    33   20   19 ar   
    34   40   19 1    
    35   21   20 ar   
    36   41   20 1    
    37   22   21 ar   
    38   42   21 1    
    39   23   22 ar   
    40   31   23 ar   
    41   25   24 ar   
    42   30   24 ar   
    43   26   25 ar   
    44   43   25 1    
    45   27   26 ar   
    46   44   26 1    
    47   29   27 ar   
    48   54   28 1    
    49   55   28 1    
    50   56   28 1    
    51   30   29 ar   
    52   45   29 1    
    53   46   30 1    
    54   32   31 ar   
    55   47   31 1    
    56   48   32 1    
    57   34   33 ar   
    58   49   33 1    
    59   50   34 1    
@<TRIPOS>SUBSTRUCTURE
     1 IQK701      1 GROUP   
@<TRIPOS>SET

