#    Name: 1gpe_FAD_2_INTS_M
#    Modification time : Tue Mar 25 03:25:25 2014

@<TRIPOS>MOLECULE
1gpe_FAD_2_INTS_M
  151     0     9     0     0
SMALL
NO_CHARGES


@<TRIPOS>ATOM
      1 N          -4.2525   12.6370    4.7895 N.am      2 SEC2        0.0000 
      2 N          -2.5740   12.5950    5.2270 N.am      8 SEL2        0.0000 
      3 N          -5.9310   12.6790    4.3520 N.am      5 SEP2        0.0000 
      4 N          -3.5660   11.3535    4.5635 N.am      2 SEC2        0.0000 
      5 N          -4.5580   10.1120    3.9000 N.am      5 SEP2        0.0000 
      6 N          -4.7565   14.9315    7.5740 N.am      2 SEC2        0.0000 
      7 N          -4.2300   13.6880    6.6920 N.am      8 SEL2        0.0000 
      8 N          -5.2830   16.1750    8.4560 N.am      5 SEP2        0.0000 
      9 N          -5.0805   13.1835    5.5220 N.am      2 SEC2        0.0000 
     10 CA          0.1570   14.0705    5.7845 C.3       3 GLC5        0.0000 
     11 CA         -1.3270   15.2530    5.1180 C.3       9 GLL5        0.0000 
     12 CA          1.6410   12.8880    6.4510 C.3       6 GLP5        0.0000 
     13 CA         -0.7035   18.1355    4.5180 C.3       3 GLC5        0.0000 
     14 CA         -1.6050   16.4000    4.1460 C.3       9 GLL5        0.0000 
     15 CA          0.1980   19.8710    4.8900 C.3       6 GLP5        0.0000 
     16 CA         -3.4860   16.6815    4.7110 C.3       3 GLC5        0.0000 
     17 CA         -2.4880   16.0770    2.9140 C.3       9 GLL5        0.0000 
     18 CA         -4.4840   17.2860    6.5080 C.3       6 GLP5        0.0000 
     19 O          -3.1665   18.1640    2.6050 O.2       1 ALC1        0.0000 
     20 O          -3.5830   16.9130    2.7980 O.2       7 ALL1        0.0000 
     21 O          -2.7500   19.4150    2.4120 O.2       4 ALP1        0.0000 
     22 O          -3.4305   17.8795    1.5895 O.2       1 ALC1        0.0000 
     23 O          -3.2780   18.8460    0.3810 O.2       4 ALP1        0.0000 
     24 CA         -2.9320   15.5705    0.2075 C.3       3 GLC5        0.0000 
     25 CA         -1.4830   16.1400    1.7590 C.3       9 GLL5        0.0000 
     26 CA         -4.3810   15.0010   -1.3440 C.3       6 GLP5        0.0000 
     27 O          -2.4235   18.0190    1.5045 O.2       1 ALC1        0.0000 
     28 O          -2.0970   16.6230    0.5970 O.2       7 ALL1        0.0000 
     29 O          -2.6875   17.7345    0.4890 O.2       1 ALC1        0.0000 
     30 CA         -0.1980   18.5560    3.5605 C.3       3 GLC5        0.0000 
     31 CA         -0.5940   17.2410    2.2310 C.3       9 GLL5        0.0000 
     32 CA         -0.3240   17.9870    0.2345 C.3       3 GLC5        0.0000 
     33 CA         -0.0540   18.7330   -1.7620 C.3       6 GLP5        0.0000 
     34 CA          0.9240   16.8360    3.7785 C.3       3 GLC5        0.0000 
     35 CA          2.4420   16.4310    5.3260 C.3       6 GLP5        0.0000 
     36 CA          3.1340   18.5665   -1.0010 C.3       3 GLC5        0.0000 
     37 CA          2.7470   17.7690    1.0390 C.3       9 GLL5        0.0000 
     38 CA          3.5210   19.3640   -3.0410 C.3       6 GLP5        0.0000 
     39 CA          4.2045   19.5465   -0.9275 C.3       3 GLC5        0.0000 
     40 CA          3.7900   18.7450    0.7990 C.3       9 GLL5        0.0000 
     41 CA          4.6190   20.3480   -2.6540 C.3       6 GLP5        0.0000 
     42 CA          5.1390   20.5210    0.8285 C.3       3 GLC5        0.0000 
     43 CA          6.4880   22.2970    0.8580 C.3       6 GLP5        0.0000 
     44 CA          5.4705   18.5710    2.2320 C.3       3 GLC5        0.0000 
     45 CA          7.1510   18.3970    3.6650 C.3       6 GLP5        0.0000 
     46 O           6.1540   19.2510    0.4300 O.2       1 ALC1        0.0000 
     47 O           4.9910   18.4120    0.3700 O.2       7 ALL1        0.0000 
     48 O           7.3170   20.0900    0.4900 O.2       4 ALP1        0.0000 
     49 N           4.3700   20.9335    0.6150 N.am      2 SEC2        0.0000 
     50 N           3.4550   20.0030    1.1010 N.am      8 SEL2        0.0000 
     51 N           5.2850   21.8640    0.1290 N.am      5 SEP2        0.0000 
     52 CA          2.7435   21.2490    3.6035 C.3       3 GLC5        0.0000 
     53 CA          2.2670   20.4460    1.5650 C.3       9 GLL5        0.0000 
     54 CA          3.2200   22.0520    5.6420 C.3       6 GLP5        0.0000 
     55 CA          1.2325   20.1585    3.2275 C.3       3 GLC5        0.0000 
     56 CA          0.4170   21.3180    1.3520 C.3       3 GLC5        0.0000 
     57 CA         -1.4330   22.1900    1.1390 C.3       6 GLP5        0.0000 
     58 CA          1.1065   19.5895   -0.0985 C.3       3 GLC5        0.0000 
     59 CA          3.1610   20.9965   -0.1690 C.3       3 GLC5        0.0000 
     60 CA          4.0550   21.5470   -1.9030 C.3       6 GLP5        0.0000 
     61 CA          3.7650   21.9440    2.0975 C.3       3 GLC5        0.0000 
     62 CA          5.2630   23.4420    2.6300 C.3       6 GLP5        0.0000 
     63 N           0.2140   20.1240    0.6210 N.am      2 SEC2        0.0000 
     64 N           1.2680   19.6030    1.8010 N.am      8 SEL2        0.0000 
     65 N          -0.8400   20.6450   -0.5590 N.am      5 SEP2        0.0000 
     66 CA          0.8715   19.0910    3.2135 C.3       3 GLC5        0.0000 
     67 CA          1.5450   18.3110    1.5370 C.3       9 GLL5        0.0000 
     68 N          -8.6630    7.5650   12.7730 N.am      2 SEC2        0.0000 
     69 N          -9.5330    6.8130   11.9810 N.am      8 SEL2        0.0000 
     70 N          -7.7930    8.3170   13.5650 N.am      5 SEP2        0.0000 
     71 N         -10.0330    6.7625   13.3695 N.am      2 SEC2        0.0000 
     72 N         -10.5330    6.7120   14.7580 N.am      5 SEP2        0.0000 
     73 O         -11.4180    5.6880   11.3980 O.2       1 ALC1        0.0000 
     74 O         -10.4820    5.6100   10.4020 O.2       7 ALL1        0.0000 
     75 O         -12.3540    5.7660   12.3940 O.2       4 ALP1        0.0000 
     76 N         -12.6700    4.7870    9.4400 N.am      2 SEC2        0.0000 
     77 N         -11.3860    4.3840    8.7400 N.am      8 SEL2        0.0000 
     78 N         -13.9540    5.1900   10.1400 N.am      5 SEP2        0.0000 
     79 N         -10.6810    5.1840    6.4145 N.am      2 SEC2        0.0000 
     80 N          -9.3470    4.8860    7.1130 N.am      8 SEL2        0.0000 
     81 N         -12.0150    5.4820    5.7160 N.am      5 SEP2        0.0000 
     82 CA         -9.6115    4.3250    2.5705 C.3       3 GLC5        0.0000 
     83 CA         -7.4680    4.6360    2.7440 C.3       9 GLL5        0.0000 
     84 CA        -11.7550    4.0140    2.3970 C.3       6 GLP5        0.0000 
     85 CA         -8.3555    4.2605    1.0655 C.3       3 GLC5        0.0000 
     86 CA         -9.2430    3.8850   -0.6130 C.3       6 GLP5        0.0000 
     87 CA         -6.2185    4.7680    1.2060 C.3       3 GLC5        0.0000 
     88 CA         -4.9690    4.9000   -0.3320 C.3       6 GLP5        0.0000 
     89 CA         -7.3535    6.5195    1.5325 C.3       3 GLC5        0.0000 
     90 CA         -7.2390    8.4030    0.3210 C.3       6 GLP5        0.0000 
     91 CA         -6.5820    3.2545    2.4590 C.3       3 GLC5        0.0000 
     92 CA         -5.6960    1.8730    2.1740 C.3       6 GLP5        0.0000 
     93 CA         -5.1020    5.7090    1.6570 C.3       3 GLC5        0.0000 
     94 CA         -5.2350    6.5180    3.6460 C.3       9 GLL5        0.0000 
     95 CA         -4.3045    7.7520    2.3725 C.3       3 GLC5        0.0000 
     96 CA         -3.3740    8.9860    1.0990 C.3       6 GLP5        0.0000 
     97 CA         -6.2370    7.4605    1.9835 C.3       3 GLC5        0.0000 
     98 CA         -6.0875    5.1010    8.0975 C.3       3 GLC5        0.0000 
     99 CA         -7.2870    6.1100    6.7360 C.3       9 GLL5        0.0000 
    100 CA         -4.8880    4.0920    9.4590 C.3       6 GLP5        0.0000 
    101 CA         -5.5235    5.6690    9.0380 C.3       3 GLC5        0.0000 
    102 CA         -6.1590    7.2460    8.6170 C.3       9 GLL5        0.0000 
    103 CA         -7.8865    9.3360   10.0215 C.3       3 GLC5        0.0000 
    104 CA         -6.3670    8.7700    8.7260 C.3       9 GLL5        0.0000 
    105 CA         -9.4060    9.9020   11.3170 C.3       6 GLP5        0.0000 
    106 N          -8.5525    9.2600    7.6835 N.am      2 SEC2        0.0000 
    107 N          -7.0820    9.2450    7.6030 N.am      8 SEL2        0.0000 
    108 N         -10.0230    9.2750    7.7640 N.am      5 SEP2        0.0000 
    109 CA         -3.6085    9.3080   10.4335 C.3       3 GLC5        0.0000 
    110 CA         -4.9210    9.2700    8.6680 C.3       9 GLL5        0.0000 
    111 CA         -2.2960    9.3460   12.1990 C.3       6 GLP5        0.0000 
    112 CA         -6.0190   11.8050   10.1815 C.3       3 GLC5        0.0000 
    113 CA         -4.9040   10.7580    8.9300 C.3       9 GLL5        0.0000 
    114 CA         -7.1340   12.8520   11.4330 C.3       6 GLP5        0.0000 
    115 CA         -4.6630   12.8685    9.5485 C.3       3 GLC5        0.0000 
    116 CA         -3.3970   11.1280    8.9170 C.3       9 GLL5        0.0000 
    117 CA         -5.9290   14.6090   10.1800 C.3       6 GLP5        0.0000 
    118 N          -3.1420   15.7575   10.1910 N.am      2 SEC2        0.0000 
    119 N          -2.3550   14.8650    9.4280 N.am      8 SEL2        0.0000 
    120 N          -3.9290   16.6500   10.9540 N.am      5 SEP2        0.0000 
    121 N          -1.7495   15.6550   10.3220 N.am      2 SEC2        0.0000 
    122 N          -1.1440   16.4450   11.2160 N.am      5 SEP2        0.0000 
    123 N          -0.0425   12.4095   10.5015 N.am      2 SEC2        0.0000 
    124 N          -0.9950   12.6870    9.4480 N.am      8 SEL2        0.0000 
    125 N           0.9100   12.1320   11.5550 N.am      5 SEP2        0.0000 
    126 CA         -2.9750   16.5562    5.5700 C.3       3 GLC5        0.0000 
    127 CA          0.4880   16.1288    4.9790 C.3       3 GLC5        0.0000 
    128 CA         -3.8603   15.6178    3.6635 C.3       3 GLC5        0.0000 
    129 CA         -5.6740   14.9970    3.7970 C.3       6 GLP5        0.0000 
    130 CA          1.0460   18.3865   -0.2370 C.3       3 GLC5        0.0000 
    131 CA          4.4753   16.6585    1.5425 C.3       3 GLC5        0.0000 
    132 CA          5.6820   15.0600    2.1660 C.3       6 GLP5        0.0000 
    133 CA          3.0254   17.5230    2.8340 C.3       3 GLC5        0.0000 
    134 CA          3.6440   16.7620    4.4400 C.3       6 GLP5        0.0000 
    135 CA         -8.9025    6.7090    6.2397 C.3       3 GLC5        0.0000 
    136 CA        -10.0070    7.7370    5.9550 C.3       6 GLP5        0.0000 
    137 CA         -9.2957    6.1158    4.6463 C.3       3 GLC5        0.0000 
    138 CA         -8.3490    4.7820    5.0100 C.3       9 GLL5        0.0000 
    139 CA        -10.7280    7.2510    4.7130 C.3       6 GLP5        0.0000 
    140 CA         -8.1672    7.0240    5.5827 C.3       3 GLC5        0.0000 
    141 CA         -6.3140    6.5640    5.8530 C.3       9 GLL5        0.0000 
    142 CA         -4.4545    4.7975    3.8385 C.3       3 GLC5        0.0000 
    143 CA         -6.3410    6.0580    4.5680 C.3       9 GLL5        0.0000 
    144 CA         -3.1210    3.3070    3.5700 C.3       6 GLP5        0.0000 
    145 CA         -5.8110    8.3690    4.9405 C.3       3 GLC5        0.0000 
    146 CA         -5.5710   10.3120    4.9010 C.3       6 GLP5        0.0000 
    147 CA         -5.3025    7.7270   10.3444 C.3       3 GLC5        0.0000 
    148 CA         -5.0130    6.8150   12.0190 C.3       6 GLP5        0.0000 
    149 CA         -5.4225   10.1005    6.8572 C.3       3 GLC5        0.0000 
    150 CA         -3.6538   10.6510   10.7532 C.3       3 GLC5        0.0000 
    151 CA         -3.1570   10.3590   12.5830 C.3       6 GLP5        0.0000 
@<TRIPOS>BOND
@<TRIPOS>SUBSTRUCTURE
     1 ALC1       19 GROUP        1 X    ALC  0     ROOT ALC X 1
     2 SEC2        1 GROUP        1 X    SEC  0     **** SEC X 2
     3 GLC5       10 GROUP        1 X    GLC  0     **** GLC X 6
     4 ALP1       21 GROUP        1 Y    ALP  0     ROOT ALP Y 8
     5 SEP2        3 GROUP        1 Y    SEP  0     **** SEP Y 9
     6 GLP5       12 GROUP        1 Y    GLP  0     **** GLP Y 13
     7 ALL1       20 GROUP        1 Z    ALL  0     ROOT ALL Z 15
     8 SEL2        2 GROUP        1 Z    SEL  0     **** SEL Z 16
     9 GLL5       11 GROUP        1 Z    GLL  0     **** GLL Z 20
@<TRIPOS>SET

