#    Name: 1gpe_FAD_2_ligand
#    Modification time : Tue Mar 25 03:25:26 2014

@<TRIPOS>MOLECULE
1gpe_FAD_2_ligand
   84    89     1     0     0
SMALL
NO_CHARGES


@<TRIPOS>ATOM
      1 PA         -2.9190   13.5650    6.2480 P.3       1 FAD600      0.0000 
      2 O1A        -2.5740   12.5950    5.2270 O.co2     1 FAD600      0.0000 
      3 O2A        -4.2300   13.6880    6.6920 O.co2     1 FAD600      0.0000 
      4 O5B        -2.6220   14.9260    5.6840 O.3       1 FAD600      0.0000 
      5 C5B        -1.3270   15.2530    5.1180 C.3       1 FAD600      0.0000 
      6 C4B        -1.6050   16.4000    4.1460 C.3       1 FAD600      0.0000 
      7 O4B        -0.3140   16.8660    3.6210 O.3       1 FAD600      0.0000 
      8 C3B        -2.4880   16.0770    2.9140 C.3       1 FAD600      0.0000 
      9 O3B        -3.5830   16.9130    2.7980 O.3       1 FAD600      0.0000 
     10 C2B        -1.4830   16.1400    1.7590 C.3       1 FAD600      0.0000 
     11 O2B        -2.0970   16.6230    0.5970 O.3       1 FAD600      0.0000 
     12 C1B        -0.5940   17.2410    2.2310 C.3       1 FAD600      0.0000 
     13 N9A         0.7580   17.1810    1.6850 N.pl3     1 FAD600      0.0000 
     14 C8A         1.4560   16.0820    1.3170 C.2       1 FAD600      0.0000 
     15 N7A         2.6820   16.4170    0.9110 N.2       1 FAD600      0.0000 
     16 C5A         2.7470   17.7690    1.0390 C.ar      1 FAD600      0.0000 
     17 C6A         3.7900   18.7450    0.7990 C.ar      1 FAD600      0.0000 
     18 N6A         4.9910   18.4120    0.3700 N.pl3     1 FAD600      0.0000 
     19 N1A         3.4550   20.0030    1.1010 N.ar      1 FAD600      0.0000 
     20 C2A         2.2670   20.4460    1.5650 C.ar      1 FAD600      0.0000 
     21 N3A         1.2680   19.6030    1.8010 N.ar      1 FAD600      0.0000 
     22 C4A         1.5450   18.3110    1.5370 C.ar      1 FAD600      0.0000 
     23 N1         -8.3980    6.7610   10.0880 N.2       1 FAD600      0.0000 
     24 C2         -9.4300    6.4320   10.8670 C.2       1 FAD600      0.0000 
     25 O2         -9.5330    6.8130   11.9810 O.2       1 FAD600      0.0000 
     26 N3        -10.4820    5.6100   10.4020 N.am      1 FAD600      0.0000 
     27 C4        -10.5020    5.0860    9.1690 C.2       1 FAD600      0.0000 
     28 O4        -11.3860    4.3840    8.7400 O.2       1 FAD600      0.0000 
     29 C4X        -9.3460    5.3780    8.3390 C.2       1 FAD600      0.0000 
     30 N5         -9.3470    4.8860    7.1130 N.2       1 FAD600      0.0000 
     31 C5X        -8.3090    5.2520    6.3130 C.ar      1 FAD600      0.0000 
     32 C6         -8.3490    4.7820    5.0100 C.ar      1 FAD600      0.0000 
     33 C7         -7.3780    5.1790    4.1490 C.ar      1 FAD600      0.0000 
     34 C7M        -7.4680    4.6360    2.7440 C.3       1 FAD600      0.0000 
     35 C8         -6.3410    6.0580    4.5680 C.ar      1 FAD600      0.0000 
     36 C8M        -5.2350    6.5180    3.6460 C.3       1 FAD600      0.0000 
     37 C9         -6.3140    6.5640    5.8530 C.ar      1 FAD600      0.0000 
     38 C9A        -7.2870    6.1100    6.7360 C.ar      1 FAD600      0.0000 
     39 N10        -7.3360    6.5790    8.0330 N.pl3     1 FAD600      0.0000 
     40 C10        -8.3340    6.2470    8.8580 C.2       1 FAD600      0.0000 
     41 C1'        -6.1590    7.2460    8.6170 C.3       1 FAD600      0.0000 
     42 C2'        -6.3670    8.7700    8.7260 C.3       1 FAD600      0.0000 
     43 O2'        -7.0820    9.2450    7.6030 O.3       1 FAD600      0.0000 
     44 C3'        -4.9210    9.2700    8.6680 C.3       1 FAD600      0.0000 
     45 O3'        -4.2770    8.7080    9.7990 O.3       1 FAD600      0.0000 
     46 C4'        -4.9040   10.7580    8.9300 C.3       1 FAD600      0.0000 
     47 O4'        -5.5940   11.5180    7.9340 O.3       1 FAD600      0.0000 
     48 C5'        -3.3970   11.1280    8.9170 C.3       1 FAD600      0.0000 
     49 O5'        -3.3720   12.6670    9.2480 O.3       1 FAD600      0.0000 
     50 P          -2.0780   13.4720    8.9750 P.3       1 FAD600      0.0000 
     51 O1P        -2.3550   14.8650    9.4280 O.co2     1 FAD600      0.0000 
     52 O2P        -0.9950   12.6870    9.4480 O.co2     1 FAD600      0.0000 
     53 O3P        -1.9040   13.3350    7.4760 O.3       1 FAD600      0.0000 
     54 H          -0.9157   14.4301    4.5654 H         1 FAD600      0.0000 
     55 H          -0.6420   15.6001    5.8677 H         1 FAD600      0.0000 
     56 H          -2.0658   17.2214    4.6861 H         1 FAD600      0.0000 
     57 H          -2.7502   15.0168    3.0266 H         1 FAD600      0.0000 
     58 H          -0.9666   15.2681    1.6863 H         1 FAD600      0.0000 
     59 H          -1.0191   18.1608    2.1860 H         1 FAD600      0.0000 
     60 H           1.0996   15.1671    1.3483 H         1 FAD600      0.0000 
     61 H           5.7457   18.9883    0.6836 H         1 FAD600      0.0000 
     62 H           5.0381   17.6134   -0.2300 H         1 FAD600      0.0000 
     63 H           2.1403   21.4757    1.7391 H         1 FAD600      0.0000 
     64 H         -11.2680    5.4200   11.0759 H         1 FAD600      0.0000 
     65 H          -9.0996    4.1500    4.7165 H         1 FAD600      0.0000 
     66 H          -5.6176    7.2365    6.1433 H         1 FAD600      0.0000 
     67 H          -5.2683    7.0692    8.0021 H         1 FAD600      0.0000 
     68 H          -5.9537    6.8597    9.6227 H         1 FAD600      0.0000 
     69 H          -6.7674    8.9900    9.6529 H         1 FAD600      0.0000 
     70 H          -4.4809    9.0369    7.7771 H         1 FAD600      0.0000 
     71 H          -5.2566   10.9396    9.9211 H         1 FAD600      0.0000 
     72 H          -2.9993   10.9785    7.9521 H         1 FAD600      0.0000 
     73 H          -2.8927   10.6049    9.6810 H         1 FAD600      0.0000 
     74 H          -6.7204    4.9682    2.1689 H         1 FAD600      0.0000 
     75 H          -7.4279    3.6369    2.7287 H         1 FAD600      0.0000 
     76 H          -8.3221    4.9020    2.2971 H         1 FAD600      0.0000 
     77 H          -4.5955    7.1310    4.1100 H         1 FAD600      0.0000 
     78 H          -4.7010    5.7492    3.2941 H         1 FAD600      0.0000 
     79 H          -5.5932    7.0129    2.8543 H         1 FAD600      0.0000 
     80 H          -3.1984   17.8230    2.6433 H         1 FAD600      0.0000 
     81 H          -2.4530   17.5233    0.8476 H         1 FAD600      0.0000 
     82 H          -6.7424   10.1737    7.4540 H         1 FAD600      0.0000 
     83 H          -3.6736    8.0017    9.4287 H         1 FAD600      0.0000 
     84 H          -4.9302   12.1972    7.6209 H         1 FAD600      0.0000 
@<TRIPOS>BOND
     1    2    1 ar   
     2    3    1 ar   
     3    4    1 1    
     4   53    1 1    
     5    5    4 1    
     6    6    5 1    
     7   54    5 1    
     8   55    5 1    
     9    7    6 1    
    10    8    6 1    
    11   56    6 1    
    12   12    7 1    
    13    9    8 1    
    14   10    8 1    
    15   57    8 1    
    16   80    9 1    
    17   11   10 1    
    18   12   10 1    
    19   58   10 1    
    20   81   11 1    
    21   13   12 1    
    22   59   12 1    
    23   14   13 1    
    24   22   13 1    
    25   15   14 2    
    26   60   14 1    
    27   16   15 1    
    28   17   16 ar   
    29   22   16 ar   
    30   18   17 1    
    31   19   17 ar   
    32   61   18 1    
    33   62   18 1    
    34   20   19 ar   
    35   21   20 ar   
    36   63   20 1    
    37   22   21 ar   
    38   24   23 1    
    39   40   23 2    
    40   25   24 2    
    41   26   24 am   
    42   27   26 am   
    43   64   26 1    
    44   28   27 2    
    45   29   27 1    
    46   30   29 2    
    47   40   29 1    
    48   31   30 1    
    49   32   31 ar   
    50   38   31 ar   
    51   33   32 ar   
    52   65   32 1    
    53   34   33 1    
    54   35   33 ar   
    55   74   34 1    
    56   75   34 1    
    57   76   34 1    
    58   36   35 1    
    59   37   35 ar   
    60   77   36 1    
    61   78   36 1    
    62   79   36 1    
    63   38   37 ar   
    64   66   37 1    
    65   39   38 1    
    66   40   39 1    
    67   41   39 1    
    68   42   41 1    
    69   67   41 1    
    70   68   41 1    
    71   43   42 1    
    72   44   42 1    
    73   69   42 1    
    74   82   43 1    
    75   45   44 1    
    76   46   44 1    
    77   70   44 1    
    78   83   45 1    
    79   47   46 1    
    80   48   46 1    
    81   71   46 1    
    82   84   47 1    
    83   49   48 1    
    84   72   48 1    
    85   73   48 1    
    86   50   49 1    
    87   51   50 ar   
    88   52   50 ar   
    89   53   50 1    
@<TRIPOS>SUBSTRUCTURE
     1 FAD600      1 GROUP   
@<TRIPOS>SET

