#    Name: 2xpw_OTC_1_INTS_M
#    Modification time : Tue Mar 25 06:31:25 2014

@<TRIPOS>MOLECULE
2xpw_OTC_1_INTS_M
   52     0    12     0     0
SMALL
NO_CHARGES


@<TRIPOS>ATOM
      1 CA         18.4560   29.5645   34.7775 C.3       4 GLC5        0.0000 
      2 CA         18.5580   31.7190   35.1660 C.3      12 GLL5        0.0000 
      3 CA         18.3540   27.4100   34.3890 C.3       8 GLP5        0.0000 
      4 CA         16.9385   33.1550   35.1910 C.3       4 GLC5        0.0000 
      5 CA         15.3190   34.5910   35.2160 C.3       8 GLP5        0.0000 
      6 N          16.7175   30.6270   36.8415 N.am      2 SEC2        0.0000 
      7 N          16.9800   30.0800   35.3980 N.am     10 SEL2        0.0000 
      8 N          16.4550   31.1740   38.2850 N.am      6 SEP2        0.0000 
      9 N          19.0370   28.9705   36.2250 N.am      2 SEC2        0.0000 
     10 N          19.1710   30.1860   36.8600 N.am     10 SEL2        0.0000 
     11 N          18.9030   27.7550   35.5900 N.am      6 SEP2        0.0000 
     12 N          19.1135   29.3085   37.9570 N.am      2 SEC2        0.0000 
     13 N          19.0560   28.4310   39.0540 N.am      6 SEP2        0.0000 
     14 N          17.8130   30.6800   37.5725 N.am      2 SEC2        0.0000 
     15 O          21.0740   30.6275   38.6650 O.2       1 ALC1        0.0000 
     16 O          21.2470   31.6060   37.7650 O.2       9 ALL1        0.0000 
     17 O          20.9010   29.6490   39.5650 O.2       5 ALP1        0.0000 
     18 CA         23.5035   30.2550   35.9150 C.3       4 GLC5        0.0000 
     19 CA         22.3040   31.0470   36.8730 C.3      12 GLL5        0.0000 
     20 CA         24.7030   29.4630   34.9570 C.3       8 GLP5        0.0000 
     21 CA         21.8555   34.4210   39.2045 C.3       4 GLC5        0.0000 
     22 CA         21.8360   32.4540   38.8680 C.3      12 GLL5        0.0000 
     23 CA         21.8750   36.3880   39.5410 C.3       8 GLP5        0.0000 
     24 O          18.3120   34.0635   38.2885 O.2       1 ALC1        0.0000 
     25 O          19.4550   34.8350   38.1300 O.2       9 ALL1        0.0000 
     26 O          17.1690   33.2920   38.4470 O.2       5 ALP1        0.0000 
     27 CA         17.7700   38.3205   39.1970 C.3       4 GLC5        0.0000 
     28 CA         18.1330   37.2860   37.4490 C.3      12 GLL5        0.0000 
     29 CA         17.4070   39.3550   40.9450 C.3       8 GLP5        0.0000 
     30 CA         20.0040   36.8370   38.4950 C.3       4 GLC5        0.0000 
     31 CA         20.5480   41.4710   32.5295 C.3       4 GLC5        0.0000 
     32 CA         20.2510   40.7880   34.4130 C.3      12 GLL5        0.0000 
     33 CA         20.8450   42.1540   30.6460 C.3       8 GLP5        0.0000 
     34 CA         19.0660   40.0125   33.0250 C.3       4 GLC5        0.0000 
     35 CA         17.8810   39.2370   31.6370 C.3       8 GLP5        0.0000 
     36 Zn         21.9710   36.3860   32.3905 Zn        3 ZIC7        0.0000 
     37 Zn         21.4930   37.1140   32.9620 Zn       11 ZIL7        0.0000 
     38 Zn         22.4490   35.6580   31.8190 Zn        7 ZIP7        0.0000 
     39 Zn         21.8850   35.0755   32.3980 Zn        3 ZIC7        0.0000 
     40 Zn         21.3210   34.4930   32.9770 Zn       11 ZIL7        0.0000 
     41 CA         20.9340   35.7548   37.9429 C.3       4 GLC5        0.0000 
     42 CA         19.9520   36.0650   36.1300 C.3      12 GLL5        0.0000 
     43 CA         16.6573   36.4715   36.4367 C.3       4 GLC5        0.0000 
     44 CA         18.8440   37.1280   36.1020 C.3      12 GLL5        0.0000 
     45 CA         14.8260   35.7360   36.0980 C.3       8 GLP5        0.0000 
     46 CA         18.0778   39.3590   34.1442 C.3       4 GLC5        0.0000 
     47 CA         18.8860   39.6120   36.0150 C.3      12 GLL5        0.0000 
     48 CA         17.0590   38.5120   32.5690 C.3       8 GLP5        0.0000 
     49 CA         20.1602   40.6790   37.4783 C.3       4 GLC5        0.0000 
     50 CA         21.2240   41.1520   39.2370 C.3       8 GLP5        0.0000 
     51 CA         18.3957   38.2961   33.8765 C.3       4 GLC5        0.0000 
     52 CA         20.3450   38.3840   34.5390 C.3      12 GLL5        0.0000 
@<TRIPOS>BOND
@<TRIPOS>SUBSTRUCTURE
     1 ALC1       15 GROUP        1 X    ALC  0     ROOT ALC X 1
     2 SEC2        6 GROUP        1 X    SEC  0     **** SEC X 2
     3 ZIC7       36 GROUP        1 X    ZIC  0     **** ZIC X 5
     4 GLC5        1 GROUP        1 X    GLC  0     **** GLC X 6
     5 ALP1       17 GROUP        1 Y    ALP  0     ROOT ALP Y 8
     6 SEP2        8 GROUP        1 Y    SEP  0     **** SEP Y 9
     7 ZIP7       38 GROUP        1 Y    ZIP  0     **** ZIP Y 12
     8 GLP5        3 GROUP        1 Y    GLP  0     **** GLP Y 13
     9 ALL1       16 GROUP        1 Z    ALL  0     ROOT ALL Z 15
    10 SEL2        7 GROUP        1 Z    SEL  0     **** SEL Z 16
    11 ZIL7       37 GROUP        1 Z    ZIL  0     **** ZIL Z 19
    12 GLL5        2 GROUP        1 Z    GLL  0     **** GLL Z 20
@<TRIPOS>SET

