#    Name: 2xpw_OTC_1_ligand
#    Modification time : Tue Mar 25 06:31:26 2014

@<TRIPOS>MOLECULE
2xpw_OTC_1_ligand
   55    58     1     0     0
SMALL
NO_CHARGES


@<TRIPOS>ATOM
      1 C1         18.9880   32.9280   34.4770 C.2       1 OTC222      0.0000 
      2 O1         18.4320   33.3510   33.4760 O.2       1 OTC222      0.0000 
      3 C2         18.5580   31.7190   35.1660 C.2       1 OTC222      0.0000 
      4 O21        16.9800   30.0800   35.3980 O.2       1 OTC222      0.0000 
      5 C21        17.4220   30.9570   34.6690 C.2       1 OTC222      0.0000 
      6 N21        16.7660   31.3610   33.5930 N.am      1 OTC222      0.0000 
      7 C3         19.2340   31.3450   36.2620 C.2       1 OTC222      0.0000 
      8 O3         19.1710   30.1860   36.8600 O.co2     1 OTC222      0.0000 
      9 C4         20.1420   32.2480   37.0260 C.3       1 OTC222      0.0000 
     10 N4         21.2470   31.6060   37.7650 N.4       1 OTC222      0.0000 
     11 C41        22.3040   31.0470   36.8730 C.3       1 OTC222      0.0000 
     12 C42        21.8360   32.4540   38.8680 C.3       1 OTC222      0.0000 
     13 C4A        20.4850   33.5980   36.3600 C.3       1 OTC222      0.0000 
     14 C5         19.5830   34.7580   36.7590 C.3       1 OTC222      0.0000 
     15 O5         19.4550   34.8350   38.1300 O.3       1 OTC222      0.0000 
     16 C5A        19.9520   36.0650   36.1300 C.3       1 OTC222      0.0000 
     17 C6         18.8440   37.1280   36.1020 C.3       1 OTC222      0.0000 
     18 O6         17.8130   36.6630   35.1450 O.3       1 OTC222      0.0000 
     19 C61        18.1330   37.2860   37.4490 C.3       1 OTC222      0.0000 
     20 C6A        19.3960   38.4250   35.5560 C.ar      1 OTC222      0.0000 
     21 C7         18.8860   39.6120   36.0150 C.ar      1 OTC222      0.0000 
     22 C8         19.3070   40.8000   35.4240 C.ar      1 OTC222      0.0000 
     23 C9         20.2510   40.7880   34.4130 C.ar      1 OTC222      0.0000 
     24 C10        20.7610   39.5780   33.9550 C.ar      1 OTC222      0.0000 
     25 O10        21.6670   39.5980   32.9540 O.co2     1 OTC222      0.0000 
     26 C6B        20.3450   38.3840   34.5390 C.ar      1 OTC222      0.0000 
     27 C11        20.8850   37.0900   34.0560 C.2       1 OTC222      0.0000 
     28 O11        21.4930   37.1140   32.9620 O.2       1 OTC222      0.0000 
     29 C5B        20.5220   35.9020   34.7280 C.2       1 OTC222      0.0000 
     30 C12        20.7980   34.6770   34.1390 C.2       1 OTC222      0.0000 
     31 O12        21.3210   34.4930   32.9770 O.co2     1 OTC222      0.0000 
     32 C4B        20.4010   33.4050   34.8580 C.3       1 OTC222      0.0000 
     33 O13        21.3470   32.3900   34.4630 O.3       1 OTC222      0.0000 
     34 H          17.0795   32.2171   33.1821 H         1 OTC222      0.0000 
     35 H          16.0163   30.7736   33.2883 H         1 OTC222      0.0000 
     36 H          19.4152   32.6271   37.9332 H         1 OTC222      0.0000 
     37 H          20.7927   30.6982   38.2990 H         1 OTC222      0.0000 
     38 H          21.5140   33.8445   36.5999 H         1 OTC222      0.0000 
     39 H          18.5608   34.4854   36.3220 H         1 OTC222      0.0000 
     40 H          20.7890   36.5147   36.7399 H         1 OTC222      0.0000 
     41 H          18.2056   39.6346   36.7801 H         1 OTC222      0.0000 
     42 H          18.9082   41.6974   35.7464 H         1 OTC222      0.0000 
     43 H          20.5775   41.6711   33.9983 H         1 OTC222      0.0000 
     44 H          22.7229   31.7551   36.3045 H         1 OTC222      0.0000 
     45 H          23.0404   30.6161   37.3946 H         1 OTC222      0.0000 
     46 H          21.9381   30.3523   36.2537 H         1 OTC222      0.0000 
     47 H          22.5821   31.9840   39.3396 H         1 OTC222      0.0000 
     48 H          22.2065   33.3142   38.5175 H         1 OTC222      0.0000 
     49 H          21.1537   32.6892   39.5602 H         1 OTC222      0.0000 
     50 H          18.7666   37.5560   38.1740 H         1 OTC222      0.0000 
     51 H          17.4166   37.9827   37.4113 H         1 OTC222      0.0000 
     52 H          17.6985   36.4343   37.7417 H         1 OTC222      0.0000 
     53 H          18.6305   34.3106   38.3427 H         1 OTC222      0.0000 
     54 H          18.1503   35.7839   34.8083 H         1 OTC222      0.0000 
     55 H          21.0704   31.5697   34.9636 H         1 OTC222      0.0000 
@<TRIPOS>BOND
     1    2    1 2    
     2    3    1 1    
     3   32    1 1    
     4    5    3 1    
     5    7    3 2    
     6    5    4 2    
     7    6    5 am   
     8   34    6 1    
     9   35    6 1    
    10    8    7 ar   
    11    9    7 1    
    12   10    9 1    
    13   13    9 1    
    14   36    9 1    
    15   11   10 1    
    16   12   10 1    
    17   37   10 1    
    18   44   11 1    
    19   45   11 1    
    20   46   11 1    
    21   47   12 1    
    22   48   12 1    
    23   49   12 1    
    24   14   13 1    
    25   32   13 1    
    26   38   13 1    
    27   15   14 1    
    28   16   14 1    
    29   39   14 1    
    30   53   15 1    
    31   17   16 1    
    32   29   16 1    
    33   40   16 1    
    34   18   17 1    
    35   19   17 1    
    36   20   17 1    
    37   54   18 1    
    38   50   19 1    
    39   51   19 1    
    40   52   19 1    
    41   21   20 ar   
    42   26   20 ar   
    43   22   21 ar   
    44   41   21 1    
    45   23   22 ar   
    46   42   22 1    
    47   24   23 ar   
    48   43   23 1    
    49   25   24 ar   
    50   26   24 ar   
    51   27   26 1    
    52   28   27 2    
    53   29   27 1    
    54   30   29 2    
    55   31   30 ar   
    56   32   30 1    
    57   33   32 1    
    58   55   33 1    
@<TRIPOS>SUBSTRUCTURE
     1 OTC222      1 GROUP   
@<TRIPOS>SET

