#    Name: 2d06_EST_2_INTS_M
#    Modification time : Tue Mar 25 01:25:10 2014

@<TRIPOS>MOLECULE
2d06_EST_2_INTS_M
   49     0     6     0     0
SMALL
NO_CHARGES


@<TRIPOS>ATOM
      1 CA        165.6570  -59.9155   33.3170 C.3       2 GLC5        0.0000 
      2 CA        165.7820  -58.4050   34.5320 C.3       6 GLL5        0.0000 
      3 CA        165.5320  -61.4260   32.1020 C.3       4 GLP5        0.0000 
      4 CA        165.0305  -60.6695   34.3670 C.3       2 GLC5        0.0000 
      5 CA        164.8970  -58.8790   35.5680 C.3       6 GLL5        0.0000 
      6 CA        165.1640  -62.4600   33.1660 C.3       4 GLP5        0.0000 
      7 N         163.6430  -61.3630   34.7705 N.am      1 SEC2        0.0000 
      8 N         164.4110  -60.1870   35.5240 N.am      5 SEL2        0.0000 
      9 N         162.8750  -62.5390   34.0170 N.am      3 SEP2        0.0000 
     10 CA        163.5330  -55.6090   35.8985 C.3       2 GLC5        0.0000 
     11 CA        164.5620  -55.7610   37.8810 C.3       6 GLL5        0.0000 
     12 CA        162.5040  -55.4570   33.9160 C.3       4 GLP5        0.0000 
     13 CA        162.4830  -56.1640   37.5870 C.3       2 GLC5        0.0000 
     14 CA        160.4040  -56.5670   37.2930 C.3       4 GLP5        0.0000 
     15 CA        167.8140  -55.5970   36.7425 C.3       2 GLC5        0.0000 
     16 CA        166.4310  -54.6840   35.7160 C.3       6 GLL5        0.0000 
     17 CA        169.1970  -56.5100   37.7690 C.3       4 GLP5        0.0000 
     18 CA        168.1315  -53.1160   32.4065 C.3       2 GLC5        0.0000 
     19 CA        167.1860  -52.5950   34.3170 C.3       6 GLL5        0.0000 
     20 CA        169.0770  -53.6370   30.4960 C.3       4 GLP5        0.0000 
     21 CA        168.8440  -53.2335   34.5360 C.3       2 GLC5        0.0000 
     22 CA        170.5020  -53.8720   34.7550 C.3       4 GLP5        0.0000 
     23 CA        163.3760  -51.1830   37.2365 C.3       2 GLC5        0.0000 
     24 CA        165.2670  -51.1100   37.2620 C.3       6 GLL5        0.0000 
     25 CA        161.4850  -51.2560   37.2110 C.3       4 GLP5        0.0000 
     26 CA        165.2230  -48.1975   36.2200 C.3       2 GLC5        0.0000 
     27 CA        166.2070  -49.8930   36.9220 C.3       6 GLL5        0.0000 
     28 CA        164.2390  -46.5020   35.5180 C.3       4 GLP5        0.0000 
     29 CA        166.6750  -48.1530   35.0275 C.3       2 GLC5        0.0000 
     30 CA        166.8490  -50.2570   35.5320 C.3       6 GLL5        0.0000 
     31 CA        166.5010  -46.0490   34.5230 C.3       4 GLP5        0.0000 
     32 CA        163.5980  -51.7365   32.9860 C.3       2 GLC5        0.0000 
     33 CA        164.9180  -51.3930   34.2680 C.3       6 GLL5        0.0000 
     34 CA        162.2780  -52.0800   31.7040 C.3       4 GLP5        0.0000 
     35 CA        163.0745  -50.7930   35.0200 C.3       2 GLC5        0.0000 
     36 CA        161.2310  -50.1930   35.7720 C.3       4 GLP5        0.0000 
     37 CA        166.9276  -59.3481   35.5230 C.3       2 GLC5        0.0000 
     38 CA        166.2810  -57.0580   34.5720 C.3       6 GLL5        0.0000 
     39 CA        168.3910  -60.3910   35.9860 C.3       4 GLP5        0.0000 
     40 CA        164.0425  -54.6315   39.3267 C.3       2 GLC5        0.0000 
     41 CA        163.2320  -54.2230   40.7660 C.3       4 GLP5        0.0000 
     42 CA        168.5232  -54.1217   34.8798 C.3       2 GLC5        0.0000 
     43 CA        164.3950  -54.7967   34.5581 C.3       2 GLC5        0.0000 
     44 CA        166.6580  -54.0590   34.2930 C.3       6 GLL5        0.0000 
     45 CA        166.4891  -51.1680   32.7345 C.3       2 GLC5        0.0000 
     46 CA        167.1610  -50.5790   30.9770 C.3       4 GLP5        0.0000 
     47 CA        167.7285  -51.0356   37.5279 C.3       2 GLC5        0.0000 
     48 CA        166.0090  -52.2730   36.5710 C.3       6 GLL5        0.0000 
     49 CA        169.3740  -51.1880   38.4840 C.3       4 GLP5        0.0000 
@<TRIPOS>BOND
@<TRIPOS>SUBSTRUCTURE
     1 SEC2        7 GROUP        1 X    SEC  0     ROOT SEC X 2
     2 GLC5        1 GROUP        1 X    GLC  0     **** GLC X 6
     3 SEP2        9 GROUP        1 Y    SEP  0     ROOT SEP Y 9
     4 GLP5        3 GROUP        1 Y    GLP  0     **** GLP Y 13
     5 SEL2        8 GROUP        1 Z    SEL  0     ROOT SEL Z 16
     6 GLL5        2 GROUP        1 Z    GLL  0     **** GLL Z 20
@<TRIPOS>SET

