#    Name: 2d06_EST_2_ligand
#    Modification time : Tue Mar 25 01:25:10 2014

@<TRIPOS>MOLECULE
2d06_EST_2_ligand
   44    47     1     0     0
SMALL
NO_CHARGES


@<TRIPOS>ATOM
      1 C1        166.2810  -57.0580   34.5720 C.ar      1 EST305      0.0000 
      2 C2        165.7820  -58.4050   34.5320 C.ar      1 EST305      0.0000 
      3 C3        164.8970  -58.8790   35.5680 C.ar      1 EST305      0.0000 
      4 O3        164.4110  -60.1870   35.5240 O.3       1 EST305      0.0000 
      5 C4        164.5130  -58.0140   36.6410 C.ar      1 EST305      0.0000 
      6 C5        165.0020  -56.6560   36.7030 C.ar      1 EST305      0.0000 
      7 C6        164.5620  -55.7610   37.8810 C.3       1 EST305      0.0000 
      8 C7        165.1440  -54.3190   37.8940 C.3       1 EST305      0.0000 
      9 C8        165.3970  -53.7440   36.4990 C.3       1 EST305      0.0000 
     10 C9        166.4310  -54.6840   35.7160 C.3       1 EST305      0.0000 
     11 C10       165.9080  -56.1530   35.6450 C.ar      1 EST305      0.0000 
     12 C11       166.6580  -54.0590   34.2930 C.3       1 EST305      0.0000 
     13 C12       167.1860  -52.5950   34.3170 C.3       1 EST305      0.0000 
     14 C13       166.2470  -51.6470   35.1150 C.3       1 EST305      0.0000 
     15 C14       166.0090  -52.2730   36.5710 C.3       1 EST305      0.0000 
     16 C15       165.2670  -51.1100   37.2620 C.3       1 EST305      0.0000 
     17 C16       166.2070  -49.8930   36.9220 C.3       1 EST305      0.0000 
     18 C17       166.8490  -50.2570   35.5320 C.3       1 EST305      0.0000 
     19 O17       166.6220  -49.1660   34.6050 O.3       1 EST305      0.0000 
     20 C18       164.9180  -51.3930   34.2680 C.3       1 EST305      0.0000 
     21 H         166.9059  -56.7267   33.8402 H         1 EST305      0.0000 
     22 H         166.0503  -59.0239   33.7771 H         1 EST305      0.0000 
     23 H         163.8899  -58.3527   37.3702 H         1 EST305      0.0000 
     24 H         164.8426  -56.2576   38.8294 H         1 EST305      0.0000 
     25 H         163.4576  -55.6900   37.8809 H         1 EST305      0.0000 
     26 H         166.0861  -54.3316   38.4585 H         1 EST305      0.0000 
     27 H         164.4431  -53.6682   38.4339 H         1 EST305      0.0000 
     28 H         164.5008  -53.7097   35.9342 H         1 EST305      0.0000 
     29 H         167.3560  -54.6527   36.2529 H         1 EST305      0.0000 
     30 H         165.7074  -54.0849   33.7490 H         1 EST305      0.0000 
     31 H         167.3743  -54.6861   33.7508 H         1 EST305      0.0000 
     32 H         167.2671  -52.2330   33.2939 H         1 EST305      0.0000 
     33 H         168.1726  -52.5839   34.7762 H         1 EST305      0.0000 
     34 H         167.0235  -52.3189   36.9967 H         1 EST305      0.0000 
     35 H         165.2572  -51.2518   38.2969 H         1 EST305      0.0000 
     36 H         164.3372  -50.9562   36.8115 H         1 EST305      0.0000 
     37 H         166.9662  -49.8261   37.6497 H         1 EST305      0.0000 
     38 H         165.6238  -49.0214   36.8189 H         1 EST305      0.0000 
     39 H         167.9055  -50.4092   35.7311 H         1 EST305      0.0000 
     40 H         165.1165  -50.9723   33.3828 H         1 EST305      0.0000 
     41 H         164.4263  -52.2442   34.0844 H         1 EST305      0.0000 
     42 H         164.2836  -50.7852   34.7457 H         1 EST305      0.0000 
     43 H         164.6838  -60.5938   36.3958 H         1 EST305      0.0000 
     44 H         167.1994  -48.5886   35.1824 H         1 EST305      0.0000 
@<TRIPOS>BOND
     1    2    1 ar   
     2   11    1 ar   
     3   21    1 1    
     4    3    2 ar   
     5   22    2 1    
     6    4    3 1    
     7    5    3 ar   
     8   43    4 1    
     9    6    5 ar   
    10   23    5 1    
    11    7    6 1    
    12   11    6 ar   
    13    8    7 1    
    14   24    7 1    
    15   25    7 1    
    16    9    8 1    
    17   26    8 1    
    18   27    8 1    
    19   10    9 1    
    20   15    9 1    
    21   28    9 1    
    22   11   10 1    
    23   12   10 1    
    24   29   10 1    
    25   13   12 1    
    26   30   12 1    
    27   31   12 1    
    28   14   13 1    
    29   32   13 1    
    30   33   13 1    
    31   15   14 1    
    32   18   14 1    
    33   20   14 1    
    34   16   15 1    
    35   34   15 1    
    36   17   16 1    
    37   35   16 1    
    38   36   16 1    
    39   18   17 1    
    40   37   17 1    
    41   38   17 1    
    42   19   18 1    
    43   39   18 1    
    44   44   19 1    
    45   40   20 1    
    46   41   20 1    
    47   42   20 1    
@<TRIPOS>SUBSTRUCTURE
     1 EST305      1 GROUP   
@<TRIPOS>SET

