#    Name: 4o0r_X4Z_1_INTS_M
#    Modification time : Tue Mar 25 13:25:42 2014

@<TRIPOS>MOLECULE
4o0r_X4Z_1_INTS_M
   69     0     9     0     0
SMALL
NO_CHARGES


@<TRIPOS>ATOM
      1 CA         15.9825  -19.4230   14.9925 C.3       3 GLC5        0.0000 
      2 CA         15.4500  -17.5680   16.1430 C.3       9 GLL5        0.0000 
      3 CA         16.5150  -21.2780   13.8420 C.3       6 GLP5        0.0000 
      4 CA         17.0225  -15.4425   15.5915 C.3       3 GLC5        0.0000 
      5 CA         15.9890  -15.7950   14.1150 C.3       9 GLL5        0.0000 
      6 CA         18.0560  -15.0900   17.0680 C.3       6 GLP5        0.0000 
      7 O          14.4250  -17.5460   18.1760 O.2       1 ALC1        0.0000 
      8 O          14.2870  -17.2140   16.8380 O.2       7 ALL1        0.0000 
      9 O          14.5630  -17.8780   19.5140 O.2       4 ALP1        0.0000 
     10 N          16.4545  -19.2235   17.8245 N.am      2 SEC2        0.0000 
     11 N          16.1970  -18.6510   16.4570 N.am      8 SEL2        0.0000 
     12 N          16.7120  -19.7960   19.1920 N.am      5 SEP2        0.0000 
     13 CA         16.2325  -17.6100   11.2080 C.3       3 GLC5        0.0000 
     14 CA         17.9290  -18.0940   12.4210 C.3       9 GLL5        0.0000 
     15 CA         14.5360  -17.1260    9.9950 C.3       6 GLP5        0.0000 
     16 CA         19.6245  -18.8990   12.0815 C.3       3 GLC5        0.0000 
     17 CA         21.3200  -19.7040   11.7420 C.3       6 GLP5        0.0000 
     18 CA         20.7150  -17.2660   15.2715 C.3       3 GLC5        0.0000 
     19 CA         19.3180  -16.6870   13.9810 C.3       9 GLL5        0.0000 
     20 CA         22.1120  -17.8450   16.5620 C.3       6 GLP5        0.0000 
     21 CA         20.1640  -18.5260   13.5265 C.3       3 GLC5        0.0000 
     22 CA         21.0100  -20.3650   13.0720 C.3       6 GLP5        0.0000 
     23 CA         12.2370  -17.8555   20.0615 C.3       3 GLC5        0.0000 
     24 CA         11.7000  -16.7080   18.7650 C.3       9 GLL5        0.0000 
     25 CA         12.7740  -19.0030   21.3580 C.3       6 GLP5        0.0000 
     26 CA         10.5840  -15.7605   11.5725 C.3       3 GLC5        0.0000 
     27 CA         11.9990  -15.5870   12.9470 C.3       9 GLL5        0.0000 
     28 CA          9.1690  -15.9340   10.1980 C.3       6 GLP5        0.0000 
     29 CA         12.6915  -16.8300   11.6145 C.3       3 GLC5        0.0000 
     30 CA         13.3840  -18.0730   10.2820 C.3       6 GLP5        0.0000 
     31 CA         14.7545  -14.2540    5.7125 C.3       3 GLC5        0.0000 
     32 CA         15.0090  -13.7340    7.6720 C.3       9 GLL5        0.0000 
     33 CA         14.5000  -14.7740    3.7530 C.3       6 GLP5        0.0000 
     34 CA         12.3520  -12.4700    7.1235 C.3       3 GLC5        0.0000 
     35 CA         13.6890  -13.8020    8.0850 C.3       9 GLL5        0.0000 
     36 CA         11.0150  -11.1380    6.1620 C.3       6 GLP5        0.0000 
     37 CA         12.9320  -15.4215    6.9180 C.3       3 GLC5        0.0000 
     38 CA         12.1750  -17.0410    5.7510 C.3       6 GLP5        0.0000 
     39 CA         19.9660  -11.9925   13.5480 C.3       3 GLC5        0.0000 
     40 CA         18.8490  -11.6440   12.1730 C.3       9 GLL5        0.0000 
     41 CA         21.0830  -12.3410   14.9230 C.3       6 GLP5        0.0000 
     42 CA         20.7330  -10.8710   11.9705 C.3       3 GLC5        0.0000 
     43 CA         22.6170  -10.0980   11.7680 C.3       6 GLP5        0.0000 
     44 CA         17.2290   -7.7890   13.5350 C.3       3 GLC5        0.0000 
     45 CA         17.5870   -9.6410   12.3570 C.3       9 GLL5        0.0000 
     46 CA         16.8710   -5.9370   14.7130 C.3       6 GLP5        0.0000 
     47 CA         17.0475  -16.2699   16.2975 C.3       3 GLC5        0.0000 
     48 CA         16.0590  -16.9600   15.0720 C.3       9 GLL5        0.0000 
     49 CA         18.3313  -15.9848   15.4215 C.3       3 GLC5        0.0000 
     50 CA         17.8950  -17.0720   13.5690 C.3       9 GLL5        0.0000 
     51 CA         17.1262  -19.5094   13.5661 C.3       3 GLC5        0.0000 
     52 CA         17.1970  -17.7030   14.7500 C.3       9 GLL5        0.0000 
     53 CA         11.1780  -17.5192   15.4198 C.3       3 GLC5        0.0000 
     54 CA         13.1380  -16.6880   16.2570 C.3       9 GLL5        0.0000 
     55 CA          9.7880  -18.4690   14.1860 C.3       6 GLP5        0.0000 
     56 CA         10.0557  -17.1472   15.5480 C.3       3 GLC5        0.0000 
     57 CA          9.7960  -15.7330   17.3680 C.3       9 GLL5        0.0000 
     58 CA         10.8897  -17.1045   13.9360 C.3       3 GLC5        0.0000 
     59 CA         11.9840  -15.8930   14.4250 C.3       9 GLL5        0.0000 
     60 CA         11.7755  -14.9499   19.3146 C.3       3 GLC5        0.0000 
     61 CA         11.9980  -16.4510   17.0500 C.3       9 GLL5        0.0000 
     62 CA         12.5970  -13.5670   20.3670 C.3       6 GLP5        0.0000 
     63 CA         14.7820  -15.2240   10.0590 C.3       3 GLC5        0.0000 
     64 CA         14.3680  -13.3550   10.3300 C.3       9 GLL5        0.0000 
     65 CA         15.0233  -15.3660    9.0625 C.3       3 GLC5        0.0000 
     66 CA         16.0120  -13.4780    8.5880 C.3       9 GLL5        0.0000 
     67 CA         14.0315  -15.4165    9.3725 C.3       3 GLC5        0.0000 
     68 CA         16.8422  -14.7669    7.9505 C.3       3 GLC5        0.0000 
     69 CA         18.2550  -15.9750    7.4390 C.3       6 GLP5        0.0000 
@<TRIPOS>BOND
@<TRIPOS>SUBSTRUCTURE
     1 ALC1        7 GROUP        1 X    ALC  0     ROOT ALC X 1
     2 SEC2       10 GROUP        1 X    SEC  0     **** SEC X 2
     3 GLC5        1 GROUP        1 X    GLC  0     **** GLC X 6
     4 ALP1        9 GROUP        1 Y    ALP  0     ROOT ALP Y 8
     5 SEP2       12 GROUP        1 Y    SEP  0     **** SEP Y 9
     6 GLP5        3 GROUP        1 Y    GLP  0     **** GLP Y 13
     7 ALL1        8 GROUP        1 Z    ALL  0     ROOT ALL Z 15
     8 SEL2       11 GROUP        1 Z    SEL  0     **** SEL Z 16
     9 GLL5        2 GROUP        1 Z    GLL  0     **** GLL Z 20
@<TRIPOS>SET

