#    Name: 4o0r_X4Z_1_ligand
#    Modification time : Tue Mar 25 13:25:43 2014

@<TRIPOS>MOLECULE
4o0r_X4Z_1_ligand
   65    69     1     0     0
SMALL
NO_CHARGES


@<TRIPOS>ATOM
      1 C1         16.0590  -16.9600   15.0720 C.2       1 X4Z601      0.0000 
      2 C2         17.1970  -17.7030   14.7500 C.2       1 X4Z601      0.0000 
      3 C3         15.4500  -17.5680   16.1430 C.2       1 X4Z601      0.0000 
      4 C4         15.9890  -15.7950   14.1150 C.3       1 X4Z601      0.0000 
      5 C5         17.8950  -17.0720   13.5690 C.3       1 X4Z601      0.0000 
      6 N6         17.2760  -18.7130   15.5800 N.2       1 X4Z601      0.0000 
      7 N7         14.2870  -17.2140   16.8380 N.pl3     1 X4Z601      0.0000 
      8 N8         16.1970  -18.6510   16.4570 N.2       1 X4Z601      0.0000 
      9 N9         17.1250  -15.8780   13.1920 N.am      1 X4Z601      0.0000 
     10 C10        17.9290  -18.0940   12.4210 C.3       1 X4Z601      0.0000 
     11 C11        19.3180  -16.6870   13.9810 C.3       1 X4Z601      0.0000 
     12 C12        13.1380  -16.6880   16.2570 C.ar      1 X4Z601      0.0000 
     13 C13        17.3710  -15.0010   12.1930 C.2       1 X4Z601      0.0000 
     14 C14        11.9980  -16.4510   17.0500 C.ar      1 X4Z601      0.0000 
     15 N15        13.0760  -16.4000   14.9630 N.ar      1 X4Z601      0.0000 
     16 N16        16.5330  -13.9620   12.0180 N.am      1 X4Z601      0.0000 
     17 O17        18.3260  -15.1250   11.4520 O.2       1 X4Z601      0.0000 
     18 C18        10.8510  -15.9180   16.4520 C.ar      1 X4Z601      0.0000 
     19 S19        11.7000  -16.7080   18.7650 S.3       1 X4Z601      0.0000 
     20 C20        11.9840  -15.8930   14.4250 C.ar      1 X4Z601      0.0000 
     21 C21        16.7520  -13.0030   10.9380 C.3       1 X4Z601      0.0000 
     22 N22        10.8980  -15.6550   15.1240 N.ar      1 X4Z601      0.0000 
     23 C23         9.7960  -15.7330   17.3680 C.2       1 X4Z601      0.0000 
     24 C24        10.0590  -16.0860   18.6170 C.2       1 X4Z601      0.0000 
     25 C25        11.9990  -15.5870   12.9470 C.3       1 X4Z601      0.0000 
     26 C26        15.6880  -13.2890    9.9160 C.ar      1 X4Z601      0.0000 
     27 C27        16.5430  -11.5580   11.4010 C.3       1 X4Z601      0.0000 
     28 C28        14.3680  -13.3550   10.3300 C.ar      1 X4Z601      0.0000 
     29 C29        16.0120  -13.4780    8.5880 C.ar      1 X4Z601      0.0000 
     30 N30        17.5070  -11.1050   12.4140 N.4       1 X4Z601      0.0000 
     31 C31        13.3650  -13.6120    9.4150 C.ar      1 X4Z601      0.0000 
     32 C32        15.0090  -13.7340    7.6720 C.ar      1 X4Z601      0.0000 
     33 C33        13.6890  -13.8020    8.0850 C.ar      1 X4Z601      0.0000 
     34 C34        18.8490  -11.6440   12.1730 C.3       1 X4Z601      0.0000 
     35 C35        17.5870   -9.6410   12.3570 C.3       1 X4Z601      0.0000 
     36 H          16.0231  -14.8676   14.6843 H         1 X4Z601      0.0000 
     37 H          15.0472  -15.8410   13.5707 H         1 X4Z601      0.0000 
     38 H          14.2859  -17.3599   17.8905 H         1 X4Z601      0.0000 
     39 H          15.7165  -13.7980   12.6235 H         1 X4Z601      0.0000 
     40 H          17.6981  -13.1086   10.4957 H         1 X4Z601      0.0000 
     41 H           8.9187  -15.3554   17.0525 H         1 X4Z601      0.0000 
     42 H           9.6178  -16.0964   19.4367 H         1 X4Z601      0.0000 
     43 H          15.5074  -11.4716   11.7895 H         1 X4Z601      0.0000 
     44 H          16.5893  -10.9039   10.5061 H         1 X4Z601      0.0000 
     45 H          14.1343  -13.2116   11.3249 H         1 X4Z601      0.0000 
     46 H          16.9920  -13.4290    8.2811 H         1 X4Z601      0.0000 
     47 H          17.1673  -11.3969   13.3969 H         1 X4Z601      0.0000 
     48 H          12.3851  -13.6615    9.7211 H         1 X4Z601      0.0000 
     49 H          15.2435  -13.8751    6.6769 H         1 X4Z601      0.0000 
     50 H          12.9450  -13.9954    7.3958 H         1 X4Z601      0.0000 
     51 H          18.3822  -17.7258   11.6092 H         1 X4Z601      0.0000 
     52 H          18.4202  -18.9260   12.6789 H         1 X4Z601      0.0000 
     53 H          17.0092  -18.3709   12.1429 H         1 X4Z601      0.0000 
     54 H          19.8479  -17.4827   14.2743 H         1 X4Z601      0.0000 
     55 H          19.8204  -16.2617   13.2282 H         1 X4Z601      0.0000 
     56 H          19.3216  -16.0363   14.7404 H         1 X4Z601      0.0000 
     57 H          12.7063  -14.9199   12.7130 H         1 X4Z601      0.0000 
     58 H          12.1755  -16.4054   12.4001 H         1 X4Z601      0.0000 
     59 H          11.1263  -15.2098   12.6369 H         1 X4Z601      0.0000 
     60 H          19.2076  -11.3632   11.2827 H         1 X4Z601      0.0000 
     61 H          19.5030  -11.3345   12.8633 H         1 X4Z601      0.0000 
     62 H          18.8562  -12.6438   12.1898 H         1 X4Z601      0.0000 
     63 H          18.2324   -9.2779   13.0290 H         1 X4Z601      0.0000 
     64 H          17.8876   -9.3202   11.4588 H         1 X4Z601      0.0000 
     65 H          16.7018   -9.2133   12.5399 H         1 X4Z601      0.0000 
@<TRIPOS>BOND
     1    2    1 2    
     2    3    1 1    
     3    4    1 1    
     4    5    2 1    
     5    6    2 1    
     6    7    3 2    
     7    8    3 1    
     8    9    4 1    
     9   36    4 1    
    10   37    4 1    
    11    9    5 1    
    12   10    5 1    
    13   11    5 1    
    14    8    6 2    
    15   12    7 1    
    16   38    7 1    
    17   13    9 am   
    18   51   10 1    
    19   52   10 1    
    20   53   10 1    
    21   54   11 1    
    22   55   11 1    
    23   56   11 1    
    24   14   12 ar   
    25   15   12 ar   
    26   16   13 am   
    27   17   13 2    
    28   18   14 ar   
    29   19   14 1    
    30   20   15 ar   
    31   21   16 1    
    32   39   16 1    
    33   22   18 ar   
    34   23   18 1    
    35   24   19 1    
    36   22   20 ar   
    37   25   20 1    
    38   26   21 1    
    39   27   21 1    
    40   40   21 1    
    41   24   23 2    
    42   41   23 1    
    43   42   24 1    
    44   57   25 1    
    45   58   25 1    
    46   59   25 1    
    47   28   26 ar   
    48   29   26 ar   
    49   30   27 1    
    50   43   27 1    
    51   44   27 1    
    52   31   28 ar   
    53   45   28 1    
    54   32   29 ar   
    55   46   29 1    
    56   34   30 1    
    57   35   30 1    
    58   47   30 1    
    59   33   31 ar   
    60   48   31 1    
    61   33   32 ar   
    62   49   32 1    
    63   50   33 1    
    64   60   34 1    
    65   61   34 1    
    66   62   34 1    
    67   63   35 1    
    68   64   35 1    
    69   65   35 1    
@<TRIPOS>SUBSTRUCTURE
     1 X4Z601      1 GROUP   
@<TRIPOS>SET

