#    Name: 4LTM_1_CAVITY_N1_6.mol2
#    Modification time : Tue Mar 11 14:13:52 2014

@<TRIPOS>MOLECULE
4LTM_1_CAVITY_N1_6.mol2
   71     0     6     0     0
SMALL
NO_CHARGES


@<TRIPOS>ATOM
      1 CZ         61.8345    6.6092   -8.3172 C.ar      4 PHE5        0.0000 
      2 CZ         61.9691    6.4456   -9.8022 C.ar      4 PHE5        0.0000 
      3 CA         60.7133    7.2408  -10.0035 C.3       5 GLY6        0.0000 
      4 N          63.7632    4.9962  -15.5407 N.2       2 ALA2        0.0000 
      5 N          63.8977    4.8326  -17.0256 N.2       2 ALA2        0.0000 
      6 OG         66.5440    3.0787  -18.1078 O.2       1 SER1        0.0000 
      7 CZ         63.6715    3.5939   -9.3338 C.ar      4 PHE5        0.0000 
      8 CZ         62.4157    4.3891   -9.5352 C.ar      4 PHE5        0.0000 
      9 O          61.1599    5.1843   -9.7366 O.2       2 ALA2        0.0000 
     10 CZ         65.0619    2.6351  -10.6174 C.ar      4 PHE5        0.0000 
     11 CZ         63.8061    3.4303  -10.8188 C.ar      4 PHE5        0.0000 
     12 CZ         62.5503    4.2255  -11.0202 C.ar      4 PHE5        0.0000 
     13 O          66.4523    1.6764  -11.9010 O.2       2 ALA2        0.0000 
     14 CZ         65.1965    2.4716  -12.1024 C.ar      4 PHE5        0.0000 
     15 N          63.9407    3.2668  -12.3037 N.2       2 ALA2        0.0000 
     16 OG         67.8427    0.7176  -13.1846 O.2       1 SER1        0.0000 
     17 OG         66.5869    1.5128  -13.3859 O.2       1 SER1        0.0000 
     18 CA         65.3310    2.3080  -13.5873 C.3       5 GLY6        0.0000 
     19 N          64.0752    3.1032  -13.7887 N.2       2 ALA2        0.0000 
     20 N          67.9772    0.5540  -14.6695 N.2       2 ALA2        0.0000 
     21 CA         66.7214    1.3493  -14.8709 C.3       5 GLY6        0.0000 
     22 CA         65.4656    2.1445  -15.0723 C.3       5 GLY6        0.0000 
     23 CZ         64.2098    2.9397  -15.2737 C.ar      4 PHE5        0.0000 
     24 CZ         62.9540    3.7349  -15.4751 C.ar      4 PHE5        0.0000 
     25 N          66.8560    1.1857  -16.3559 N.2       2 ALA2        0.0000 
     26 OG         65.6002    1.9809  -16.5573 O.2       1 SER1        0.0000 
     27 CZ         64.3444    2.7761  -16.7587 C.ar      4 PHE5        0.0000 
     28 CZ         63.0885    3.5713  -16.9600 C.ar      4 PHE5        0.0000 
     29 N          66.9906    1.0222  -17.8409 N.2       2 ALA2        0.0000 
     30 OG         65.7347    1.8174  -18.0422 O.2       1 SER1        0.0000 
     31 OG         63.2231    3.4078  -18.4450 O.2       1 SER1        0.0000 
     32 N          67.1251    0.8586  -19.3258 N.2       2 ALA2        0.0000 
     33 O          65.6431    0.4150  -11.8354 O.2       2 ALA2        0.0000 
     34 O          67.0335   -0.5437  -13.1190 O.2       2 ALA2        0.0000 
     35 O          65.7777    0.2515  -13.3204 O.2       2 ALA2        0.0000 
     36 N          64.5218    1.0467  -13.5217 N.2       2 ALA2        0.0000 
     37 NZ         67.1680   -0.7073  -14.6039 N.2       3 LYS4        0.0000 
     38 DU         65.9122    0.0879  -14.8053 H         6 CUB7        0.0000 
     39 CZ         64.6564    0.8832  -15.0067 C.ar      4 PHE5        0.0000 
     40 NZ         67.3026   -0.8708  -16.0889 N.2       3 LYS4        0.0000 
     41 NZ         66.0468   -0.0756  -16.2903 N.2       3 LYS4        0.0000 
     42 CZ         64.7910    0.7196  -16.4917 C.ar      4 PHE5        0.0000 
     43 NZ         67.4372   -1.0344  -17.5739 N.2       3 LYS4        0.0000 
     44 DU         66.1814   -0.2392  -17.7753 H         6 CUB7        0.0000 
     45 OG         64.9255    0.5561  -17.9767 O.2       1 SER1        0.0000 
     46 NZ         67.5718   -1.1979  -19.0589 N.2       3 LYS4        0.0000 
     47 OG         66.3159   -0.4027  -19.2602 O.2       1 SER1        0.0000 
     48 CA         65.0601    0.3925  -19.4616 C.3       5 GLY6        0.0000 
     49 NZ         70.2180   -2.9519  -20.1411 N.2       3 LYS4        0.0000 
     50 NZ         68.9621   -2.1567  -20.3424 N.2       3 LYS4        0.0000 
     51 OG         67.7063   -1.3615  -20.5438 O.2       1 SER1        0.0000 
     52 N          69.0967   -2.3202  -21.8274 N.2       2 ALA2        0.0000 
     53 CA         66.2243   -1.8050  -13.0534 C.3       5 GLY6        0.0000 
     54 CA         64.9685   -1.0098  -13.2548 C.3       5 GLY6        0.0000 
     55 O          66.3588   -1.9686  -14.5384 O.2       2 ALA2        0.0000 
     56 CA         65.1030   -1.1734  -14.7397 C.3       5 GLY6        0.0000 
     57 NZ         66.4934   -2.1321  -16.0233 N.2       3 LYS4        0.0000 
     58 CA         65.2376   -1.3369  -16.2247 C.3       5 GLY6        0.0000 
     59 NZ         67.8838   -3.0909  -17.3069 N.2       3 LYS4        0.0000 
     60 NZ         66.6280   -2.2957  -17.5083 N.2       3 LYS4        0.0000 
     61 OG         65.3722   -1.5005  -17.7097 O.2       1 SER1        0.0000 
     62 CA         69.2742   -4.0496  -18.5905 C.3       5 GLY6        0.0000 
     63 N          68.0184   -3.2544  -18.7919 N.2       2 ALA2        0.0000 
     64 OG         66.7626   -2.4592  -18.9933 O.2       1 SER1        0.0000 
     65 N          68.1529   -3.4180  -20.2769 N.2       2 ALA2        0.0000 
     66 OG         65.6842   -3.3934  -15.9577 O.2       1 SER1        0.0000 
     67 CA         64.4284   -2.5982  -16.1591 C.3       5 GLY6        0.0000 
     68 O          67.0746   -4.3522  -17.2413 O.2       2 ALA2        0.0000 
     69 OG         65.8188   -3.5570  -17.4427 O.2       1 SER1        0.0000 
     70 OG         64.5630   -2.7618  -17.6441 O.2       1 SER1        0.0000 
     71 OG         65.9533   -3.7205  -18.9277 O.2       1 SER1        0.0000 
@<TRIPOS>BOND
@<TRIPOS>SUBSTRUCTURE
     1 SER1        6 GROUP   
     2 ALA2        4 GROUP   
     3 LYS4       37 GROUP   
     4 PHE5        1 GROUP   
     5 GLY6        3 GROUP   
     6 CUB7       38 GROUP   
@<TRIPOS>SET

