#    Name: 4ltm_FMN_1_INTS_M
#    Modification time : Tue Apr  8 00:09:28 2014

@<TRIPOS>MOLECULE
4ltm_FMN_1_INTS_M
   71     0     9     0     0
SMALL
NO_CHARGES


@<TRIPOS>ATOM
      1 N          66.1265    0.9295  -10.1060 N.am      2 SEC2        0.0000 
      2 N          64.9970    1.8890  -10.3670 N.am      8 SEL2        0.0000 
      3 N          67.2560   -0.0300   -9.8450 N.am      5 SEP2        0.0000 
      4 N          66.6425    1.0825   -7.7290 N.am      2 SEC2        0.0000 
      5 N          65.2610    1.2330   -8.0140 N.am      8 SEL2        0.0000 
      6 N          68.0240    0.9320   -7.4440 N.am      5 SEP2        0.0000 
      7 O          62.8665    2.9035   -7.3980 O.2       1 ALC1        0.0000 
      8 O          63.4470    2.7080   -8.6480 O.2       7 ALL1        0.0000 
      9 O          62.2860    3.0990   -6.1480 O.2       4 ALP1        0.0000 
     10 N          60.2950    3.9290   -8.8945 N.am      2 SEC2        0.0000 
     11 N          61.6280    4.1680   -9.2400 N.am      8 SEL2        0.0000 
     12 N          58.9620    3.6900   -8.5490 N.am      5 SEP2        0.0000 
     13 N          60.9270    4.0815  -11.6425 N.am      2 SEC2        0.0000 
     14 N          62.4640    4.0180  -11.9720 N.am      8 SEL2        0.0000 
     15 N          59.3900    4.1450  -11.3130 N.am      5 SEP2        0.0000 
     16 CA         60.5305    5.5770  -13.7825 C.3       3 GLC5        0.0000 
     17 CA         62.1980    4.5740  -14.3070 C.3       9 GLL5        0.0000 
     18 CA         58.8630    6.5800  -13.2580 C.3       6 GLP5        0.0000 
     19 CA         61.0270    3.3515  -17.1415 C.3       3 GLC5        0.0000 
     20 CA         61.8670    5.1790  -16.7420 C.3       9 GLL5        0.0000 
     21 CA         60.1870    1.5240  -17.5410 C.3       6 GLP5        0.0000 
     22 CA         62.8080    2.2105  -17.3630 C.3       3 GLC5        0.0000 
     23 CA         64.2250    3.5480  -17.3850 C.3       9 GLL5        0.0000 
     24 CA         61.3910    0.8730  -17.3410 C.3       6 GLP5        0.0000 
     25 CA         67.2135    1.1375  -11.3240 C.3       3 GLC5        0.0000 
     26 CA         65.9130    1.5930  -12.8520 C.3       9 GLL5        0.0000 
     27 CA         68.5140    0.6820   -9.7960 C.3       6 GLP5        0.0000 
     28 CA         66.4680    3.3415  -11.8990 C.3       3 GLC5        0.0000 
     29 CA         67.0230    5.0900  -10.9460 C.3       6 GLP5        0.0000 
     30 O          63.3085    0.1950  -12.1440 O.2       1 ALC1        0.0000 
     31 O          64.5810   -0.3960  -12.4140 O.2       7 ALL1        0.0000 
     32 O          62.0360    0.7860  -11.8740 O.2       4 ALP1        0.0000 
     33 CA         67.6140   -0.0020  -11.6450 C.3       3 GLC5        0.0000 
     34 CA         66.7140   -0.6860  -13.4940 C.3       9 GLL5        0.0000 
     35 CA         66.1665   -3.9980  -12.8475 C.3       3 GLC5        0.0000 
     36 CA         66.1960   -2.0650  -13.9090 C.3       9 GLL5        0.0000 
     37 CA         66.1370   -5.9310  -11.7860 C.3       6 GLP5        0.0000 
     38 N          68.3685   -3.1410  -14.3165 N.am      2 SEC2        0.0000 
     39 N          67.1200   -3.0510  -13.5720 N.am      8 SEL2        0.0000 
     40 N          69.6170   -3.2310  -15.0610 N.am      5 SEP2        0.0000 
     41 O          66.3380   -4.1945  -13.2615 O.2       1 ALC1        0.0000 
     42 O          67.1200   -3.0510  -13.5720 O.2       7 ALL1        0.0000 
     43 O          65.5560   -5.3380  -12.9510 O.2       4 ALP1        0.0000 
     44 N          64.6935   -4.8785  -15.3400 N.am      2 SEC2        0.0000 
     45 N          65.6320   -3.4590  -15.7140 N.am      8 SEL2        0.0000 
     46 N          63.7550   -6.2980  -14.9660 N.am      5 SEP2        0.0000 
     47 N          67.1330   -5.5705  -18.0145 N.am      2 SEC2        0.0000 
     48 N          66.7840   -4.1920  -17.8960 N.am      8 SEL2        0.0000 
     49 N          67.4820   -6.9490  -18.1330 N.am      5 SEP2        0.0000 
     50 N          63.7230   -4.4200  -18.3580 N.am      2 SEC2        0.0000 
     51 N          64.7890   -5.2970  -17.3340 N.am      8 SEL2        0.0000 
     52 N          62.6570   -3.5430  -19.3820 N.am      5 SEP2        0.0000 
     53 N          64.4665   -6.1380  -18.1130 N.am      2 SEC2        0.0000 
     54 N          64.1440   -6.9790  -18.8920 N.am      5 SEP2        0.0000 
     55 N          65.2885   -6.5990  -16.7885 N.am      2 SEC2        0.0000 
     56 N          65.7880   -7.9010  -16.2430 N.am      5 SEP2        0.0000 
     57 N          64.2720   -5.7975  -16.1500 N.am      2 SEC2        0.0000 
     58 N          63.6775   -3.2955  -18.7255 N.am      2 SEC2        0.0000 
     59 N          64.6980   -3.0480  -18.0690 N.am      8 SEL2        0.0000 
     60 CA         61.1140    3.1728  -13.2070 C.3       3 GLC5        0.0000 
     61 CA         62.9060    3.8950  -13.3010 C.3       9 GLL5        0.0000 
     62 CA         59.6760    2.1110  -12.6100 C.3       6 GLP5        0.0000 
     63 CA         65.9627    4.1580  -13.9910 C.3       3 GLC5        0.0000 
     64 CA         64.0360    3.1100  -13.6280 C.3       9 GLL5        0.0000 
     65 CA         67.6830    5.2590  -13.6970 C.3       6 GLP5        0.0000 
     66 CA         68.2670   -1.8133  -13.2927 C.3       3 GLC5        0.0000 
     67 CA         70.0790   -2.2510  -12.8840 C.3       6 GLP5        0.0000 
     68 CA         64.2357   -2.5452  -14.5998 C.3       3 GLC5        0.0000 
     69 CA         62.4070   -3.0060  -14.5420 C.3       6 GLP5        0.0000 
     70 CA         65.9836   -1.5591  -11.6844 C.3       3 GLC5        0.0000 
     71 CA         65.8210   -1.9640   -9.7120 C.3       6 GLP5        0.0000 
@<TRIPOS>BOND
@<TRIPOS>SUBSTRUCTURE
     1 ALC1        7 GROUP        1 X    ALC  0     ROOT ALC X 1
     2 SEC2        1 GROUP        1 X    SEC  0     **** SEC X 2
     3 GLC5       16 GROUP        1 X    GLC  0     **** GLC X 6
     4 ALP1        9 GROUP        1 Y    ALP  0     ROOT ALP Y 8
     5 SEP2        3 GROUP        1 Y    SEP  0     **** SEP Y 9
     6 GLP5       18 GROUP        1 Y    GLP  0     **** GLP Y 13
     7 ALL1        8 GROUP        1 Z    ALL  0     ROOT ALL Z 15
     8 SEL2        2 GROUP        1 Z    SEL  0     **** SEL Z 16
     9 GLL5       17 GROUP        1 Z    GLL  0     **** GLL Z 20
@<TRIPOS>SET

