#    Name: 4ltm_FMN_1_ligand
#    Modification time : Tue Apr  8 00:09:28 2014

@<TRIPOS>MOLECULE
4ltm_FMN_1_ligand
   50    52     1     0     0
SMALL
NO_CHARGES


@<TRIPOS>ATOM
      1 N1         64.9970    1.8890  -10.3670 N.2       1 FMN201      0.0000 
      2 C2         64.5640    1.9450   -8.9920 C.2       1 FMN201      0.0000 
      3 O2         65.2610    1.2330   -8.0140 O.2       1 FMN201      0.0000 
      4 N3         63.4470    2.7080   -8.6480 N.am      1 FMN201      0.0000 
      5 C4         62.7530    3.4160   -9.5910 C.2       1 FMN201      0.0000 
      6 O4         61.6280    4.1680   -9.2400 O.2       1 FMN201      0.0000 
      7 C4A        63.1780    3.3450  -10.9990 C.2       1 FMN201      0.0000 
      8 N5         62.4640    4.0180  -11.9720 N.2       1 FMN201      0.0000 
      9 C5A        62.9060    3.8950  -13.3010 C.ar      1 FMN201      0.0000 
     10 C6         62.1980    4.5740  -14.3070 C.ar      1 FMN201      0.0000 
     11 C7         62.6270    4.4510  -15.6330 C.ar      1 FMN201      0.0000 
     12 C7M        61.8670    5.1790  -16.7420 C.3       1 FMN201      0.0000 
     13 C8         63.7500    3.6740  -15.9470 C.ar      1 FMN201      0.0000 
     14 C8M        64.2250    3.5480  -17.3850 C.3       1 FMN201      0.0000 
     15 C9         64.4490    3.0040  -14.9420 C.ar      1 FMN201      0.0000 
     16 C9A        64.0360    3.1100  -13.6280 C.ar      1 FMN201      0.0000 
     17 N10        64.7440    2.4310  -12.6090 N.pl3     1 FMN201      0.0000 
     18 C10        64.2850    2.5720  -11.3290 C.2       1 FMN201      0.0000 
     19 C1'        65.9130    1.5930  -12.8520 C.3       1 FMN201      0.0000 
     20 C2'        65.4790    0.1990  -13.3150 C.3       1 FMN201      0.0000 
     21 O2'        64.5810   -0.3960  -12.4140 O.3       1 FMN201      0.0000 
     22 C3'        66.7140   -0.6860  -13.4940 C.3       1 FMN201      0.0000 
     23 O3'        67.4790   -0.2260  -14.3350 O.3       1 FMN201      0.0000 
     24 C4'        66.1960   -2.0650  -13.9090 C.3       1 FMN201      0.0000 
     25 O4'        67.1200   -3.0510  -13.5720 O.3       1 FMN201      0.0000 
     26 C5'        65.9330   -2.1040  -15.4060 C.3       1 FMN201      0.0000 
     27 O5'        65.6320   -3.4590  -15.7140 O.3       1 FMN201      0.0000 
     28 P          65.4800   -3.9800  -17.2180 P.3       1 FMN201      0.0000 
     29 O1P        66.7840   -4.1920  -17.8960 O.co2     1 FMN201      0.0000 
     30 O2P        64.7890   -5.2970  -17.3340 O.co2     1 FMN201      0.0000 
     31 O3P        64.6980   -3.0480  -18.0690 O.co2     1 FMN201      0.0000 
     32 H          63.1460    2.7311   -7.6528 H         1 FMN201      0.0000 
     33 H          61.3897    5.1432  -14.0730 H         1 FMN201      0.0000 
     34 H          65.2693    2.4339  -15.1856 H         1 FMN201      0.0000 
     35 H          66.5103    1.4787  -11.9426 H         1 FMN201      0.0000 
     36 H          66.5519    2.0254  -13.6277 H         1 FMN201      0.0000 
     37 H          65.0287    0.3156  -14.3069 H         1 FMN201      0.0000 
     38 H          67.1187   -0.8250  -12.4786 H         1 FMN201      0.0000 
     39 H          65.2433   -2.2202  -13.4049 H         1 FMN201      0.0000 
     40 H          66.8231   -1.7568  -15.9144 H         1 FMN201      0.0000 
     41 H          65.1043   -1.4417  -15.6207 H         1 FMN201      0.0000 
     42 H          61.8660    6.1693  -16.6033 H         1 FMN201      0.0000 
     43 H          62.2699    5.0094  -17.6414 H         1 FMN201      0.0000 
     44 H          60.9112    4.8888  -16.7895 H         1 FMN201      0.0000 
     45 H          64.4642    4.4366  -17.7763 H         1 FMN201      0.0000 
     46 H          65.0359    2.9674  -17.4588 H         1 FMN201      0.0000 
     47 H          63.5232    3.1476  -17.9742 H         1 FMN201      0.0000 
     48 H          63.7683    0.1862  -12.4363 H         1 FMN201      0.0000 
     49 H          68.2757    0.0856  -13.8171 H         1 FMN201      0.0000 
     50 H          66.5897   -3.8976  -13.5257 H         1 FMN201      0.0000 
@<TRIPOS>BOND
     1    2    1 1    
     2   18    1 2    
     3    3    2 2    
     4    4    2 am   
     5    5    4 am   
     6   32    4 1    
     7    6    5 2    
     8    7    5 1    
     9    8    7 2    
    10   18    7 1    
    11    9    8 1    
    12   10    9 ar   
    13   16    9 ar   
    14   11   10 ar   
    15   33   10 1    
    16   12   11 1    
    17   13   11 ar   
    18   42   12 1    
    19   43   12 1    
    20   44   12 1    
    21   14   13 1    
    22   15   13 ar   
    23   45   14 1    
    24   46   14 1    
    25   47   14 1    
    26   16   15 ar   
    27   34   15 1    
    28   17   16 1    
    29   18   17 1    
    30   19   17 1    
    31   20   19 1    
    32   35   19 1    
    33   36   19 1    
    34   21   20 1    
    35   22   20 1    
    36   37   20 1    
    37   48   21 1    
    38   23   22 1    
    39   24   22 1    
    40   38   22 1    
    41   49   23 1    
    42   25   24 1    
    43   26   24 1    
    44   39   24 1    
    45   50   25 1    
    46   27   26 1    
    47   40   26 1    
    48   41   26 1    
    49   28   27 1    
    50   29   28 ar   
    51   30   28 ar   
    52   31   28 ar   
@<TRIPOS>SUBSTRUCTURE
     1 FMN201      1 GROUP   
@<TRIPOS>SET

