#    Name: 2xbm_SAH_2_INTS_M
#    Modification time : Tue Mar 25 05:48:55 2014

@<TRIPOS>MOLECULE
2xbm_SAH_2_INTS_M
   46     0     9     0     0
SMALL
NO_CHARGES


@<TRIPOS>ATOM
      1 CA        -43.8790  -27.1080  -29.7590 C.3       3 GLC5        0.0000 
      2 CA        -44.5300  -28.5530  -28.2680 C.3       9 GLL5        0.0000 
      3 CA        -43.2280  -25.6630  -31.2500 C.3       6 GLP5        0.0000 
      4 N         -46.8990  -30.5100  -32.5890 N.am      2 SEC2        0.0000 
      5 N         -46.4500  -29.5850  -31.6420 N.am      8 SEL2        0.0000 
      6 N         -47.3480  -31.4350  -33.5360 N.am      5 SEP2        0.0000 
      7 CA        -43.8385  -26.9775  -23.9395 C.3       3 GLC5        0.0000 
      8 CA        -43.2910  -27.5470  -26.0290 C.3       9 GLL5        0.0000 
      9 CA        -44.3860  -26.4080  -21.8500 C.3       6 GLP5        0.0000 
     10 CA        -43.5690  -24.8815  -26.5230 C.3       3 GLC5        0.0000 
     11 CA        -42.4240  -26.4910  -26.6830 C.3       9 GLL5        0.0000 
     12 CA        -44.7140  -23.2720  -26.3630 C.3       6 GLP5        0.0000 
     13 CA        -42.8255  -24.1055  -26.3175 C.3       3 GLC5        0.0000 
     14 CA        -40.9370  -24.9390  -26.2720 C.3       9 GLL5        0.0000 
     15 CA        -39.3960  -23.5295  -26.5665 C.3       3 GLC5        0.0000 
     16 CA        -37.8550  -22.1200  -26.8610 C.3       6 GLP5        0.0000 
     17 CA        -39.4590  -19.5390  -23.5255 C.3       3 GLC5        0.0000 
     18 CA        -40.1290  -21.6330  -23.0640 C.3       9 GLL5        0.0000 
     19 CA        -38.7890  -17.4450  -23.9870 C.3       6 GLP5        0.0000 
     20 CA        -41.6905  -20.1565  -22.9360 C.3       3 GLC5        0.0000 
     21 CA        -43.2520  -18.6800  -22.8080 C.3       6 GLP5        0.0000 
     22 O         -39.0815  -20.1165  -21.7210 O.2       1 ALC1        0.0000 
     23 O         -39.6890  -21.4480  -21.8630 O.2       7 ALL1        0.0000 
     24 O         -38.4740  -18.7850  -21.5790 O.2       4 ALP1        0.0000 
     25 N         -40.7545  -19.2395  -23.3895 N.am      2 SEC2        0.0000 
     26 N         -40.5640  -20.6420  -23.7780 N.am      8 SEL2        0.0000 
     27 N         -40.9450  -17.8370  -23.0010 N.am      5 SEP2        0.0000 
     28 CA        -41.5060  -20.8310  -26.9300 C.3       3 GLC5        0.0000 
     29 CA        -41.0100  -20.8390  -24.9740 C.3       9 GLL5        0.0000 
     30 CA        -42.0020  -20.8230  -28.8860 C.3       6 GLP5        0.0000 
     31 CA        -39.6835  -20.9370  -26.3930 C.3       3 GLC5        0.0000 
     32 CA        -38.3570  -21.0350  -27.8120 C.3       6 GLP5        0.0000 
     33 CA        -39.8995  -19.1420  -24.4805 C.3       3 GLC5        0.0000 
     34 CA        -42.3605  -19.7615  -24.6150 C.3       3 GLC5        0.0000 
     35 CA        -43.7110  -18.6840  -24.2560 C.3       6 GLP5        0.0000 
     36 CA        -42.4480  -21.6845  -23.5660 C.3       3 GLC5        0.0000 
     37 CA        -43.8860  -22.5300  -22.1580 C.3       6 GLP5        0.0000 
     38 CA        -42.6725  -23.1600  -25.5855 C.3       3 GLC5        0.0000 
     39 CA        -40.6310  -23.0480  -24.8080 C.3       9 GLL5        0.0000 
     40 CA        -39.2430  -22.5840  -25.8345 C.3       3 GLC5        0.0000 
     41 CA        -42.2860  -23.5270  -23.6810 C.3       3 GLC5        0.0000 
     42 CA        -43.9410  -24.0060  -22.5540 C.3       6 GLP5        0.0000 
     43 CA        -38.4382  -22.9657  -23.8563 C.3       3 GLC5        0.0000 
     44 CA        -40.1720  -22.8740  -23.5690 C.3       9 GLL5        0.0000 
     45 CA        -36.7260  -23.6780  -24.3960 C.3       6 GLP5        0.0000 
     46 CA        -42.0182  -22.3917  -22.7373 C.3       3 GLC5        0.0000 
@<TRIPOS>BOND
@<TRIPOS>SUBSTRUCTURE
     1 ALC1       22 GROUP        1 X    ALC  0     ROOT ALC X 1
     2 SEC2        4 GROUP        1 X    SEC  0     **** SEC X 2
     3 GLC5        1 GROUP        1 X    GLC  0     **** GLC X 6
     4 ALP1       24 GROUP        1 Y    ALP  0     ROOT ALP Y 8
     5 SEP2        6 GROUP        1 Y    SEP  0     **** SEP Y 9
     6 GLP5        3 GROUP        1 Y    GLP  0     **** GLP Y 13
     7 ALL1       23 GROUP        1 Z    ALL  0     ROOT ALL Z 15
     8 SEL2        5 GROUP        1 Z    SEL  0     **** SEL Z 16
     9 GLL5        2 GROUP        1 Z    GLL  0     **** GLL Z 20
@<TRIPOS>SET

