#    Name: 2xbm_SAH_2_ligand
#    Modification time : Tue Mar 25 05:48:55 2014

@<TRIPOS>MOLECULE
2xbm_SAH_2_ligand
   46    48     1     0     0
SMALL
NO_CHARGES


@<TRIPOS>ATOM
      1 N         -47.8830  -28.5150  -28.5710 N.4       1 SAH268      0.0000 
      2 CA        -46.7590  -28.7140  -29.5190 C.3       1 SAH268      0.0000 
      3 CB        -45.6940  -29.4310  -28.8120 C.3       1 SAH268      0.0000 
      4 CG        -44.5300  -28.5530  -28.2680 C.3       1 SAH268      0.0000 
      5 SD        -43.6070  -29.2850  -26.9730 S.3       1 SAH268      0.0000 
      6 C         -47.2030  -29.3920  -30.7810 C.2       1 SAH268      0.0000 
      7 O         -48.3530  -29.7060  -30.9550 O.co2     1 SAH268      0.0000 
      8 OXT       -46.4500  -29.5850  -31.6420 O.co2     1 SAH268      0.0000 
      9 C5'       -43.2910  -27.5470  -26.0290 C.3       1 SAH268      0.0000 
     10 C4'       -42.4240  -26.4910  -26.6830 C.3       1 SAH268      0.0000 
     11 O4'       -42.0990  -25.4690  -25.8370 O.3       1 SAH268      0.0000 
     12 C3'       -41.1200  -27.0230  -27.1330 C.3       1 SAH268      0.0000 
     13 O3'       -40.9940  -26.6300  -28.4390 O.3       1 SAH268      0.0000 
     14 C2'       -40.1340  -26.1690  -26.4520 C.3       1 SAH268      0.0000 
     15 O2'       -39.2060  -25.9180  -27.4620 O.3       1 SAH268      0.0000 
     16 C1'       -40.9370  -24.9390  -26.2720 C.3       1 SAH268      0.0000 
     17 N9        -40.5380  -24.3070  -25.0700 N.pl3     1 SAH268      0.0000 
     18 C8        -40.0520  -24.9060  -24.0240 C.2       1 SAH268      0.0000 
     19 N7        -39.8130  -24.0180  -23.1010 N.2       1 SAH268      0.0000 
     20 C5        -40.1720  -22.8740  -23.5690 C.ar      1 SAH268      0.0000 
     21 C6        -40.1290  -21.6330  -23.0640 C.ar      1 SAH268      0.0000 
     22 N6        -39.6890  -21.4480  -21.8630 N.pl3     1 SAH268      0.0000 
     23 N1        -40.5640  -20.6420  -23.7780 N.ar      1 SAH268      0.0000 
     24 C2        -41.0100  -20.8390  -24.9740 C.ar      1 SAH268      0.0000 
     25 N3        -41.0360  -22.0190  -25.4920 N.ar      1 SAH268      0.0000 
     26 C4        -40.6310  -23.0480  -24.8080 C.ar      1 SAH268      0.0000 
     27 H         -46.3768  -27.7088  -29.7857 H         1 SAH268      0.0000 
     28 H         -45.2378  -30.2050  -29.4725 H         1 SAH268      0.0000 
     29 H         -46.1104  -29.9947  -27.9446 H         1 SAH268      0.0000 
     30 H         -44.8923  -27.6263  -27.8433 H         1 SAH268      0.0000 
     31 H         -43.7936  -28.3457  -29.0330 H         1 SAH268      0.0000 
     32 H         -42.9120  -27.9623  -25.0859 H         1 SAH268      0.0000 
     33 H         -44.3431  -27.2747  -25.8728 H         1 SAH268      0.0000 
     34 H         -42.9465  -26.1155  -27.5678 H         1 SAH268      0.0000 
     35 H         -40.9960  -27.9933  -26.9315 H         1 SAH268      0.0000 
     36 H         -39.8087  -26.5613  -25.6056 H         1 SAH268      0.0000 
     37 H         -40.9861  -24.3661  -27.0729 H         1 SAH268      0.0000 
     38 H         -39.8895  -25.8766  -23.9404 H         1 SAH268      0.0000 
     39 H         -40.2204  -21.8717  -21.1295 H         1 SAH268      0.0000 
     40 H         -38.8579  -20.8982  -21.7787 H         1 SAH268      0.0000 
     41 H         -41.3643  -20.0063  -25.5446 H         1 SAH268      0.0000 
     42 H         -47.6059  -27.9789  -27.7737 H         1 SAH268      0.0000 
     43 H         -48.6476  -28.0319  -28.9977 H         1 SAH268      0.0000 
     44 H         -48.2395  -29.3848  -28.2299 H         1 SAH268      0.0000 
     45 H         -40.2802  -25.9297  -28.4307 H         1 SAH268      0.0000 
     46 H         -39.0598  -24.9290  -27.4390 H         1 SAH268      0.0000 
@<TRIPOS>BOND
     1    2    1 1    
     2   42    1 1    
     3   43    1 1    
     4   44    1 1    
     5    3    2 1    
     6    6    2 1    
     7   27    2 1    
     8    4    3 1    
     9   28    3 1    
    10   29    3 1    
    11    5    4 1    
    12   30    4 1    
    13   31    4 1    
    14    9    5 1    
    15    7    6 ar   
    16    8    6 ar   
    17   10    9 1    
    18   32    9 1    
    19   33    9 1    
    20   11   10 1    
    21   12   10 1    
    22   34   10 1    
    23   16   11 1    
    24   13   12 1    
    25   14   12 1    
    26   35   12 1    
    27   45   13 1    
    28   15   14 1    
    29   16   14 1    
    30   36   14 1    
    31   46   15 1    
    32   17   16 1    
    33   37   16 1    
    34   18   17 1    
    35   26   17 1    
    36   19   18 2    
    37   38   18 1    
    38   20   19 1    
    39   21   20 ar   
    40   26   20 ar   
    41   22   21 1    
    42   23   21 ar   
    43   39   22 1    
    44   40   22 1    
    45   24   23 ar   
    46   25   24 ar   
    47   41   24 1    
    48   26   25 ar   
@<TRIPOS>SUBSTRUCTURE
     1 SAH268      1 GROUP   
@<TRIPOS>SET

