#    Name: 1sow_NAD_2_INTS_M
#    Modification time : Tue Mar 25 02:36:13 2014

@<TRIPOS>MOLECULE
1sow_NAD_2_INTS_M
   95     0     9     0     0
SMALL
NO_CHARGES


@<TRIPOS>ATOM
      1 N          50.7810   72.2710   12.8750 N.am      2 SEC2        0.0000 
      2 N          51.7060   71.9730   11.7990 N.am      8 SEL2        0.0000 
      3 N          49.8560   72.5690   13.9510 N.am      5 SEP2        0.0000 
      4 CA         53.7700   77.6165   13.0290 C.3       3 GLC5        0.0000 
      5 CA         53.7810   76.0810   11.4990 C.3       9 GLL5        0.0000 
      6 CA         53.7590   79.1520   14.5590 C.3       6 GLP5        0.0000 
      7 N          56.5015   76.7565   11.5490 N.am      2 SEC2        0.0000 
      8 N          54.8130   77.1670   11.4670 N.am      8 SEL2        0.0000 
      9 N          58.1900   76.3460   11.6310 N.am      5 SEP2        0.0000 
     10 CA         51.5505   75.5750   11.6280 C.3       3 GLC5        0.0000 
     11 CA         52.9540   76.3190   10.1580 C.3       9 GLL5        0.0000 
     12 CA         50.1470   74.8310   13.0980 C.3       6 GLP5        0.0000 
     13 O          51.6175   78.0990   11.0105 O.2       1 ALC1        0.0000 
     14 O          51.6880   76.8960   10.4770 O.2       7 ALL1        0.0000 
     15 O          51.5470   79.3020   11.5440 O.2       4 ALP1        0.0000 
     16 O          52.5790   79.2505    9.0815 O.2       1 ALC1        0.0000 
     17 O          53.1380   78.0720    8.4520 O.2       7 ALL1        0.0000 
     18 O          52.0200   80.4290    9.7110 O.2       4 ALP1        0.0000 
     19 CA         54.1395   78.6110   12.4910 C.3       3 GLC5        0.0000 
     20 CA         54.5200   78.0700   10.4230 C.3       9 GLL5        0.0000 
     21 CA         55.9960   77.9545   11.9175 C.3       3 GLC5        0.0000 
     22 CA         57.4720   77.8390   13.4120 C.3       6 GLP5        0.0000 
     23 CA         56.6775   82.7945    9.0755 C.3       3 GLC5        0.0000 
     24 CA         57.6150   81.7710    9.9850 C.3       9 GLL5        0.0000 
     25 CA         55.7400   83.8180    8.1660 C.3       6 GLP5        0.0000 
     26 O          58.9215   83.9800    9.5565 O.2       1 ALC1        0.0000 
     27 O          58.6730   82.3540    9.3690 O.2       7 ALL1        0.0000 
     28 O          59.1700   85.6060    9.7440 O.2       4 ALP1        0.0000 
     29 CA         56.3920   82.3695   13.7645 C.3       3 GLC5        0.0000 
     30 CA         55.9090   82.0210   11.7230 C.3       9 GLL5        0.0000 
     31 CA         56.8750   82.7180   15.8060 C.3       6 GLP5        0.0000 
     32 CA         53.9385   82.3390   11.7505 C.3       3 GLC5        0.0000 
     33 CA         51.9680   82.6570   11.7780 C.3       6 GLP5        0.0000 
     34 CA         55.8245   82.9195    9.9445 C.3       3 GLC5        0.0000 
     35 CA         56.8940   80.6760   12.5315 C.3       3 GLC5        0.0000 
     36 CA         57.8790   79.3310   13.3400 C.3       6 GLP5        0.0000 
     37 N          52.0790   72.1610   15.6595 N.am      2 SEC2        0.0000 
     38 N          53.2190   72.3400   14.7210 N.am      8 SEL2        0.0000 
     39 N          50.9390   71.9820   16.5980 N.am      5 SEP2        0.0000 
     40 CA         55.8490   73.8325   15.7705 C.3       3 GLC5        0.0000 
     41 CA         56.1690   72.3430   14.5980 C.3       9 GLL5        0.0000 
     42 CA         55.5290   75.3220   16.9430 C.3       6 GLP5        0.0000 
     43 CA         56.1050   70.8295   13.0755 C.3       3 GLC5        0.0000 
     44 CA         56.0410   69.3160   11.5530 C.3       6 GLP5        0.0000 
     45 CA         57.2860   73.9945   15.7180 C.3       3 GLC5        0.0000 
     46 CA         57.6400   72.0710   14.7650 C.3       9 GLL5        0.0000 
     47 CA         56.9320   75.9180   16.6710 C.3       6 GLP5        0.0000 
     48 N          60.9595   71.7950   14.3205 N.am      2 SEC2        0.0000 
     49 N          59.6460   71.8450   13.3030 N.am      8 SEL2        0.0000 
     50 N          62.2730   71.7450   15.3380 N.am      5 SEP2        0.0000 
     51 O          59.7165   71.5275   11.9350 O.2       1 ALC1        0.0000 
     52 O          59.6460   71.8450   13.3030 O.2       7 ALL1        0.0000 
     53 O          59.7870   71.2100   10.5670 O.2       4 ALP1        0.0000 
     54 N          60.4785   68.4710   14.7440 N.am      2 SEC2        0.0000 
     55 N          59.5170   69.0760   13.6940 N.am      8 SEL2        0.0000 
     56 N          61.4400   67.8660   15.7940 N.am      5 SEP2        0.0000 
     57 CA         56.8085   70.2930   16.6870 C.3       3 GLC5        0.0000 
     58 CA         58.7790   70.2300   15.6620 C.3       9 GLL5        0.0000 
     59 CA         54.8380   70.3560   17.7120 C.3       6 GLP5        0.0000 
     60 CA         58.3595   71.1585   17.6090 C.3       3 GLC5        0.0000 
     61 CA         57.9400   72.0870   19.5560 C.3       6 GLP5        0.0000 
     62 CA         59.9205   71.9440   15.9670 C.3       3 GLC5        0.0000 
     63 CA         61.0620   73.6580   16.2720 C.3       6 GLP5        0.0000 
     64 CA         60.8670   69.8285   15.1840 C.3       3 GLC5        0.0000 
     65 CA         62.9550   69.4270   14.7060 C.3       6 GLP5        0.0000 
     66 O          60.9030   70.5570   19.2465 O.2       1 ALC1        0.0000 
     67 O          61.0560   69.2950   20.1110 O.2       7 ALL1        0.0000 
     68 O          60.7500   71.8190   18.3820 O.2       4 ALP1        0.0000 
     69 O          61.3425   69.8630   21.4430 O.2       1 ALC1        0.0000 
     70 O          61.6290   70.4310   22.7750 O.2       4 ALP1        0.0000 
     71 CA         57.9580   66.2480   20.3080 C.3       3 GLC5        0.0000 
     72 CA         58.0760   67.3830   18.8240 C.3       9 GLL5        0.0000 
     73 CA         57.8400   65.1130   21.7920 C.3       6 GLP5        0.0000 
     74 CA         52.1193   75.1058   12.3483 C.3       3 GLC5        0.0000 
     75 CA         54.4020   74.6800   11.6980 C.3       9 GLL5        0.0000 
     76 CA         55.4943   81.0260    8.7870 C.3       3 GLC5        0.0000 
     77 CA         55.9550   80.0650   10.4260 C.3       9 GLL5        0.0000 
     78 CA         54.4800   81.7630    7.5130 C.3       6 GLP5        0.0000 
     79 CA         58.9693   80.4275   10.4763 C.3       3 GLC5        0.0000 
     80 CA         57.0620   80.5130    9.6960 C.3       9 GLL5        0.0000 
     81 CA         60.6000   79.7130   11.1120 C.3       6 GLP5        0.0000 
     82 CA         57.2629   79.9673   11.7366 C.3       3 GLC5        0.0000 
     83 CA         55.8713   71.2815   16.1968 C.3       3 GLC5        0.0000 
     84 CA         59.5297   72.6567   15.2340 C.3       3 GLC5        0.0000 
     85 CA         57.2287   69.9338   12.7500 C.3       3 GLC5        0.0000 
     86 CA         58.3550   71.2400   13.6270 C.3       9 GLL5        0.0000 
     87 CA         58.6105   70.4490   18.9695 C.3       3 GLC5        0.0000 
     88 CA         59.3900   69.2660   17.8760 C.3       9 GLL5        0.0000 
     89 CA         58.3580   68.7027   20.7635 C.3       3 GLC5        0.0000 
     90 CA         59.1720   68.3560   18.8900 C.3       9 GLL5        0.0000 
     91 CA         58.0920   69.5360   22.6700 C.3       6 GLP5        0.0000 
     92 CA         56.1658   66.9617   19.3788 C.3       3 GLC5        0.0000 
     93 CA         54.6830   66.5240   20.5130 C.3       6 GLP5        0.0000 
     94 CA         56.0842   69.1220   17.4210 C.3       3 GLC5        0.0000 
     95 CA         57.2210   67.4160   17.6650 C.3       9 GLL5        0.0000 
@<TRIPOS>BOND
@<TRIPOS>SUBSTRUCTURE
     1 ALC1       13 GROUP        1 X    ALC  0     ROOT ALC X 1
     2 SEC2        1 GROUP        1 X    SEC  0     **** SEC X 2
     3 GLC5        4 GROUP        1 X    GLC  0     **** GLC X 6
     4 ALP1       15 GROUP        1 Y    ALP  0     ROOT ALP Y 8
     5 SEP2        3 GROUP        1 Y    SEP  0     **** SEP Y 9
     6 GLP5        6 GROUP        1 Y    GLP  0     **** GLP Y 13
     7 ALL1       14 GROUP        1 Z    ALL  0     ROOT ALL Z 15
     8 SEL2        2 GROUP        1 Z    SEL  0     **** SEL Z 16
     9 GLL5        5 GROUP        1 Z    GLL  0     **** GLL Z 20
@<TRIPOS>SET

