#    Name: 1sow_NAD_2_ligand
#    Modification time : Tue Mar 25 02:36:13 2014

@<TRIPOS>MOLECULE
1sow_NAD_2_ligand
   69    73     1     0     0
SMALL
NO_CHARGES


@<TRIPOS>ATOM
      1 PA         53.0290   72.4010   11.4670 P.3       1 NAD501      0.0000 
      2 O1A        51.7060   71.9730   11.7990 O.co2     1 NAD501      0.0000 
      3 O2A        53.4860   72.1520   10.0600 O.co2     1 NAD501      0.0000 
      4 O5B        53.1480   73.9450   11.7800 O.3       1 NAD501      0.0000 
      5 C5B        54.4020   74.6800   11.6980 C.3       1 NAD501      0.0000 
      6 C4B        53.7810   76.0810   11.4990 C.3       1 NAD501      0.0000 
      7 O4B        54.8130   77.1670   11.4670 O.3       1 NAD501      0.0000 
      8 C3B        52.9540   76.3190   10.1580 C.3       1 NAD501      0.0000 
      9 O3B        51.6880   76.8960   10.4770 O.3       1 NAD501      0.0000 
     10 C2B        53.8540   77.2350    9.3370 C.3       1 NAD501      0.0000 
     11 O2B        53.1380   78.0720    8.4520 O.3       1 NAD501      0.0000 
     12 C1B        54.5200   78.0700   10.4230 C.3       1 NAD501      0.0000 
     13 N9A        55.6440   78.8440    9.9180 N.pl3     1 NAD501      0.0000 
     14 C8A        56.5760   78.5960    8.9090 C.2       1 NAD501      0.0000 
     15 N7A        57.4440   79.5640    8.7390 N.2       1 NAD501      0.0000 
     16 C5A        57.0620   80.5130    9.6960 C.ar      1 NAD501      0.0000 
     17 C6A        57.6150   81.7710    9.9850 C.ar      1 NAD501      0.0000 
     18 N6A        58.6730   82.3540    9.3690 N.pl3     1 NAD501      0.0000 
     19 N1A        57.0150   82.5190   11.0190 N.ar      1 NAD501      0.0000 
     20 C2A        55.9090   82.0210   11.7230 C.ar      1 NAD501      0.0000 
     21 N3A        55.3430   80.7850   11.4500 N.ar      1 NAD501      0.0000 
     22 C4A        55.9550   80.0650   10.4260 C.ar      1 NAD501      0.0000 
     23 O3         54.0390   71.7160   12.4780 O.3       1 NAD501      0.0000 
     24 PN         53.9000   71.2320   13.9900 P.3       1 NAD501      0.0000 
     25 O1N        53.2920   69.8870   14.0420 O.co2     1 NAD501      0.0000 
     26 O2N        53.2190   72.3400   14.7210 O.co2     1 NAD501      0.0000 
     27 O5D        55.4350   71.1040   14.3930 O.3       1 NAD501      0.0000 
     28 C5D        56.1690   72.3430   14.5980 C.3       1 NAD501      0.0000 
     29 C4D        57.6400   72.0710   14.7650 C.3       1 NAD501      0.0000 
     30 O4D        57.9120   71.3450   15.9860 O.3       1 NAD501      0.0000 
     31 C3D        58.3550   71.2400   13.6270 C.3       1 NAD501      0.0000 
     32 O3D        59.6460   71.8450   13.3030 O.3       1 NAD501      0.0000 
     33 C2D        58.4780   69.8630   14.2670 C.3       1 NAD501      0.0000 
     34 O2D        59.5170   69.0760   13.6940 O.3       1 NAD501      0.0000 
     35 C1D        58.7790   70.2300   15.6620 C.3       1 NAD501      0.0000 
     36 N1N        58.5420   69.2640   16.7490 N.pl3     1 NAD501      0.0000 
     37 C2N        59.3900   69.2660   17.8760 C.ar      1 NAD501      0.0000 
     38 C3N        59.1720   68.3560   18.8900 C.ar      1 NAD501      0.0000 
     39 C7N        60.1200   68.3990   20.0690 C.2       1 NAD501      0.0000 
     40 O7N        59.9720   67.5640   20.9370 O.2       1 NAD501      0.0000 
     41 N7N        61.0560   69.2950   20.1110 N.am      1 NAD501      0.0000 
     42 C4N        58.0760   67.3830   18.8240 C.ar      1 NAD501      0.0000 
     43 C5N        57.2210   67.4160   17.6650 C.ar      1 NAD501      0.0000 
     44 C6N        57.4400   68.3600   16.5950 C.ar      1 NAD501      0.0000 
     45 H          54.9477   74.4354   10.8447 H         1 NAD501      0.0000 
     46 H          54.9228   74.6738   12.6004 H         1 NAD501      0.0000 
     47 H          53.0951   76.3044   12.3176 H         1 NAD501      0.0000 
     48 H          52.8943   75.3719    9.6810 H         1 NAD501      0.0000 
     49 H          54.6049   76.6443    8.8804 H         1 NAD501      0.0000 
     50 H          53.7207   78.7690   10.7701 H         1 NAD501      0.0000 
     51 H          56.5475   77.7430    8.3874 H         1 NAD501      0.0000 
     52 H          55.4994   82.6107   12.4834 H         1 NAD501      0.0000 
     53 H          55.8047   72.8659   15.4938 H         1 NAD501      0.0000 
     54 H          56.0321   73.0209   13.7433 H         1 NAD501      0.0000 
     55 H          58.1871   73.0307   14.8147 H         1 NAD501      0.0000 
     56 H          57.6861   71.1929   12.8173 H         1 NAD501      0.0000 
     57 H          57.5173   69.4055   14.2321 H         1 NAD501      0.0000 
     58 H          59.8069   70.6061   15.7329 H         1 NAD501      0.0000 
     59 H          60.1561   69.9417   17.9281 H         1 NAD501      0.0000 
     60 H          61.6716   69.2517   20.8979 H         1 NAD501      0.0000 
     61 H          61.0758   69.9465   19.3526 H         1 NAD501      0.0000 
     62 H          57.9389   66.7313   19.5569 H         1 NAD501      0.0000 
     63 H          56.4428   66.7579   17.5977 H         1 NAD501      0.0000 
     64 H          56.8562   68.3784   15.7974 H         1 NAD501      0.0000 
     65 H          51.9010   77.8043   10.8370 H         1 NAD501      0.0000 
     66 H          52.9089   78.8826    8.9910 H         1 NAD501      0.0000 
     67 H          58.5941   83.3272    9.5851 H         1 NAD501      0.0000 
     68 H          59.9932   71.3149   12.5294 H         1 NAD501      0.0000 
     69 H          59.1653   68.1399   13.6993 H         1 NAD501      0.0000 
@<TRIPOS>BOND
     1    2    1 ar   
     2    3    1 ar   
     3    4    1 1    
     4   23    1 1    
     5    5    4 1    
     6    6    5 1    
     7   45    5 1    
     8   46    5 1    
     9    7    6 1    
    10    8    6 1    
    11   47    6 1    
    12   12    7 1    
    13    9    8 1    
    14   10    8 1    
    15   48    8 1    
    16   65    9 1    
    17   11   10 1    
    18   12   10 1    
    19   49   10 1    
    20   66   11 1    
    21   13   12 1    
    22   50   12 1    
    23   14   13 1    
    24   22   13 1    
    25   15   14 2    
    26   51   14 1    
    27   16   15 1    
    28   17   16 ar   
    29   22   16 ar   
    30   18   17 1    
    31   19   17 ar   
    32   67   18 1    
    33   20   19 ar   
    34   21   20 ar   
    35   52   20 1    
    36   22   21 ar   
    37   24   23 1    
    38   25   24 ar   
    39   26   24 ar   
    40   27   24 1    
    41   28   27 1    
    42   29   28 1    
    43   53   28 1    
    44   54   28 1    
    45   30   29 1    
    46   31   29 1    
    47   55   29 1    
    48   35   30 1    
    49   32   31 1    
    50   33   31 1    
    51   56   31 1    
    52   68   32 1    
    53   34   33 1    
    54   35   33 1    
    55   57   33 1    
    56   69   34 1    
    57   36   35 1    
    58   58   35 1    
    59   37   36 ar   
    60   44   36 ar   
    61   38   37 ar   
    62   59   37 1    
    63   39   38 1    
    64   42   38 ar   
    65   40   39 2    
    66   41   39 am   
    67   60   41 1    
    68   61   41 1    
    69   43   42 ar   
    70   62   42 1    
    71   44   43 ar   
    72   63   43 1    
    73   64   44 1    
@<TRIPOS>SUBSTRUCTURE
     1 NAD501      1 GROUP   
@<TRIPOS>SET

