#    Name: 4L4V_1_CAVITY_N1_ALL.mol2
#    Modification time : Tue Mar 11 12:51:52 2014

@<TRIPOS>MOLECULE
4L4V_1_CAVITY_N1_ALL.mol2
   69     0     7     0     0
SMALL
NO_CHARGES


@<TRIPOS>ATOM
      1 O         -92.1529   63.4248   93.4400 O.2       2 ALA2        0.0000 
      2 CZ        -92.9353   64.5173   92.7734 C.ar      5 PHE5        0.0000 
      3 CA        -93.7177   65.6098   92.1068 C.3       6 GLY6        0.0000 
      4 CZ        -89.8811   65.4069   97.3973 C.ar      5 PHE5        0.0000 
      5 CA        -90.7042   64.3791   96.6789 C.3       6 GLY6        0.0000 
      6 CZ        -91.4866   65.4716   96.0123 C.ar      5 PHE5        0.0000 
      7 CZ        -92.2690   66.5640   95.3457 C.ar      5 PHE5        0.0000 
      8 O         -91.5273   63.3513   95.9605 O.2       2 ALA2        0.0000 
      9 CA        -92.3097   64.4437   95.2939 C.3       6 GLY6        0.0000 
     10 CZ        -93.0921   65.5362   94.6274 C.ar      5 PHE5        0.0000 
     11 CZ        -93.8746   66.6287   93.9608 C.ar      5 PHE5        0.0000 
     12 CA        -94.6570   67.7211   93.2942 C.3       6 GLY6        0.0000 
     13 O         -93.1328   63.4159   94.5756 O.2       2 ALA2        0.0000 
     14 OG        -93.9153   64.5084   93.9090 O.2       1 SER1        0.0000 
     15 OG        -95.4801   66.6933   92.5758 O.2       1 SER1        0.0000 
     16 DU        -84.1582   66.4793   92.4376 H         7 CUB7        0.0000 
     17 OG        -84.9406   67.5718   91.7710 O.2       1 SER1        0.0000 
     18 NZ        -83.4919   68.5261   95.0099 N.2       4 LYS4        0.0000 
     19 CA        -83.5326   66.4058   94.9581 C.3       6 GLY6        0.0000 
     20 O         -84.3150   67.4983   94.2915 O.2       2 ALA2        0.0000 
     21 OG        -84.3557   65.3780   94.2398 O.2       1 SER1        0.0000 
     22 OG        -85.1381   66.4704   93.5732 O.2       1 SER1        0.0000 
     23 OG        -85.1789   64.3501   93.5214 O.2       1 SER1        0.0000 
     24 CZ        -85.9613   65.4426   92.8548 C.ar      5 PHE5        0.0000 
     25 CZ        -86.7437   66.5351   92.1882 C.ar      5 PHE5        0.0000 
     26 CZ        -86.0020   63.3223   92.8030 C.ar      5 PHE5        0.0000 
     27 O         -86.0427   61.2020   92.7512 O.2       2 ALA2        0.0000 
     28 OG        -86.0774   68.5818   94.7606 O.2       1 SER1        0.0000 
     29 O         -85.3357   65.3690   95.3754 O.2       2 ALA2        0.0000 
     30 O         -86.1181   66.4615   94.7088 O.2       2 ALA2        0.0000 
     31 OG        -86.9005   67.5540   94.0422 O.2       1 SER1        0.0000 
     32 OG        -86.1588   64.3412   94.6570 O.2       1 SER1        0.0000 
     33 CZ        -86.9412   65.4337   93.9904 C.ar      5 PHE5        0.0000 
     34 CZ        -87.7236   66.5261   93.3238 C.ar      5 PHE5        0.0000 
     35 OG        -86.1995   62.2209   94.6052 O.2       1 SER1        0.0000 
     36 CZ        -86.9819   63.3134   93.9386 C.ar      5 PHE5        0.0000 
     37 O         -86.2402   60.1006   94.5534 O.2       2 ALA2        0.0000 
     38 O         -87.0226   61.1931   93.8869 O.2       2 ALA2        0.0000 
     39 O         -87.0573   68.5729   95.8962 O.2       2 ALA2        0.0000 
     40 O         -87.0981   66.4526   95.8444 O.2       2 ALA2        0.0000 
     41 CZ        -87.8805   67.5451   95.1778 C.ar      5 PHE5        0.0000 
     42 CZ        -88.6629   68.6375   94.5112 C.ar      5 PHE5        0.0000 
     43 OG        -86.3563   63.2398   96.4592 O.2       1 SER1        0.0000 
     44 CZ        -87.1388   64.3323   95.7926 C.ar      5 PHE5        0.0000 
     45 CZ        -87.9212   65.4248   95.1260 C.ar      5 PHE5        0.0000 
     46 CZ        -88.7036   66.5172   94.4594 C.ar      5 PHE5        0.0000 
     47 CZ        -89.4860   67.6097   93.7929 C.ar      5 PHE5        0.0000 
     48 OG        -87.1795   62.2120   95.7408 O.2       1 SER1        0.0000 
     49 O         -87.9619   63.3045   95.0743 O.2       2 ALA2        0.0000 
     50 CZ        -88.7443   64.3969   94.4077 C.ar      5 PHE5        0.0000 
     51 CZ        -90.3091   66.5819   93.0745 C.ar      5 PHE5        0.0000 
     52 CZ        -91.0915   67.6743   92.4079 C.ar      5 PHE5        0.0000 
     53 O         -88.0026   61.1842   95.0225 O.2       2 ALA2        0.0000 
     54 CZ        -88.8604   67.5361   96.3134 C.ar      5 PHE5        0.0000 
     55 CZ        -89.6428   68.6286   95.6468 C.ar      5 PHE5        0.0000 
     56 CZ        -88.1187   64.3234   96.9282 C.ar      5 PHE5        0.0000 
     57 CZ        -88.9011   65.4158   96.2616 C.ar      5 PHE5        0.0000 
     58 CZ        -89.6835   66.5083   95.5951 C.ar      5 PHE5        0.0000 
     59 CZ        -90.4659   67.6008   94.9285 C.ar      5 PHE5        0.0000 
     60 CZ        -91.2484   68.6932   94.2619 C.ar      5 PHE5        0.0000 
     61 O         -88.9418   63.2955   96.2099 O.2       2 ALA2        0.0000 
     62 O         -89.7242   64.3880   95.5433 O.2       2 ALA2        0.0000 
     63 CZ        -90.5067   65.4805   94.8767 C.ar      5 PHE5        0.0000 
     64 CZ        -91.2891   66.5729   94.2101 C.ar      5 PHE5        0.0000 
     65 OD1       -92.0715   67.6654   93.5435 O.3       3 ASP3        0.0000 
     66 CZ        -91.3298   64.4527   94.1583 C.ar      5 PHE5        0.0000 
     67 CZ        -92.1122   65.5451   93.4917 C.ar      5 PHE5        0.0000 
     68 CZ        -92.8946   66.6376   92.8252 C.ar      5 PHE5        0.0000 
     69 CA        -93.6770   67.7301   92.1586 C.3       6 GLY6        0.0000 
@<TRIPOS>BOND
@<TRIPOS>SUBSTRUCTURE
     1 SER1       14 GROUP   
     2 ALA2        1 GROUP   
     3 ASP3       65 GROUP   
     4 LYS4       18 GROUP   
     5 PHE5        2 GROUP   
     6 GLY6        3 GROUP   
     7 CUB7       16 GROUP   
@<TRIPOS>SET

