#    Name: 4l4v_1VY_1_INTS_M
#    Modification time : Mon Apr  7 23:55:12 2014

@<TRIPOS>MOLECULE
4l4v_1VY_1_INTS_M
   43     0     9     0     0
SMALL
NO_CHARGES


@<TRIPOS>ATOM
      1 CA        -91.4885   69.6945   95.6410 C.3       3 GLC5        0.0000 
      2 CA        -90.4030   70.0330   94.0510 C.3       9 GLL5        0.0000 
      3 CA        -92.5740   69.3560   97.2310 C.3       6 GLP5        0.0000 
      4 CA        -89.4155   69.4225   92.7525 C.3       3 GLC5        0.0000 
      5 CA        -88.4280   68.8120   91.4540 C.3       6 GLP5        0.0000 
      6 N         -92.4985   69.4970   92.9825 N.am      2 SEC2        0.0000 
      7 N         -91.9660   68.2340   93.7060 N.am      8 SEL2        0.0000 
      8 N         -93.0310   70.7600   92.2590 N.am      5 SEP2        0.0000 
      9 O         -95.2895   64.7160   93.4985 O.2       1 ALC1        0.0000 
     10 O         -94.0220   65.2430   93.7170 O.2       7 ALL1        0.0000 
     11 O         -96.5570   64.1890   93.2800 O.2       4 ALP1        0.0000 
     12 N         -93.3275   61.9850   94.0935 N.am      2 SEC2        0.0000 
     13 N         -93.5520   63.2410   94.6730 N.am      8 SEL2        0.0000 
     14 N         -93.1030   60.7290   93.5140 N.am      5 SEP2        0.0000 
     15 CA        -91.0315   66.4855   97.2780 C.3       3 GLC5        0.0000 
     16 CA        -89.6910   65.7840   96.2960 C.3       9 GLL5        0.0000 
     17 CA        -92.3720   67.1870   98.2600 C.3       6 GLP5        0.0000 
     18 CA        -90.5140   64.4185   97.7845 C.3       3 GLC5        0.0000 
     19 CA        -91.3370   63.0530   99.2730 C.3       6 GLP5        0.0000 
     20 N         -90.4870   62.2010   94.7090 N.am      2 SEC2        0.0000 
     21 N         -90.1060   63.1520   95.8230 N.am      8 SEL2        0.0000 
     22 N         -90.8680   61.2500   93.5950 N.am      5 SEP2        0.0000 
     23 N         -90.4285   61.8385   96.2635 N.am      2 SEC2        0.0000 
     24 N         -90.7510   60.5250   96.7040 N.am      5 SEP2        0.0000 
     25 CA        -88.0415   63.1550   93.2215 C.3       3 GLC5        0.0000 
     26 CA        -87.7150   62.6570   95.2370 C.3       9 GLL5        0.0000 
     27 CA        -88.3680   63.6530   91.2060 C.3       6 GLP5        0.0000 
     28 N         -89.5095   61.4150   94.0255 N.am      2 SEC2        0.0000 
     29 N         -88.1510   61.5800   94.4560 N.am      8 SEL2        0.0000 
     30 CA        -87.9210   61.9615   98.2275 C.3       3 GLC5        0.0000 
     31 CA        -87.4760   62.0780   96.6220 C.3       9 GLL5        0.0000 
     32 CA        -88.3660   61.8450   99.8330 C.3       6 GLP5        0.0000 
     33 N         -85.6515   61.2175   98.0905 N.am      2 SEC2        0.0000 
     34 N         -86.0910   61.9780   97.0210 N.am      8 SEL2        0.0000 
     35 N         -85.2120   60.4570   99.1600 N.am      5 SEP2        0.0000 
     36 O         -84.8845   62.3330   96.1945 O.2       1 ALC1        0.0000 
     37 O         -86.0910   61.9780   97.0210 O.2       7 ALL1        0.0000 
     38 O         -83.6780   62.6880   95.3680 O.2       4 ALP1        0.0000 
     39 CA        -88.2140   66.1885   97.3692 C.3       3 GLC5        0.0000 
     40 CA        -88.4650   65.0080   95.8550 C.3       9 GLL5        0.0000 
     41 CA        -87.3500   66.9810   98.6630 C.3       6 GLP5        0.0000 
     42 CA        -88.9445   64.5060   93.5555 C.3       3 GLC5        0.0000 
     43 CA        -89.2170   64.6690   91.5740 C.3       6 GLP5        0.0000 
@<TRIPOS>BOND
@<TRIPOS>SUBSTRUCTURE
     1 ALC1        9 GROUP        1 X    ALC  0     ROOT ALC X 1
     2 SEC2        6 GROUP        1 X    SEC  0     **** SEC X 2
     3 GLC5        1 GROUP        1 X    GLC  0     **** GLC X 6
     4 ALP1       11 GROUP        1 Y    ALP  0     ROOT ALP Y 8
     5 SEP2        8 GROUP        1 Y    SEP  0     **** SEP Y 9
     6 GLP5        3 GROUP        1 Y    GLP  0     **** GLP Y 13
     7 ALL1       10 GROUP        1 Z    ALL  0     ROOT ALL Z 15
     8 SEL2        7 GROUP        1 Z    SEL  0     **** SEL Z 16
     9 GLL5        2 GROUP        1 Z    GLL  0     **** GLL Z 20
@<TRIPOS>SET

