#    Name: 4l4v_1VY_1_ligand
#    Modification time : Mon Apr  7 23:55:12 2014

@<TRIPOS>MOLECULE
4l4v_1VY_1_ligand
   39    40     1     0     0
SMALL
NO_CHARGES


@<TRIPOS>ATOM
      1 O7        -88.9240   68.3680   95.5920 O.3       1 1VY301      0.0000 
      2 C7        -90.0850   67.8550   95.0850 C.2       1 1VY301      0.0000 
      3 C6        -90.8350   68.7030   94.2740 C.2       1 1VY301      0.0000 
      4 C9        -90.4030   70.0330   94.0510 C.3       1 1VY301      0.0000 
      5 N5        -91.9660   68.2340   93.7060 N.2       1 1VY301      0.0000 
      6 C4A       -92.3650   66.9530   93.9090 C.2       1 1VY301      0.0000 
      7 C4        -93.5910   66.4900   93.4030 C.2       1 1VY301      0.0000 
      8 O4        -94.3580   67.2580   92.8120 O.2       1 1VY301      0.0000 
      9 N3        -94.0220   65.2430   93.7170 N.am      1 1VY301      0.0000 
     10 C2        -93.2350   64.4140   94.4580 C.2       1 1VY301      0.0000 
     11 O2        -93.5520   63.2410   94.6730 O.2       1 1VY301      0.0000 
     12 N1        -92.0590   64.8580   94.9590 N.2       1 1VY301      0.0000 
     13 C8A       -91.6010   66.1060   94.7220 C.2       1 1VY301      0.0000 
     14 N8        -90.4500   66.5710   95.2940 N.pl3     1 1VY301      0.0000 
     15 C1'       -89.6910   65.7840   96.2960 C.3       1 1VY301      0.0000 
     16 C2'       -88.4650   65.0080   95.8550 C.3       1 1VY301      0.0000 
     17 O2'       -87.6330   65.8090   94.9800 O.3       1 1VY301      0.0000 
     18 C3'       -88.8790   63.6780   95.2190 C.3       1 1VY301      0.0000 
     19 O3'       -90.1060   63.1520   95.8230 O.3       1 1VY301      0.0000 
     20 C4'       -87.7150   62.6570   95.2370 C.3       1 1VY301      0.0000 
     21 O4'       -88.1510   61.5800   94.4560 O.3       1 1VY301      0.0000 
     22 C5'       -87.4760   62.0780   96.6220 C.3       1 1VY301      0.0000 
     23 O5'       -86.0910   61.9780   97.0210 O.3       1 1VY301      0.0000 
     24 H         -94.9543   64.9166   93.3929 H         1 1VY301      0.0000 
     25 H         -90.3951   65.0564   96.8036 H         1 1VY301      0.0000 
     26 H         -89.3794   66.4682   97.1431 H         1 1VY301      0.0000 
     27 H         -87.8989   64.7590   96.7730 H         1 1VY301      0.0000 
     28 H         -89.0799   63.8971   94.1428 H         1 1VY301      0.0000 
     29 H         -86.8470   63.1027   94.8670 H         1 1VY301      0.0000 
     30 H         -87.9678   61.0735   96.6574 H         1 1VY301      0.0000 
     31 H         -88.0504   62.7015   97.3523 H         1 1VY301      0.0000 
     32 H         -89.5010   70.0632   93.6202 H         1 1VY301      0.0000 
     33 H         -91.0303   70.5319   93.4530 H         1 1VY301      0.0000 
     34 H         -90.3378   70.5503   94.9043 H         1 1VY301      0.0000 
     35 H         -88.2500   67.6370   95.4856 H         1 1VY301      0.0000 
     36 H         -86.8711   66.1113   95.5528 H         1 1VY301      0.0000 
     37 H         -90.8360   63.7460   95.4848 H         1 1VY301      0.0000 
     38 H         -87.7770   60.7677   94.9036 H         1 1VY301      0.0000 
     39 H         -85.5705   62.0562   96.1707 H         1 1VY301      0.0000 
@<TRIPOS>BOND
     1    2    1 1    
     2   35    1 1    
     3    3    2 2    
     4   14    2 1    
     5    4    3 1    
     6    5    3 1    
     7   32    4 1    
     8   33    4 1    
     9   34    4 1    
    10    6    5 2    
    11    7    6 1    
    12   13    6 1    
    13    8    7 2    
    14    9    7 am   
    15   10    9 am   
    16   24    9 1    
    17   11   10 2    
    18   12   10 1    
    19   13   12 2    
    20   14   13 1    
    21   15   14 1    
    22   16   15 1    
    23   25   15 1    
    24   26   15 1    
    25   17   16 1    
    26   18   16 1    
    27   27   16 1    
    28   36   17 1    
    29   19   18 1    
    30   20   18 1    
    31   28   18 1    
    32   37   19 1    
    33   21   20 1    
    34   22   20 1    
    35   29   20 1    
    36   38   21 1    
    37   23   22 1    
    38   30   22 1    
    39   31   22 1    
    40   39   23 1    
@<TRIPOS>SUBSTRUCTURE
     1 1VY301      1 GROUP   
@<TRIPOS>SET

