#    Name: 4bgh_3I6_1_INTS_M
#    Modification time : Tue Mar 25 07:43:39 2014

@<TRIPOS>MOLECULE
4bgh_3I6_1_INTS_M
   59     0     9     0     0
SMALL
NO_CHARGES


@<TRIPOS>ATOM
      1 CA         12.4210   -3.9065   11.2600 C.3       3 GLC5        0.0000 
      2 CA         13.3480   -5.8030   10.8000 C.3       9 GLL5        0.0000 
      3 CA         11.4940   -2.0100   11.7200 C.3       6 GLP5        0.0000 
      4 CA         13.4310   -5.0735   12.8690 C.3       3 GLC5        0.0000 
      5 CA         13.5140   -4.3440   14.9380 C.3       6 GLP5        0.0000 
      6 CA         11.1345   -6.9440   11.8650 C.3       3 GLC5        0.0000 
      7 CA         13.0110   -7.2940   10.9270 C.3       9 GLL5        0.0000 
      8 CA          9.2580   -6.5940   12.8030 C.3       6 GLP5        0.0000 
      9 CA         13.3940  -10.1670    9.3815 C.3       3 GLC5        0.0000 
     10 CA         13.5450   -8.0950    9.7540 C.3       9 GLL5        0.0000 
     11 CA         13.2430  -12.2390    9.0090 C.3       6 GLP5        0.0000 
     12 CA         14.0470   -8.5785    7.8505 C.3       3 GLC5        0.0000 
     13 CA         14.5490   -9.0620    5.9470 C.3       6 GLP5        0.0000 
     14 CA         14.9090   -9.4360   10.1895 C.3       3 GLC5        0.0000 
     15 CA         16.2730  -10.7770   10.6250 C.3       6 GLP5        0.0000 
     16 CA         12.8535  -10.5455   11.6990 C.3       3 GLC5        0.0000 
     17 CA         12.9210   -8.7900   12.8970 C.3       9 GLL5        0.0000 
     18 CA         12.7860  -12.3010   10.5010 C.3       6 GLP5        0.0000 
     19 CA         15.0020  -10.3410   14.4530 C.3       3 GLC5        0.0000 
     20 CA         15.0000   -8.3660   14.7610 C.3       9 GLL5        0.0000 
     21 CA         15.0040  -12.3160   14.1450 C.3       6 GLP5        0.0000 
     22 CA         14.4665   -7.9465   16.6285 C.3       3 GLC5        0.0000 
     23 CA         13.9330   -7.5270   18.4960 C.3       6 GLP5        0.0000 
     24 CA         15.8415   -9.2725   16.0435 C.3       3 GLC5        0.0000 
     25 CA         16.6830  -10.1790   17.3260 C.3       6 GLP5        0.0000 
     26 CA         12.8485   -7.7395   14.7590 C.3       3 GLC5        0.0000 
     27 CA         10.6970   -7.1130   14.7570 C.3       6 GLP5        0.0000 
     28 CA         14.2570   -6.3550   14.8495 C.3       3 GLC5        0.0000 
     29 CA         12.0255  -11.6350   15.9030 C.3       3 GLC5        0.0000 
     30 CA         12.5930  -10.0830   14.8890 C.3       9 GLL5        0.0000 
     31 CA         11.4580  -13.1870   16.9170 C.3       6 GLP5        0.0000 
     32 N          10.5470  -11.1005   15.3210 N.am      2 SEC2        0.0000 
     33 N          11.4790  -10.5340   14.2610 N.am      8 SEL2        0.0000 
     34 N           9.6150  -11.6670   16.3810 N.am      5 SEP2        0.0000 
     35 CA         11.9345  -11.2295   11.7705 C.3       3 GLC5        0.0000 
     36 CA         11.0830  -10.1580   13.0400 C.3       9 GLL5        0.0000 
     37 CA         10.8900   -8.6355   13.8985 C.3       3 GLC5        0.0000 
     38 O           9.1295  -11.3715   13.3110 O.2       1 ALC1        0.0000 
     39 O          10.0220  -10.7200   12.5090 O.2       7 ALL1        0.0000 
     40 O           8.2370  -12.0230   14.1130 O.2       4 ALP1        0.0000 
     41 CA          6.9010  -11.9070   12.6030 C.3       3 GLC5        0.0000 
     42 CA          8.2630  -11.3910   11.1660 C.3       9 GLL5        0.0000 
     43 CA          5.5390  -12.4230   14.0400 C.3       6 GLP5        0.0000 
     44 N           5.6020   -8.3735    9.5340 N.am      2 SEC2        0.0000 
     45 N           5.6420   -9.1800    8.3060 N.am      8 SEL2        0.0000 
     46 N           5.5620   -7.5670   10.7620 N.am      5 SEP2        0.0000 
     47 O           7.7090   -7.7315    7.1845 O.2       1 ALC1        0.0000 
     48 O           7.4980   -9.0660    6.6130 O.2       7 ALL1        0.0000 
     49 O           7.9200   -6.3970    7.7560 O.2       4 ALP1        0.0000 
     50 CA         13.9351  -10.9244   14.1785 C.3       3 GLC5        0.0000 
     51 CA         11.7816   -8.3229   14.4845 C.3       3 GLC5        0.0000 
     52 CA         11.1800  -11.1917   10.7095 C.3       3 GLC5        0.0000 
     53 CA          9.4110  -10.5680   11.3800 C.3       9 GLL5        0.0000 
     54 CA          9.4160   -8.3382   11.8605 C.3       3 GLC5        0.0000 
     55 CA          6.2709  -10.1729   10.8096 C.3       3 GLC5        0.0000 
     56 CA          7.8230  -10.2370    9.1100 C.3       9 GLL5        0.0000 
     57 CA          4.6890   -9.5790   11.7690 C.3       6 GLP5        0.0000 
     58 CA          7.9106   -7.8980    9.7133 C.3       3 GLC5        0.0000 
     59 CA          7.2330   -5.9180    9.9250 C.3       6 GLP5        0.0000 
@<TRIPOS>BOND
@<TRIPOS>SUBSTRUCTURE
     1 ALC1       38 GROUP        1 X    ALC  0     ROOT ALC X 1
     2 SEC2       32 GROUP        1 X    SEC  0     **** SEC X 2
     3 GLC5        1 GROUP        1 X    GLC  0     **** GLC X 6
     4 ALP1       40 GROUP        1 Y    ALP  0     ROOT ALP Y 8
     5 SEP2       34 GROUP        1 Y    SEP  0     **** SEP Y 9
     6 GLP5        3 GROUP        1 Y    GLP  0     **** GLP Y 13
     7 ALL1       39 GROUP        1 Z    ALL  0     ROOT ALL Z 15
     8 SEL2       33 GROUP        1 Z    SEL  0     **** SEL Z 16
     9 GLL5        2 GROUP        1 Z    GLL  0     **** GLL Z 20
@<TRIPOS>SET

