#    Name: 4bgh_3I6_1_ligand
#    Modification time : Tue Mar 25 07:43:39 2014

@<TRIPOS>MOLECULE
4bgh_3I6_1_ligand
   39    40     1     0     0
SMALL
NO_CHARGES


@<TRIPOS>ATOM
      1 O15        14.7240   -5.8070   10.5410 O.3       1 3I61001     0.0000 
      2 C14        13.3480   -5.8030   10.8000 C.3       1 3I61001     0.0000 
      3 C13        13.0110   -7.2940   10.9270 C.3       1 3I61001     0.0000 
      4 C15        13.5450   -8.0950    9.7540 C.3       1 3I61001     0.0000 
      5 N9         13.6070   -7.8660   12.1600 N.pl3     1 3I61001     0.0000 
      6 C9         12.9210   -8.7900   12.8970 C.ar      1 3I61001     0.0000 
      7 N10        11.7840   -9.3070   12.3470 N.ar      1 3I61001     0.0000 
      8 C8         13.3580   -9.1750   14.1730 C.ar      1 3I61001     0.0000 
      9 BR1        15.0000   -8.3660   14.7610 Br        1 3I61001     0.0000 
     10 C7         12.5930  -10.0830   14.8890 C.ar      1 3I61001     0.0000 
     11 N12        11.4790  -10.5340   14.2610 N.ar      1 3I61001     0.0000 
     12 C11        11.0830  -10.1580   13.0400 C.ar      1 3I61001     0.0000 
     13 N1         10.0220  -10.7200   12.5090 N.pl3     1 3I61001     0.0000 
     14 C2          9.4110  -10.5680   11.3800 C.ar      1 3I61001     0.0000 
     15 C3          8.2630  -11.3910   11.1660 C.ar      1 3I61001     0.0000 
     16 C4          7.5020  -11.2020   10.0150 C.ar      1 3I61001     0.0000 
     17 C1          9.7370   -9.5970   10.4560 C.ar      1 3I61001     0.0000 
     18 C6          8.9700   -9.4410    9.3300 C.ar      1 3I61001     0.0000 
     19 C5          7.8230  -10.2370    9.1100 C.ar      1 3I61001     0.0000 
     20 S1          6.7850   -9.9350    7.7290 S.o2      1 3I61001     0.0000 
     21 O2          5.6420   -9.1800    8.3060 O.2       1 3I61001     0.0000 
     22 O3          6.1350  -11.2100    7.2010 O.2       1 3I61001     0.0000 
     23 N4          7.4980   -9.0660    6.6130 N.pl3     1 3I61001     0.0000 
     24 H          12.7663   -5.4049    9.9902 H         1 3I61001     0.0000 
     25 H          13.0940   -5.3308   11.7301 H         1 3I61001     0.0000 
     26 H          11.9396   -7.4098   10.9621 H         1 3I61001     0.0000 
     27 H          14.5383   -7.5337   12.4160 H         1 3I61001     0.0000 
     28 H          12.8595  -10.3780   15.8117 H         1 3I61001     0.0000 
     29 H           9.5433  -11.5070   13.1926 H         1 3I61001     0.0000 
     30 H           8.0194  -12.0979   11.8518 H         1 3I61001     0.0000 
     31 H           6.6767  -11.8158    9.8565 H         1 3I61001     0.0000 
     32 H          10.5574   -8.9909   10.6152 H         1 3I61001     0.0000 
     33 H           9.2204   -8.7321    8.6170 H         1 3I61001     0.0000 
     34 H           7.9489   -9.5753    5.8800 H         1 3I61001     0.0000 
     35 H           7.4433   -8.0739    6.7260 H         1 3I61001     0.0000 
     36 H          14.5395   -8.0231    9.6772 H         1 3I61001     0.0000 
     37 H          13.3270   -9.0673    9.8383 H         1 3I61001     0.0000 
     38 H          13.1606   -7.7827    8.8853 H         1 3I61001     0.0000 
     39 H          15.1473   -6.1061   11.3962 H         1 3I61001     0.0000 
@<TRIPOS>BOND
     1    2    1 1    
     2   39    1 1    
     3    3    2 1    
     4   24    2 1    
     5   25    2 1    
     6    4    3 1    
     7    5    3 1    
     8   26    3 1    
     9   36    4 1    
    10   37    4 1    
    11   38    4 1    
    12    6    5 1    
    13   27    5 1    
    14    7    6 ar   
    15    8    6 ar   
    16   12    7 ar   
    17    9    8 1    
    18   10    8 ar   
    19   11   10 ar   
    20   28   10 1    
    21   12   11 ar   
    22   13   12 1    
    23   14   13 1    
    24   29   13 1    
    25   15   14 ar   
    26   17   14 ar   
    27   16   15 ar   
    28   30   15 1    
    29   19   16 ar   
    30   31   16 1    
    31   18   17 ar   
    32   32   17 1    
    33   19   18 ar   
    34   33   18 1    
    35   20   19 1    
    36   21   20 2    
    37   22   20 2    
    38   23   20 1    
    39   34   23 1    
    40   35   23 1    
@<TRIPOS>SUBSTRUCTURE
     1 3I61001     1 GROUP   
@<TRIPOS>SET

