#    Name: 3nr9_NR9_3_INTS_M
#    Modification time : Tue Mar 25 01:58:24 2014

@<TRIPOS>MOLECULE
3nr9_NR9_3_INTS_M
   69     0     9     0     0
SMALL
NO_CHARGES


@<TRIPOS>ATOM
      1 CA         73.2860  -27.5990   43.9110 C.3       3 GLC5        0.0000 
      2 CA         72.2490  -26.5440   45.4070 C.3       9 GLL5        0.0000 
      3 CA         74.3230  -28.6540   42.4150 C.3       6 GLP5        0.0000 
      4 CA         73.6975  -25.1565   43.5205 C.3       3 GLC5        0.0000 
      5 CA         73.1330  -25.4720   45.4480 C.3       9 GLL5        0.0000 
      6 CA         74.2620  -24.8410   41.5930 C.3       6 GLP5        0.0000 
      7 CA         73.7905  -23.4360   44.2035 C.3       3 GLC5        0.0000 
      8 CA         72.6550  -24.2380   45.8420 C.3       9 GLL5        0.0000 
      9 CA         74.9260  -22.6340   42.5650 C.3       6 GLP5        0.0000 
     10 N          74.8070  -22.8545   45.2760 N.am      2 SEC2        0.0000 
     11 N          73.4980  -23.2050   45.8750 N.am      8 SEL2        0.0000 
     12 N          76.1160  -22.5040   44.6770 N.am      5 SEP2        0.0000 
     13 CA         73.4830  -23.6795   47.5700 C.3       3 GLC5        0.0000 
     14 CA         73.0680  -22.0130   46.2330 C.3       9 GLL5        0.0000 
     15 CA         73.8980  -25.3460   48.9070 C.3       6 GLP5        0.0000 
     16 CA         74.5250  -21.8060   47.4240 C.3       3 GLC5        0.0000 
     17 CA         75.9820  -21.5990   48.6150 C.3       6 GLP5        0.0000 
     18 CA         74.4835  -21.9145   44.8205 C.3       3 GLC5        0.0000 
     19 CA         75.8990  -21.8160   43.4080 C.3       6 GLP5        0.0000 
     20 CA         71.3445  -28.6205   46.4875 C.3       3 GLC5        0.0000 
     21 CA         70.1410  -27.5250   45.6930 C.3       9 GLL5        0.0000 
     22 CA         72.5480  -29.7160   47.2820 C.3       6 GLP5        0.0000 
     23 CA         68.2000  -28.9890   46.9045 C.3       3 GLC5        0.0000 
     24 CA         68.7700  -27.5770   45.4670 C.3       9 GLL5        0.0000 
     25 CA         67.6300  -30.4010   48.3420 C.3       6 GLP5        0.0000 
     26 CA         70.1425  -29.1050   46.3255 C.3       3 GLC5        0.0000 
     27 CA         71.5150  -30.6330   47.1840 C.3       6 GLP5        0.0000 
     28 CA         64.9405  -27.6580   46.5205 C.3       3 GLC5        0.0000 
     29 CA         66.3700  -27.3070   45.1440 C.3       9 GLL5        0.0000 
     30 CA         63.5110  -28.0090   47.8970 C.3       6 GLP5        0.0000 
     31 CA         65.6960  -28.6035   43.6975 C.3       3 GLC5        0.0000 
     32 CA         65.0220  -29.9000   42.2510 C.3       6 GLP5        0.0000 
     33 N          68.0310  -30.1225   43.4970 N.am      2 SEC2        0.0000 
     34 N          68.6170  -29.8720   45.0730 N.am      8 SEL2        0.0000 
     35 N          67.4450  -30.3730   41.9210 N.am      5 SEP2        0.0000 
     36 O          64.1115  -28.1175   44.2660 O.2       1 ALC1        0.0000 
     37 O          65.1260  -26.8930   44.9840 O.2       7 ALL1        0.0000 
     38 O          63.0970  -29.3420   43.5480 O.2       4 ALP1        0.0000 
     39 CA         64.1950  -26.7690   46.2145 C.3       3 GLC5        0.0000 
     40 CA         64.8790  -25.5290   44.5320 C.3       9 GLL5        0.0000 
     41 CA         66.3755  -26.2685   43.0615 C.3       3 GLC5        0.0000 
     42 CA         67.8720  -27.0080   41.5910 C.3       6 GLP5        0.0000 
     43 CA         72.7412  -25.9075   47.2412 C.3       3 GLC5        0.0000 
     44 CA         70.9200  -26.3940   45.7440 C.3       9 GLL5        0.0000 
     45 CA         73.7240  -27.4205   46.0062 C.3       3 GLC5        0.0000 
     46 CA         74.7570  -28.8330   46.5850 C.3       6 GLP5        0.0000 
     47 CA         71.1612  -24.8005   44.2353 C.3       3 GLC5        0.0000 
     48 CA         70.7380  -23.1320   42.8950 C.3       6 GLP5        0.0000 
     49 CA         72.3867  -24.9872   47.5325 C.3       3 GLC5        0.0000 
     50 CA         70.4370  -25.1660   46.1370 C.3       9 GLL5        0.0000 
     51 CA         73.3960  -25.1005   47.2760 C.3       3 GLC5        0.0000 
     52 CA         71.8160  -23.9935   44.2700 C.3       3 GLC5        0.0000 
     53 CA         71.5717  -22.5195   44.6538 C.3       3 GLC5        0.0000 
     54 CA         71.7430  -21.8010   46.5920 C.3       9 GLL5        0.0000 
     55 CA         71.9534  -21.7730   48.3049 C.3       3 GLC5        0.0000 
     56 CA         70.8540  -22.8530   46.5710 C.3       9 GLL5        0.0000 
     57 CA         72.2770  -21.1660   50.1180 C.3       6 GLP5        0.0000 
     58 CA         70.3409  -24.1339   48.0952 C.3       3 GLC5        0.0000 
     59 CA         69.8170  -24.5270   49.8260 C.3       6 GLP5        0.0000 
     60 CA         70.8014  -23.4364   44.6298 C.3       3 GLC5        0.0000 
     61 CA         69.2807  -27.7180   43.5675 C.3       3 GLC5        0.0000 
     62 CA         69.1060  -27.8850   41.5550 C.3       6 GLP5        0.0000 
     63 CA         68.1042  -26.5172   47.4968 C.3       3 GLC5        0.0000 
     64 CA         67.9830  -26.0890   49.5060 C.3       6 GLP5        0.0000 
     65 CA         67.4488  -26.9093   43.4585 C.3       3 GLC5        0.0000 
     66 CA         67.6810  -26.3140   45.5080 C.3       9 GLL5        0.0000 
     67 CA         61.4170  -24.6758   48.2300 C.3       3 GLC5        0.0000 
     68 CA         62.0110  -24.2260   46.4650 C.3       9 GLL5        0.0000 
     69 CA         60.3960  -25.3690   49.5280 C.3       6 GLP5        0.0000 
@<TRIPOS>BOND
@<TRIPOS>SUBSTRUCTURE
     1 ALC1       36 GROUP        1 X    ALC  0     ROOT ALC X 1
     2 SEC2       10 GROUP        1 X    SEC  0     **** SEC X 2
     3 GLC5        1 GROUP        1 X    GLC  0     **** GLC X 6
     4 ALP1       38 GROUP        1 Y    ALP  0     ROOT ALP Y 8
     5 SEP2       12 GROUP        1 Y    SEP  0     **** SEP Y 9
     6 GLP5        3 GROUP        1 Y    GLP  0     **** GLP Y 13
     7 ALL1       37 GROUP        1 Z    ALL  0     ROOT ALL Z 15
     8 SEL2       11 GROUP        1 Z    SEL  0     **** SEL Z 16
     9 GLL5        2 GROUP        1 Z    GLL  0     **** GLL Z 20
@<TRIPOS>SET

