#    Name: 3nr9_NR9_3_ligand
#    Modification time : Tue Mar 25 01:58:25 2014

@<TRIPOS>MOLECULE
3nr9_NR9_3_ligand
   38    41     1     0     0
SMALL
NO_CHARGES


@<TRIPOS>ATOM
      1 CAA        72.2490  -26.5440   45.4070 C.ar      1 NR91        0.0000 
      2 CAB        70.9200  -26.3940   45.7440 C.ar      1 NR91        0.0000 
      3 CAC        70.4370  -25.1660   46.1370 C.ar      1 NR91        0.0000 
      4 CAD        73.1330  -25.4720   45.4480 C.ar      1 NR91        0.0000 
      5 CAE        72.6550  -24.2380   45.8420 C.ar      1 NR91        0.0000 
      6 CAF        71.3140  -24.0910   46.1790 C.ar      1 NR91        0.0000 
      7 NAG        73.4980  -23.2050   45.8750 N.ar      1 NR91        0.0000 
      8 CAH        73.0680  -22.0130   46.2330 C.ar      1 NR91        0.0000 
      9 CAI        70.8540  -22.8530   46.5710 C.ar      1 NR91        0.0000 
     10 CAJ        71.7430  -21.8010   46.5920 C.ar      1 NR91        0.0000 
     11 CAK        70.1410  -27.5250   45.6930 C.2       1 NR91        0.0000 
     12 CAL        68.7700  -27.5770   45.4670 C.2       1 NR91        0.0000 
     13 CAM        68.0740  -28.7570   45.1780 C.2       1 NR91        0.0000 
     14 NAN        66.7500  -28.5790   45.0030 N.am      1 NR91        0.0000 
     15 CAO        66.3700  -27.3070   45.1440 C.2       1 NR91        0.0000 
     16 SAP        67.6810  -26.3140   45.5080 S.3       1 NR91        0.0000 
     17 OAQ        68.6170  -29.8720   45.0730 O.2       1 NR91        0.0000 
     18 NAR        65.1260  -26.8930   44.9840 N.pl3     1 NR91        0.0000 
     19 CAS        64.8790  -25.5290   44.5320 C.3       1 NR91        0.0000 
     20 CAT        63.9170  -24.8990   45.5060 C.2       1 NR91        0.0000 
     21 SAU        64.4450  -24.1230   46.9300 S.3       1 NR91        0.0000 
     22 CAV        62.8650  -23.7390   47.3990 C.2       1 NR91        0.0000 
     23 CAW        62.0110  -24.2260   46.4650 C.2       1 NR91        0.0000 
     24 CAX        62.5750  -24.8610   45.4260 C.2       1 NR91        0.0000 
     25 H          72.6022  -27.4780   45.1151 H         1 NR91        0.0000 
     26 H          69.4563  -25.0435   46.3929 H         1 NR91        0.0000 
     27 H          74.1119  -25.5986   45.1920 H         1 NR91        0.0000 
     28 H          73.7149  -21.1858   46.2578 H         1 NR91        0.0000 
     29 H          69.8778  -22.7186   46.8394 H         1 NR91        0.0000 
     30 H          71.4323  -20.8612   46.8714 H         1 NR91        0.0000 
     31 H          70.6369  -28.4699   45.8425 H         1 NR91        0.0000 
     32 H          66.1226  -29.3263   44.7898 H         1 NR91        0.0000 
     33 H          64.3004  -27.4766   45.1592 H         1 NR91        0.0000 
     34 H          64.4341  -25.5225   43.5426 H         1 NR91        0.0000 
     35 H          65.7975  -24.9517   44.5200 H         1 NR91        0.0000 
     36 H          62.7936  -23.2768   48.1807 H         1 NR91        0.0000 
     37 H          61.0058  -24.1133   46.5529 H         1 NR91        0.0000 
     38 H          62.0570  -25.2615   44.6757 H         1 NR91        0.0000 
@<TRIPOS>BOND
     1    2    1 ar   
     2    4    1 ar   
     3   25    1 1    
     4    3    2 ar   
     5   11    2 1    
     6    6    3 ar   
     7   26    3 1    
     8    5    4 ar   
     9   27    4 1    
    10    6    5 ar   
    11    7    5 ar   
    12    9    6 ar   
    13    8    7 ar   
    14   10    8 ar   
    15   28    8 1    
    16   10    9 ar   
    17   29    9 1    
    18   30   10 1    
    19   12   11 2    
    20   31   11 1    
    21   13   12 1    
    22   16   12 1    
    23   14   13 am   
    24   17   13 2    
    25   15   14 2    
    26   32   14 1    
    27   16   15 1    
    28   18   15 1    
    29   19   18 1    
    30   33   18 1    
    31   20   19 1    
    32   34   19 1    
    33   35   19 1    
    34   21   20 1    
    35   24   20 2    
    36   22   21 1    
    37   23   22 2    
    38   36   22 1    
    39   24   23 1    
    40   37   23 1    
    41   38   24 1    
@<TRIPOS>SUBSTRUCTURE
     1 NR91        1 GROUP   
@<TRIPOS>SET

