#    Name: 1eet_BFU_1_INTS_M
#    Modification time : Mon Mar 24 23:37:18 2014

@<TRIPOS>MOLECULE
1eet_BFU_1_INTS_M
   72     0     9     0     0
SMALL
NO_CHARGES


@<TRIPOS>ATOM
      1 CA         -5.5465  147.6105  175.0615 C.3       3 GLC5        0.0000 
      2 CA         -6.2890  145.9120  174.4550 C.3       9 GLL5        0.0000 
      3 CA         -4.8040  149.3090  175.6680 C.3       6 GLP5        0.0000 
      4 CA         -7.1770  146.7690  175.9790 C.3       3 GLC5        0.0000 
      5 CA         -8.0650  147.6260  177.5030 C.3       6 GLP5        0.0000 
      6 CA         -4.1065  146.1760  174.3525 C.3       3 GLC5        0.0000 
      7 CA         -1.9240  146.4400  174.2500 C.3       6 GLP5        0.0000 
      8 CA         -5.0270  146.3450  172.6995 C.3       3 GLC5        0.0000 
      9 CA         -3.7650  146.7780  170.9440 C.3       6 GLP5        0.0000 
     10 CA         -9.2630  145.7765  173.9250 C.3       3 GLC5        0.0000 
     11 CA         -8.3020  144.1240  173.6560 C.3       9 GLL5        0.0000 
     12 CA        -10.2240  147.4290  174.1940 C.3       6 GLP5        0.0000 
     13 CA         -8.0490  140.9710  172.9060 C.3       3 GLC5        0.0000 
     14 CA         -8.2090  142.7160  171.7120 C.3       9 GLL5        0.0000 
     15 CA         -7.8890  139.2260  174.1000 C.3       6 GLP5        0.0000 
     16 CA         -5.0555  145.4855  171.5800 C.3       3 GLC5        0.0000 
     17 CA         -6.3460  144.1930  172.2160 C.3       9 GLL5        0.0000 
     18 O          -8.0160  141.4790  169.7320 O.2       1 ALC1        0.0000 
     19 O          -8.8390  141.7360  170.8980 O.2       7 ALL1        0.0000 
     20 O          -7.1930  141.2220  168.5660 O.2       4 ALP1        0.0000 
     21 N          -9.1685  139.5160  169.2970 N.am      2 SEC2        0.0000 
     22 N         -10.3540  140.3790  170.0110 N.am      8 SEL2        0.0000 
     23 N          -7.9830  138.6530  168.5830 N.am      5 SEP2        0.0000 
     24 CA        -12.9785  137.6970  172.2070 C.3       3 GLC5        0.0000 
     25 CA        -12.6900  139.6160  171.9750 C.3       9 GLL5        0.0000 
     26 CA        -13.2670  135.7780  172.4390 C.3       6 GLP5        0.0000 
     27 CA        -12.6780  136.7215  175.7380 C.3       3 GLC5        0.0000 
     28 CA        -12.7050  138.1310  174.6390 C.3       9 GLL5        0.0000 
     29 CA        -12.6510  135.3120  176.8370 C.3       6 GLP5        0.0000 
     30 CA        -14.1150  138.3090  175.6770 C.3       3 GLC5        0.0000 
     31 CA        -15.5250  138.4870  176.7150 C.3       6 GLP5        0.0000 
     32 CA        -12.9860  136.9545  173.5390 C.3       3 GLC5        0.0000 
     33 CA        -10.6490  143.9220  178.4035 C.3       3 GLC5        0.0000 
     34 CA         -9.3030  142.7100  178.0720 C.3       9 GLL5        0.0000 
     35 CA        -11.9950  145.1340  178.7350 C.3       6 GLP5        0.0000 
     36 CA         -9.1630  141.4060  179.4225 C.3       3 GLC5        0.0000 
     37 CA         -9.0230  140.1020  180.7730 C.3       6 GLP5        0.0000 
     38 CA         -7.5700  141.9780  177.1805 C.3       3 GLC5        0.0000 
     39 CA         -5.8370  141.2460  176.2890 C.3       6 GLP5        0.0000 
     40 CA         -9.9230  144.4755  179.1195 C.3       3 GLC5        0.0000 
     41 CA         -8.3140  143.8980  178.1980 C.3       9 GLL5        0.0000 
     42 CA        -11.5320  145.0530  180.0410 C.3       6 GLP5        0.0000 
     43 CA         -7.3560  145.3095  178.6525 C.3       3 GLC5        0.0000 
     44 CA         -6.3980  146.7210  179.1070 C.3       6 GLP5        0.0000 
     45 CA         -8.0380  143.0545  179.9425 C.3       3 GLC5        0.0000 
     46 CA         -7.7620  142.2110  181.6870 C.3       6 GLP5        0.0000 
     47 CA         -6.5995  142.8725  178.3430 C.3       3 GLC5        0.0000 
     48 CA         -4.8850  141.8470  178.4880 C.3       6 GLP5        0.0000 
     49 CA         -7.4428  146.8805  173.5403 C.3       3 GLC5        0.0000 
     50 CA         -8.2230  148.4790  173.1700 C.3       6 GLP5        0.0000 
     51 CA         -5.5072  144.2575  175.2058 C.3       3 GLC5        0.0000 
     52 CA         -4.3520  143.2330  176.5010 C.3       6 GLP5        0.0000 
     53 CA         -7.7381  144.4266  170.3055 C.3       3 GLC5        0.0000 
     54 CA         -6.9320  143.2190  171.3800 C.3       9 GLL5        0.0000 
     55 CA         -8.5180  145.2730  168.7300 C.3       6 GLP5        0.0000 
     56 CA        -14.0745  141.0604  171.2034 C.3       3 GLC5        0.0000 
     57 CA        -15.3320  141.6560  169.8860 C.3       6 GLP5        0.0000 
     58 CA        -11.5010  137.1905  175.9942 C.3       3 GLC5        0.0000 
     59 CA        -12.1110  139.2160  175.1150 C.3       9 GLL5        0.0000 
     60 CA        -11.2670  135.2160  176.2770 C.3       6 GLP5        0.0000 
     61 CA        -13.5640  139.9955  175.7138 C.3       3 GLC5        0.0000 
     62 CA        -15.3930  140.8260  175.7160 C.3       6 GLP5        0.0000 
     63 CA        -10.7517  138.3819  174.2677 C.3       3 GLC5        0.0000 
     64 CA         -9.6200  137.8700  172.9430 C.3       6 GLP5        0.0000 
     65 CA        -12.4535  143.1078  176.2615 C.3       3 GLC5        0.0000 
     66 CA        -10.8200  141.5320  176.1900 C.3       9 GLL5        0.0000 
     67 CA        -13.7040  144.6300  176.9430 C.3       6 GLP5        0.0000 
     68 CA         -9.5339  140.2464  174.9211 C.3       3 GLC5        0.0000 
     69 CA        -11.5860  141.6390  174.9700 C.3       9 GLL5        0.0000 
     70 CA        -13.7564  140.9513  175.0461 C.3       3 GLC5        0.0000 
     71 CA        -11.1136  139.1564  172.8942 C.3       3 GLC5        0.0000 
     72 CA        -13.0730  140.5580  173.1330 C.3       9 GLL5        0.0000 
@<TRIPOS>BOND
@<TRIPOS>SUBSTRUCTURE
     1 ALC1       18 GROUP        1 X    ALC  0     ROOT ALC X 1
     2 SEC2       21 GROUP        1 X    SEC  0     **** SEC X 2
     3 GLC5        1 GROUP        1 X    GLC  0     **** GLC X 6
     4 ALP1       20 GROUP        1 Y    ALP  0     ROOT ALP Y 8
     5 SEP2       23 GROUP        1 Y    SEP  0     **** SEP Y 9
     6 GLP5        3 GROUP        1 Y    GLP  0     **** GLP Y 13
     7 ALL1       19 GROUP        1 Z    ALL  0     ROOT ALL Z 15
     8 SEL2       22 GROUP        1 Z    SEL  0     **** SEL Z 16
     9 GLL5        2 GROUP        1 Z    GLL  0     **** GLL Z 20
@<TRIPOS>SET

