#    Name: 1eet_BFU_1_ligand
#    Modification time : Mon Mar 24 23:37:18 2014

@<TRIPOS>MOLECULE
1eet_BFU_1_ligand
   43    45     1     0     0
SMALL
NO_CHARGES


@<TRIPOS>ATOM
      1 BR         -6.2890  145.9120  174.4550 Br        1 BFU2000     0.0000 
      2 C2         -7.0360  144.6520  173.3660 C.ar      1 BFU2000     0.0000 
      3 C3         -8.3020  144.1240  173.6560 C.ar      1 BFU2000     0.0000 
      4 N4         -8.8530  143.1780  172.8280 N.ar      1 BFU2000     0.0000 
      5 C5         -8.2090  142.7160  171.7120 C.ar      1 BFU2000     0.0000 
      6 C6         -6.9320  143.2190  171.3800 C.ar      1 BFU2000     0.0000 
      7 C7         -6.3460  144.1930  172.2160 C.ar      1 BFU2000     0.0000 
      8 N8         -8.8390  141.7360  170.8980 N.am      1 BFU2000     0.0000 
      9 C9        -10.0840  141.2000  170.8910 C.2       1 BFU2000     0.0000 
     10 O10       -10.3540  140.3790  170.0110 O.2       1 BFU2000     0.0000 
     11 N11       -11.0350  141.5710  171.7980 N.am      1 BFU2000     0.0000 
     12 C12       -12.4320  141.1270  171.8420 C.3       1 BFU2000     0.0000 
     13 C13       -12.6900  139.6160  171.9750 C.3       1 BFU2000     0.0000 
     14 C14       -13.0730  140.5580  173.1330 C.3       1 BFU2000     0.0000 
     15 C15       -12.2340  140.4700  174.4320 C.ar      1 BFU2000     0.0000 
     16 C16       -12.1110  139.2160  175.1150 C.ar      1 BFU2000     0.0000 
     17 F         -12.7050  138.1310  174.6390 F         1 BFU2000     0.0000 
     18 C18       -11.3590  139.1140  176.3080 C.ar      1 BFU2000     0.0000 
     19 C19       -10.7230  140.2570  176.8390 C.ar      1 BFU2000     0.0000 
     20 C20       -10.8200  141.5320  176.1900 C.ar      1 BFU2000     0.0000 
     21 C21       -11.5860  141.6390  174.9700 C.ar      1 BFU2000     0.0000 
     22 O22       -11.7220  142.8610  174.2890 O.3       1 BFU2000     0.0000 
     23 C23       -10.1200  142.7560  176.7890 C.2       1 BFU2000     0.0000 
     24 O24       -10.2310  143.8200  176.1980 O.2       1 BFU2000     0.0000 
     25 C25        -9.3030  142.7100  178.0720 C.3       1 BFU2000     0.0000 
     26 C26        -8.3140  143.8980  178.1980 C.3       1 BFU2000     0.0000 
     27 H          -8.8057  144.4531  174.4897 H         1 BFU2000     0.0000 
     28 H          -6.4456  142.8862  170.5561 H         1 BFU2000     0.0000 
     29 H          -5.4229  144.5698  171.9945 H         1 BFU2000     0.0000 
     30 H          -8.1482  141.3378  170.1065 H         1 BFU2000     0.0000 
     31 H         -10.7696  142.2584  172.5753 H         1 BFU2000     0.0000 
     32 H         -13.1948  141.4500  171.3101 H         1 BFU2000     0.0000 
     33 H         -11.8699  139.2105  172.2047 H         1 BFU2000     0.0000 
     34 H         -13.4811  139.4235  171.4986 H         1 BFU2000     0.0000 
     35 H         -14.0138  140.7059  173.0566 H         1 BFU2000     0.0000 
     36 H         -11.2767  138.2152  176.7837 H         1 BFU2000     0.0000 
     37 H         -10.1782  140.1839  177.7062 H         1 BFU2000     0.0000 
     38 H          -8.7297  141.7772  178.1087 H         1 BFU2000     0.0000 
     39 H          -9.9759  142.7269  178.9363 H         1 BFU2000     0.0000 
     40 H          -7.7855  143.8530  179.0458 H         1 BFU2000     0.0000 
     41 H          -7.6574  143.9162  177.4440 H         1 BFU2000     0.0000 
     42 H          -8.7885  144.7782  178.1948 H         1 BFU2000     0.0000 
     43 H         -11.2042  143.5201  174.8344 H         1 BFU2000     0.0000 
@<TRIPOS>BOND
     1    2    1 1    
     2    3    2 ar   
     3    7    2 ar   
     4    4    3 ar   
     5   27    3 1    
     6    5    4 ar   
     7    6    5 ar   
     8    8    5 1    
     9    7    6 ar   
    10   28    6 1    
    11   29    7 1    
    12    9    8 am   
    13   30    8 1    
    14   10    9 2    
    15   11    9 am   
    16   12   11 1    
    17   31   11 1    
    18   13   12 1    
    19   14   12 1    
    20   32   12 1    
    21   14   13 1    
    22   33   13 1    
    23   34   13 1    
    24   15   14 1    
    25   35   14 1    
    26   16   15 ar   
    27   21   15 ar   
    28   17   16 1    
    29   18   16 ar   
    30   19   18 ar   
    31   36   18 1    
    32   20   19 ar   
    33   37   19 1    
    34   21   20 ar   
    35   23   20 1    
    36   22   21 1    
    37   43   22 1    
    38   24   23 2    
    39   25   23 1    
    40   26   25 1    
    41   38   25 1    
    42   39   25 1    
    43   40   26 1    
    44   41   26 1    
    45   42   26 1    
@<TRIPOS>SUBSTRUCTURE
     1 BFU2000     1 GROUP   
@<TRIPOS>SET

