#    Name: 4gxs_0YS_1_INTS_M
#    Modification time : Mon Mar 24 23:55:11 2014

@<TRIPOS>MOLECULE
4gxs_0YS_1_INTS_M
   72     0    15     0     0
SMALL
NO_CHARGES


@<TRIPOS>ATOM
      1 N         -16.9455   12.3710    4.2515 N.am      2 SEC2        0.0000 
      2 N         -17.7900   12.2760    3.0850 N.am     12 SEL2        0.0000 
      3 N         -16.1010   12.4660    5.4180 N.am      7 SEP2        0.0000 
      4 N         -15.7175   10.5475    2.9445 N.am      2 SEC2        0.0000 
      5 N         -17.0530   10.3370    2.1600 N.am     12 SEL2        0.0000 
      6 N         -14.3820   10.7580    3.7290 N.am      7 SEP2        0.0000 
      7 CA        -17.3150   19.3860    0.8230 C.3       5 GLC5        0.0000 
      8 CA        -18.8670   18.4710    0.8370 C.3      15 GLL5        0.0000 
      9 CA        -15.7630   20.3010    0.8090 C.3      10 GLP5        0.0000 
     10 CA        -19.7035   18.2685   -1.0420 C.3       5 GLC5        0.0000 
     11 CA        -20.5400   18.0660   -2.9210 C.3      10 GLP5        0.0000 
     12 CA        -20.5410   19.3880    1.7785 C.3       5 GLC5        0.0000 
     13 CA        -21.6400   17.8350    0.6020 C.3      15 GLL5        0.0000 
     14 CA        -19.4420   20.9410    2.9550 C.3      10 GLP5        0.0000 
     15 CA        -25.4965   16.8155   -0.8185 C.3       5 GLC5        0.0000 
     16 CA        -24.3840   17.5470    0.3480 C.3      15 GLL5        0.0000 
     17 CA        -26.6090   16.0840   -1.9850 C.3      10 GLP5        0.0000 
     18 CA        -22.1585   16.3615   -1.2495 C.3       5 GLC5        0.0000 
     19 CA        -22.5050   15.4700    0.6190 C.3      15 GLL5        0.0000 
     20 CA        -21.8120   17.2530   -3.1180 C.3      10 GLP5        0.0000 
     21 CA        -17.4465   11.5165   -3.4495 C.3       5 GLC5        0.0000 
     22 CA        -16.1860   12.0460   -1.7060 C.3      15 GLL5        0.0000 
     23 CA        -18.7070   10.9870   -5.1930 C.3      10 GLP5        0.0000 
     24 CA        -14.2860   12.4890   -1.2775 C.3       5 GLC5        0.0000 
     25 CA        -15.7320   13.3330   -2.3790 C.3      15 GLL5        0.0000 
     26 CA        -12.8400   11.6450   -0.1760 C.3      10 GLP5        0.0000 
     27 N         -20.1905   15.1190   -2.9680 N.am      2 SEC2        0.0000 
     28 N         -18.8690   14.3990   -2.8600 N.am     12 SEL2        0.0000 
     29 N         -21.5120   15.8390   -3.0760 N.am      7 SEP2        0.0000 
     30 N         -18.3100   17.1470   -1.8450 N.am      2 SEC2        0.0000 
     31 N         -16.8710   16.7960   -1.7790 N.am     12 SEL2        0.0000 
     32 N         -19.7490   17.4980   -1.9110 N.am      7 SEP2        0.0000 
     33 O         -15.6930   17.3370   -2.7195 O.2       1 ALC1        0.0000 
     34 O         -16.8710   16.7960   -1.7790 O.2      11 ALL1        0.0000 
     35 O         -14.5150   17.8780   -3.6600 O.2       6 ALP1        0.0000 
     36 CA        -13.8190   14.8050    0.3560 C.3       5 GLC5        0.0000 
     37 CA        -14.9790   15.6910   -0.6810 C.3      15 GLL5        0.0000 
     38 CA        -12.6590   13.9190    1.3930 C.3      10 GLP5        0.0000 
     39 OD1       -14.2215   17.2645   -2.3150 O.co2     3 ASC3        0.0000 
     40 OD1       -13.9280   16.6510   -0.9700 O.co2    13 ASL3        0.0000 
     41 OD1       -14.5150   17.8780   -3.6600 O.co2     8 ASP3        0.0000 
     42 O         -12.6380   16.8580   -0.2485 O.2       1 ALC1        0.0000 
     43 O         -13.9280   16.6510   -0.9700 O.2      11 ALL1        0.0000 
     44 O         -11.3480   17.0650    0.4730 O.2       6 ALP1        0.0000 
     45 O         -14.5620   18.1820   -0.6615 O.2       1 ALC1        0.0000 
     46 O         -15.1960   19.7130   -0.3530 O.2       6 ALP1        0.0000 
     47 O         -14.2215   17.2645   -2.3150 O.2       1 ALC1        0.0000 
     48 NZ        -16.8030   15.4965    2.4620 N.4       4 LYC4        0.0000 
     49 NZ        -16.4440   15.3100    1.1800 N.4      14 LYL4        0.0000 
     50 NZ        -17.0290   16.8710    4.2990 N.4       9 LYP4        0.0000 
     51 N         -16.8030   15.4965    2.4620 N.am      2 SEC2        0.0000 
     52 N         -16.4440   15.3100    1.1800 N.am     12 SEL2        0.0000 
     53 N         -17.1620   15.6830    3.7440 N.am      7 SEP2        0.0000 
     54 NZ        -16.0335   16.2790    2.6365 N.4       4 LYC4        0.0000 
     55 NZ        -14.9050   16.8750    1.5290 N.4      14 LYL4        0.0000 
     56 N         -14.3845   18.1490    1.8130 N.am      2 SEC2        0.0000 
     57 N         -14.9050   16.8750    1.5290 N.am     12 SEL2        0.0000 
     58 N         -13.8640   19.4230    2.0970 N.am      7 SEP2        0.0000 
     59 N         -15.6590   17.3605    2.5820 N.am      2 SEC2        0.0000 
     60 N         -16.4130   17.8460    3.6350 N.am      7 SEP2        0.0000 
     61 N         -16.0335   16.2790    2.6365 N.am      2 SEC2        0.0000 
     62 CA        -21.8890   14.3652   -1.1372 C.3       5 GLC5        0.0000 
     63 CA        -21.1030   14.9830    0.7780 C.3      15 GLL5        0.0000 
     64 CA        -21.9740   13.5040   -2.9730 C.3      10 GLP5        0.0000 
     65 CA        -19.5005   19.4207    1.8787 C.3       5 GLC5        0.0000 
     66 CA        -20.2510   17.3300    0.7680 C.3      15 GLL5        0.0000 
     67 CA        -20.7126   17.6476   -1.1082 C.3       5 GLC5        0.0000 
     68 CA        -22.6842   17.2372   -1.3377 C.3       5 GLC5        0.0000 
     69 CA        -22.7290   16.8960    0.5370 C.3      15 GLL5        0.0000 
     70 CA        -15.1625   12.0250   -0.1117 C.3       5 GLC5        0.0000 
     71 CA        -17.1500   12.4600   -0.6030 C.3      15 GLL5        0.0000 
     72 CA        -13.6570   11.7970    0.9310 C.3      10 GLP5        0.0000 
@<TRIPOS>BOND
@<TRIPOS>SUBSTRUCTURE
     1 ALC1       33 GROUP        1 X    ALC  0     ROOT ALC X 1
     2 SEC2        1 GROUP        1 X    SEC  0     **** SEC X 2
     3 ASC3       39 GROUP        1 X    ASC  0     **** ASC X 3
     4 LYC4       48 GROUP        1 X    LYC  0     **** LYC X 4
     5 GLC5        7 GROUP        1 X    GLC  0     **** GLC X 6
     6 ALP1       35 GROUP        1 Y    ALP  0     ROOT ALP Y 8
     7 SEP2        3 GROUP        1 Y    SEP  0     **** SEP Y 9
     8 ASP3       41 GROUP        1 Y    ASP  0     **** ASP Y 10
     9 LYP4       50 GROUP        1 Y    LYP  0     **** LYP Y 11
    10 GLP5        9 GROUP        1 Y    GLP  0     **** GLP Y 13
    11 ALL1       34 GROUP        1 Z    ALL  0     ROOT ALL Z 15
    12 SEL2        2 GROUP        1 Z    SEL  0     **** SEL Z 16
    13 ASL3       40 GROUP        1 Z    ASL  0     **** ASL Z 17
    14 LYL4       49 GROUP        1 Z    LYL  0     **** LYL Z 18
    15 GLL5        8 GROUP        1 Z    GLL  0     **** GLL Z 20
@<TRIPOS>SET

