#    Name: 4gxs_0YS_1_ligand
#    Modification time : Mon Mar 24 23:55:11 2014

@<TRIPOS>MOLECULE
4gxs_0YS_1_ligand
   49    50     1     0     0
SMALL
NO_CHARGES


@<TRIPOS>ATOM
      1 O7        -17.7900   12.2760    3.0850 O.co2     1 0YS301      0.0000 
      2 C17       -17.9920   11.3980    2.3030 C.2       1 0YS301      0.0000 
      3 O8        -17.0530   10.3370    2.1600 O.co2     1 0YS301      0.0000 
      4 C9        -18.9860   11.6930    1.1660 C.3       1 0YS301      0.0000 
      5 N1        -19.4410   13.0930    1.3370 N.am      1 0YS301      0.0000 
      6 C10       -20.7480   13.4830    0.8270 C.2       1 0YS301      0.0000 
      7 C11       -21.1030   14.9830    0.7780 C.ar      1 0YS301      0.0000 
      8 C16       -20.0100   15.9170    0.8460 C.ar      1 0YS301      0.0000 
      9 C15       -20.2510   17.3300    0.7680 C.ar      1 0YS301      0.0000 
     10 CL1       -18.8670   18.4710    0.8370 Cl        1 0YS301      0.0000 
     11 C14       -21.6400   17.8350    0.6020 C.ar      1 0YS301      0.0000 
     12 O6        -21.8840   19.2100    0.4790 O.co2     1 0YS301      0.0000 
     13 C13       -22.7290   16.8960    0.5370 C.ar      1 0YS301      0.0000 
     14 CL        -24.3840   17.5470    0.3480 Cl        1 0YS301      0.0000 
     15 C12       -22.5050   15.4700    0.6190 C.ar      1 0YS301      0.0000 
     16 O5        -21.4530   12.6350    0.3960 O.2       1 0YS301      0.0000 
     17 C8        -18.4000   11.5550   -0.2850 C.3       1 0YS301      0.0000 
     18 C7        -17.1500   12.4600   -0.6030 C.3       1 0YS301      0.0000 
     19 C6        -16.1860   12.0460   -1.7060 C.3       1 0YS301      0.0000 
     20 C5        -15.7320   13.3330   -2.3790 C.3       1 0YS301      0.0000 
     21 N2        -17.4000   13.9280   -0.8700 N.4       1 0YS301      0.0000 
     22 C3        -16.7420   14.3190   -2.0900 C.3       1 0YS301      0.0000 
     23 C4        -17.7140   14.5310   -3.1290 C.2       1 0YS301      0.0000 
     24 O4        -18.8690   14.3990   -2.8600 O.co2     1 0YS301      0.0000 
     25 O3        -17.3810   15.2560   -4.2950 O.co2     1 0YS301      0.0000 
     26 C2        -16.0170   15.6880   -1.8340 C.3       1 0YS301      0.0000 
     27 O2        -16.8710   16.7960   -1.7790 O.3       1 0YS301      0.0000 
     28 C         -14.9790   15.6910   -0.6810 C.3       1 0YS301      0.0000 
     29 N         -13.9280   16.6510   -0.9700 N.4       1 0YS301      0.0000 
     30 C1        -15.6390   16.0410    0.6800 C.2       1 0YS301      0.0000 
     31 O         -16.4440   15.3100    1.1800 O.co2     1 0YS301      0.0000 
     32 O1        -14.9050   16.8750    1.5290 O.co2     1 0YS301      0.0000 
     33 H         -19.8322   11.0373    1.2548 H         1 0YS301      0.0000 
     34 H         -18.8511   13.7511    1.7972 H         1 0YS301      0.0000 
     35 H         -19.0594   15.5713    0.9502 H         1 0YS301      0.0000 
     36 H         -23.2469   14.8170    0.5731 H         1 0YS301      0.0000 
     37 H         -19.1942   11.7964   -1.0067 H         1 0YS301      0.0000 
     38 H         -18.1171   10.5047   -0.4489 H         1 0YS301      0.0000 
     39 H         -16.5026   12.4593    0.3506 H         1 0YS301      0.0000 
     40 H         -16.6947   11.4266   -2.4164 H         1 0YS301      0.0000 
     41 H         -15.3418   11.5445   -1.2782 H         1 0YS301      0.0000 
     42 H         -15.6432   13.1504   -3.4410 H         1 0YS301      0.0000 
     43 H         -14.7711   13.6123   -1.9693 H         1 0YS301      0.0000 
     44 H         -15.3549   15.8203   -2.7866 H         1 0YS301      0.0000 
     45 H         -14.5674   14.6936   -0.6018 H         1 0YS301      0.0000 
     46 H         -14.1453   17.5588   -0.6112 H         1 0YS301      0.0000 
     47 H         -13.0545   16.3780   -0.5670 H         1 0YS301      0.0000 
     48 H         -13.7781   16.7527   -1.9534 H         1 0YS301      0.0000 
     49 H         -16.3328   17.5558   -2.1438 H         1 0YS301      0.0000 
@<TRIPOS>BOND
     1    2    1 ar   
     2    3    2 ar   
     3    4    2 1    
     4    5    4 1    
     5   17    4 1    
     6   33    4 1    
     7    6    5 am   
     8   34    5 1    
     9    7    6 1    
    10   16    6 2    
    11    8    7 ar   
    12   15    7 ar   
    13    9    8 ar   
    14   35    8 1    
    15   10    9 1    
    16   11    9 ar   
    17   12   11 1    
    18   13   11 ar   
    19   14   13 1    
    20   15   13 ar   
    21   36   15 1    
    22   18   17 1    
    23   37   17 1    
    24   38   17 1    
    25   19   18 1    
    26   21   18 1    
    27   39   18 1    
    28   20   19 1    
    29   40   19 1    
    30   41   19 1    
    31   22   20 1    
    32   42   20 1    
    33   43   20 1    
    34   22   21 1    
    35   23   22 1    
    36   26   22 1    
    37   24   23 ar   
    38   25   23 ar   
    39   27   26 1    
    40   28   26 1    
    41   44   26 1    
    42   49   27 1    
    43   29   28 1    
    44   30   28 1    
    45   45   28 1    
    46   46   29 1    
    47   47   29 1    
    48   48   29 1    
    49   31   30 ar   
    50   32   30 ar   
@<TRIPOS>SUBSTRUCTURE
     1 0YS301      1 GROUP   
@<TRIPOS>SET

