#    Name: 3i99_FAD_1_INTS_M
#    Modification time : Tue Mar 25 16:00:56 2014

@<TRIPOS>MOLECULE
3i99_FAD_1_INTS_M
  125     0     9     0     0
SMALL
NO_CHARGES


@<TRIPOS>ATOM
      1 N          37.8905    8.8265   19.1790 N.am      2 SEC2        0.0000 
      2 N          39.2140    9.3300   19.1750 N.am      8 SEL2        0.0000 
      3 N          36.5670    8.3230   19.1830 N.am      5 SEP2        0.0000 
      4 N          42.7550    9.2725   20.8070 N.am      2 SEC2        0.0000 
      5 N          41.5620    9.1710   20.0740 N.am      8 SEL2        0.0000 
      6 N          43.9480    9.3740   21.5400 N.am      5 SEP2        0.0000 
      7 N          41.2315    7.7810   20.3945 N.am      2 SEC2        0.0000 
      8 N          40.9010    6.3910   20.7150 N.am      5 SEP2        0.0000 
      9 CA         37.8295   11.4565   18.7575 C.3       3 GLC5        0.0000 
     10 CA         39.7810   12.2550   18.6210 C.3       9 GLL5        0.0000 
     11 CA         35.8780   10.6580   18.8940 C.3       6 GLP5        0.0000 
     12 CA         40.1925   15.5650   18.5960 C.3       3 GLC5        0.0000 
     13 CA         40.4260   13.4390   17.9330 C.3       9 GLL5        0.0000 
     14 CA         39.9590   17.6910   19.2590 C.3       6 GLP5        0.0000 
     15 O          44.5935   12.4495   17.1115 O.2       1 ALC1        0.0000 
     16 O          43.7610   13.2550   16.5570 O.2       7 ALL1        0.0000 
     17 O          45.4260   11.6440   17.6660 O.2       4 ALP1        0.0000 
     18 CA         41.2660   16.0020   18.7975 C.3       3 GLC5        0.0000 
     19 CA         42.5730   14.3130   18.3360 C.3       9 GLL5        0.0000 
     20 CA         46.8980   14.2000   21.0095 C.3       3 GLC5        0.0000 
     21 CA         45.7860   15.4170   21.9370 C.3       9 GLL5        0.0000 
     22 CA         48.0100   12.9830   20.0820 C.3       6 GLP5        0.0000 
     23 CA         47.9165   15.6715   21.8125 C.3       3 GLC5        0.0000 
     24 CA         50.0470   15.9260   21.6880 C.3       6 GLP5        0.0000 
     25 CA         45.7825   17.0215   23.2190 C.3       3 GLC5        0.0000 
     26 CA         45.7790   18.6260   24.5010 C.3       6 GLP5        0.0000 
     27 O          47.2970   15.8465   24.0135 O.2       1 ALC1        0.0000 
     28 O          46.3740   15.0130   23.0810 O.2       7 ALL1        0.0000 
     29 O          48.2200   16.6800   24.9460 O.2       4 ALP1        0.0000 
     30 N          46.9375   17.4565   22.2030 N.am      2 SEC2        0.0000 
     31 N          46.1090   16.6430   21.4550 N.am      8 SEL2        0.0000 
     32 N          47.7660   18.2700   22.9510 N.am      5 SEP2        0.0000 
     33 CA         46.2090   15.6065   19.2135 C.3       3 GLC5        0.0000 
     34 CA         45.5420   17.1210   20.2930 C.3       9 GLL5        0.0000 
     35 CA         46.8760   14.0920   18.1340 C.3       6 GLP5        0.0000 
     36 CA         43.8945   17.8350   20.7455 C.3       3 GLC5        0.0000 
     37 CA         42.2470   18.5490   21.1980 C.3       6 GLP5        0.0000 
     38 CA         47.3995   17.6935   20.6775 C.3       3 GLC5        0.0000 
     39 CA         49.2570   18.2660   21.0620 C.3       6 GLP5        0.0000 
     40 CA         45.2955   18.3915   21.9805 C.3       3 GLC5        0.0000 
     41 CA         45.0490   19.6620   23.6680 C.3       6 GLP5        0.0000 
     42 CA         42.7675   16.2715   20.7335 C.3       3 GLC5        0.0000 
     43 CA         44.2890   15.1430   20.0500 C.3       9 GLL5        0.0000 
     44 CA         41.2460   17.4000   21.4170 C.3       6 GLP5        0.0000 
     45 N          30.7545   15.5290   24.9240 N.am      2 SEC2        0.0000 
     46 N          31.0720   14.4300   23.7410 N.am      8 SEL2        0.0000 
     47 N          30.4370   16.6280   26.1070 N.am      5 SEP2        0.0000 
     48 O          29.0180   13.9755   25.5205 O.2       1 ALC1        0.0000 
     49 O          29.7340   12.9530   24.8630 O.2       7 ALL1        0.0000 
     50 O          28.3020   14.9980   26.1780 O.2       4 ALP1        0.0000 
     51 N          28.0775   10.6995   27.2125 N.am      2 SEC2        0.0000 
     52 N          28.3970   11.4680   25.9340 N.am      8 SEL2        0.0000 
     53 N          27.7580    9.9310   28.4910 N.am      5 SEP2        0.0000 
     54 N          29.3135    8.7685   26.0790 N.am      2 SEC2        0.0000 
     55 N          29.6800    9.3180   24.7180 N.am      8 SEL2        0.0000 
     56 N          28.9470    8.2190   27.4400 N.am      5 SEP2        0.0000 
     57 CA         28.3175    6.5420   25.2280 C.3       3 GLC5        0.0000 
     58 CA         30.0660    6.9760   24.2950 C.3       9 GLL5        0.0000 
     59 CA         26.5690    6.1080   26.1610 C.3       6 GLP5        0.0000 
     60 CA         32.0825    5.1260   24.9350 C.3       3 GLC5        0.0000 
     61 CA         30.4090    4.5030   23.9540 C.3       9 GLL5        0.0000 
     62 CA         33.7560    5.7490   25.9160 C.3       6 GLP5        0.0000 
     63 CA         31.5895    2.8240   23.7335 C.3       3 GLC5        0.0000 
     64 CA         32.7700    1.1450   23.5130 C.3       6 GLP5        0.0000 
     65 CA         34.1090    3.8630   21.5340 C.3       3 GLC5        0.0000 
     66 CA         32.6290    5.1940   22.0770 C.3       9 GLL5        0.0000 
     67 CA         35.5890    2.5320   20.9910 C.3       6 GLP5        0.0000 
     68 CA         34.4775    5.8605   22.1800 C.3       3 GLC5        0.0000 
     69 CA         36.3260    6.5270   22.2830 C.3       6 GLP5        0.0000 
     70 CA         32.6995    3.1695   22.7950 C.3       3 GLC5        0.0000 
     71 CA         34.2470    7.0745   22.4185 C.3       3 GLC5        0.0000 
     72 CA         32.1680    7.6220   22.5540 C.3       9 GLL5        0.0000 
     73 CA         35.2530    8.4705   22.4525 C.3       3 GLC5        0.0000 
     74 CA         34.1800   10.4140   22.6220 C.3       9 GLL5        0.0000 
     75 O          35.3565    8.7450   23.3640 O.2       1 ALC1        0.0000 
     76 O          34.1220    9.7060   23.8530 O.2       7 ALL1        0.0000 
     77 O          36.5910    7.7840   22.8750 O.2       4 ALP1        0.0000 
     78 CA         36.5840   10.9495   20.6730 C.3       3 GLC5        0.0000 
     79 CA         37.2900   11.2410   22.4520 C.3       9 GLL5        0.0000 
     80 CA         37.9630   10.0880   24.2520 C.3       3 GLC5        0.0000 
     81 CA         38.6360    8.9350   26.0520 C.3       6 GLP5        0.0000 
     82 CA         38.9930   12.3060   22.9800 C.3       3 GLC5        0.0000 
     83 CA         40.6960   13.3710   23.5080 C.3       6 GLP5        0.0000 
     84 N          41.3020    8.6300   23.4385 N.am      2 SEC2        0.0000 
     85 N          40.6490    9.9740   23.6480 N.am      8 SEL2        0.0000 
     86 N          41.9550    7.2860   23.2290 N.am      5 SEP2        0.0000 
     87 N          40.6685   10.0075   25.1480 N.am      2 SEC2        0.0000 
     88 N          40.6880   10.0410   26.6480 N.am      5 SEP2        0.0000 
     89 N          41.2470   11.2365   23.5950 N.am      2 SEC2        0.0000 
     90 N          41.8450   12.4990   23.5420 N.am      5 SEP2        0.0000 
     91 N          40.5105    7.9440   22.6875 N.am      2 SEC2        0.0000 
     92 N          39.0660    8.6020   22.1460 N.am      8 SEL2        0.0000 
     93 N          38.5615    7.6270   21.3525 N.am      2 SEC2        0.0000 
     94 N          38.0570    6.6520   20.5590 N.am      5 SEP2        0.0000 
     95 N          37.8285    8.1930   22.5105 N.am      2 SEC2        0.0000 
     96 N          36.5910    7.7840   22.8750 N.am      5 SEP2        0.0000 
     97 CA         40.7597   11.2385   17.3400 C.3       3 GLC5        0.0000 
     98 CA         41.4160    9.6300   16.4030 C.3       6 GLP5        0.0000 
     99 CA         39.3145   12.9597   15.9862 C.3       3 GLC5        0.0000 
    100 CA         41.3380   12.9860   16.7720 C.3       9 GLL5        0.0000 
    101 CA         37.7470   12.7070   14.6200 C.3       6 GLP5        0.0000 
    102 CA         41.7147   11.3377   16.7523 C.3       3 GLC5        0.0000 
    103 CA         44.7535   13.9005   18.0087 C.3       3 GLC5        0.0000 
    104 CA         42.6890   13.1050   17.4310 C.3       9 GLL5        0.0000 
    105 CA         45.7270   14.4923   19.3807 C.3       3 GLC5        0.0000 
    106 CA         29.6955    7.1820   22.2780 C.3       3 GLC5        0.0000 
    107 CA         29.1650    6.7170   20.3830 C.3       6 GLP5        0.0000 
    108 CA         31.7940    6.9185   25.1363 C.3       3 GLC5        0.0000 
    109 CA         30.8000    5.9470   23.6820 C.3       9 GLL5        0.0000 
    110 CA         33.0750    7.0400   26.3450 C.3       6 GLP5        0.0000 
    111 CA         29.8848    5.9710   22.1005 C.3       3 GLC5        0.0000 
    112 CA         32.9960    5.7427   24.1765 C.3       3 GLC5        0.0000 
    113 CA         31.8430    6.2790   22.7970 C.3       9 GLL5        0.0000 
    114 CA         32.2205    5.6077   20.4690 C.3       3 GLC5        0.0000 
    115 CA         32.2050    5.4790   18.5010 C.3       6 GLP5        0.0000 
    116 CA         30.7005    6.2267   21.4100 C.3       3 GLC5        0.0000 
    117 CA         32.4368    7.5817   24.6032 C.3       3 GLC5        0.0000 
    118 CA         30.4817    7.4202   21.6223 C.3       3 GLC5        0.0000 
    119 CA         31.4290    8.6250   23.1690 C.3       9 GLL5        0.0000 
    120 CA         33.6927   11.0155   24.7600 C.3       3 GLC5        0.0000 
    121 CA         32.9030   10.9250   26.7960 C.3       6 GLP5        0.0000 
    122 CA         35.0102   10.8723   20.7224 C.3       3 GLC5        0.0000 
    123 CA         34.7850   11.7980   22.8260 C.3       9 GLL5        0.0000 
    124 CA         34.9735   13.3315   24.1265 C.3       3 GLC5        0.0000 
    125 CA         34.4590   14.8880   25.1380 C.3       6 GLP5        0.0000 
@<TRIPOS>BOND
@<TRIPOS>SUBSTRUCTURE
     1 ALC1       15 GROUP        1 X    ALC  0     ROOT ALC X 1
     2 SEC2        1 GROUP        1 X    SEC  0     **** SEC X 2
     3 GLC5        9 GROUP        1 X    GLC  0     **** GLC X 6
     4 ALP1       17 GROUP        1 Y    ALP  0     ROOT ALP Y 8
     5 SEP2        3 GROUP        1 Y    SEP  0     **** SEP Y 9
     6 GLP5       11 GROUP        1 Y    GLP  0     **** GLP Y 13
     7 ALL1       16 GROUP        1 Z    ALL  0     ROOT ALL Z 15
     8 SEL2        2 GROUP        1 Z    SEL  0     **** SEL Z 16
     9 GLL5       10 GROUP        1 Z    GLL  0     **** GLL Z 20
@<TRIPOS>SET

