#    Name: 3i99_FAD_1_ligand
#    Modification time : Tue Mar 25 16:00:56 2014

@<TRIPOS>MOLECULE
3i99_FAD_1_ligand
   84    89     1     0     0
SMALL
NO_CHARGES


@<TRIPOS>ATOM
      1 PA         40.3170   10.0380   19.8720 P.3       1 FAD358      0.0000 
      2 O1A        39.2140    9.3300   19.1750 O.co2     1 FAD358      0.0000 
      3 O2A        41.5620    9.1710   20.0740 O.co2     1 FAD358      0.0000 
      4 O5B        40.7680   11.3040   19.0030 O.3       1 FAD358      0.0000 
      5 C5B        39.7810   12.2550   18.6210 C.3       1 FAD358      0.0000 
      6 C4B        40.4260   13.4390   17.9330 C.3       1 FAD358      0.0000 
      7 O4B        41.2440   14.2380   18.8190 O.3       1 FAD358      0.0000 
      8 C3B        41.3380   12.9860   16.7720 C.3       1 FAD358      0.0000 
      9 O3B        41.2290   14.0030   15.8040 O.3       1 FAD358      0.0000 
     10 C2B        42.6890   13.1050   17.4310 C.3       1 FAD358      0.0000 
     11 O2B        43.7610   13.2550   16.5570 O.3       1 FAD358      0.0000 
     12 C1B        42.5730   14.3130   18.3360 C.3       1 FAD358      0.0000 
     13 N9A        43.4260   14.1910   19.5440 N.pl3     1 FAD358      0.0000 
     14 C8A        43.4540   13.1100   20.4230 C.2       1 FAD358      0.0000 
     15 N7A        44.3220   13.4180   21.4280 N.2       1 FAD358      0.0000 
     16 C5A        44.8670   14.6420   21.2050 C.ar      1 FAD358      0.0000 
     17 C6A        45.7860   15.4170   21.9370 C.ar      1 FAD358      0.0000 
     18 N6A        46.3740   15.0130   23.0810 N.pl3     1 FAD358      0.0000 
     19 N1A        46.1090   16.6430   21.4550 N.ar      1 FAD358      0.0000 
     20 C2A        45.5420   17.1210   20.2930 C.ar      1 FAD358      0.0000 
     21 N3A        44.6590   16.3480   19.5760 N.ar      1 FAD358      0.0000 
     22 C4A        44.2890   15.1430   20.0500 C.ar      1 FAD358      0.0000 
     23 N1         31.4460   12.2700   23.3550 N.2       1 FAD358      0.0000 
     24 C2         30.7660   13.2630   23.9880 C.2       1 FAD358      0.0000 
     25 O2         31.0720   14.4300   23.7410 O.2       1 FAD358      0.0000 
     26 N3         29.7340   12.9530   24.8630 N.am      1 FAD358      0.0000 
     27 C4         29.3420   11.6760   25.1150 C.2       1 FAD358      0.0000 
     28 O4         28.3970   11.4680   25.9340 O.2       1 FAD358      0.0000 
     29 C4X        30.0430   10.6300   24.4890 C.2       1 FAD358      0.0000 
     30 N5         29.6800    9.3180   24.7180 N.2       1 FAD358      0.0000 
     31 C5X        30.3860    8.3180   24.0510 C.ar      1 FAD358      0.0000 
     32 C6         30.0660    6.9760   24.2950 C.ar      1 FAD358      0.0000 
     33 C7         30.8000    5.9470   23.6820 C.ar      1 FAD358      0.0000 
     34 C7M        30.4090    4.5030   23.9540 C.3       1 FAD358      0.0000 
     35 C8         31.8430    6.2790   22.7970 C.ar      1 FAD358      0.0000 
     36 C8M        32.6290    5.1940   22.0770 C.3       1 FAD358      0.0000 
     37 C9         32.1680    7.6220   22.5540 C.ar      1 FAD358      0.0000 
     38 C9A        31.4290    8.6250   23.1690 C.ar      1 FAD358      0.0000 
     39 N10        31.7570    9.9430   22.9260 N.pl3     1 FAD358      0.0000 
     40 C10        31.0620   10.9350   23.5880 C.2       1 FAD358      0.0000 
     41 C1'        32.8200   10.3360   21.9290 C.3       1 FAD358      0.0000 
     42 C2'        34.1800   10.4140   22.6220 C.3       1 FAD358      0.0000 
     43 O2'        34.1220    9.7060   23.8530 O.3       1 FAD358      0.0000 
     44 C3'        34.7850   11.7980   22.8260 C.3       1 FAD358      0.0000 
     45 O3'        34.8350   12.5290   21.6100 O.3       1 FAD358      0.0000 
     46 C4'        36.1910   11.7520   23.4040 C.3       1 FAD358      0.0000 
     47 O4'        36.5710   13.0800   23.7860 O.3       1 FAD358      0.0000 
     48 C5'        37.2900   11.2410   22.4520 C.3       1 FAD358      0.0000 
     49 O5'        38.4340   10.8500   23.2120 O.3       1 FAD358      0.0000 
     50 P          39.6220    9.9520   22.5580 P.3       1 FAD358      0.0000 
     51 O1P        40.6490    9.9740   23.6480 O.co2     1 FAD358      0.0000 
     52 O2P        39.0660    8.6020   22.1460 O.co2     1 FAD358      0.0000 
     53 O3P        39.9760   10.7480   21.2340 O.3       1 FAD358      0.0000 
     54 H          39.2227   12.6317   19.4920 H         1 FAD358      0.0000 
     55 H          39.0453   11.8192   17.9273 H         1 FAD358      0.0000 
     56 H          39.6468   14.0592   17.4883 H         1 FAD358      0.0000 
     57 H          41.1223   12.0522   16.5038 H         1 FAD358      0.0000 
     58 H          42.8035   12.2425   18.0940 H         1 FAD358      0.0000 
     59 H          42.7524   15.1867   17.8121 H         1 FAD358      0.0000 
     60 H          42.9520   12.3105   20.3240 H         1 FAD358      0.0000 
     61 H          46.1552   14.0857   23.3845 H         1 FAD358      0.0000 
     62 H          46.9766   15.6766   23.5242 H         1 FAD358      0.0000 
     63 H          45.7843   18.0718   19.9578 H         1 FAD358      0.0000 
     64 H          29.2416   13.7489   25.3459 H         1 FAD358      0.0000 
     65 H          29.2901    6.7413   24.9258 H         1 FAD358      0.0000 
     66 H          32.9429    7.8542   21.9289 H         1 FAD358      0.0000 
     67 H          32.5834   11.3070   21.5019 H         1 FAD358      0.0000 
     68 H          32.8694    9.5976   21.1331 H         1 FAD358      0.0000 
     69 H          34.8991    9.8516   21.9504 H         1 FAD358      0.0000 
     70 H          34.1570   12.3342   23.5534 H         1 FAD358      0.0000 
     71 H          36.1910   11.1137   24.2842 H         1 FAD358      0.0000 
     72 H          37.5195   12.0493   21.7518 H         1 FAD358      0.0000 
     73 H          36.8700   10.4059   21.8841 H         1 FAD358      0.0000 
     74 H          30.9993    3.8601   23.4659 H         1 FAD358      0.0000 
     75 H          30.4717    4.2781   24.9264 H         1 FAD358      0.0000 
     76 H          29.4695    4.3126   23.6691 H         1 FAD358      0.0000 
     77 H          33.3330    5.5793   21.4804 H         1 FAD358      0.0000 
     78 H          33.0914    4.5824   22.7189 H         1 FAD358      0.0000 
     79 H          32.0384    4.6256   21.5042 H         1 FAD358      0.0000 
     80 H          42.1721   14.2439   15.5746 H         1 FAD358      0.0000 
     81 H          44.2102   12.3617   16.5429 H         1 FAD358      0.0000 
     82 H          34.7713    8.9526   23.7490 H         1 FAD358      0.0000 
     83 H          34.0407   13.1357   21.6401 H         1 FAD358      0.0000 
     84 H          37.0861   12.9674   24.6357 H         1 FAD358      0.0000 
@<TRIPOS>BOND
     1    2    1 ar   
     2    3    1 ar   
     3    4    1 1    
     4   53    1 1    
     5    5    4 1    
     6    6    5 1    
     7   54    5 1    
     8   55    5 1    
     9    7    6 1    
    10    8    6 1    
    11   56    6 1    
    12   12    7 1    
    13    9    8 1    
    14   10    8 1    
    15   57    8 1    
    16   80    9 1    
    17   11   10 1    
    18   12   10 1    
    19   58   10 1    
    20   81   11 1    
    21   13   12 1    
    22   59   12 1    
    23   14   13 1    
    24   22   13 1    
    25   15   14 2    
    26   60   14 1    
    27   16   15 1    
    28   17   16 ar   
    29   22   16 ar   
    30   18   17 1    
    31   19   17 ar   
    32   61   18 1    
    33   62   18 1    
    34   20   19 ar   
    35   21   20 ar   
    36   63   20 1    
    37   22   21 ar   
    38   24   23 1    
    39   40   23 2    
    40   25   24 2    
    41   26   24 am   
    42   27   26 am   
    43   64   26 1    
    44   28   27 2    
    45   29   27 1    
    46   30   29 2    
    47   40   29 1    
    48   31   30 1    
    49   32   31 ar   
    50   38   31 ar   
    51   33   32 ar   
    52   65   32 1    
    53   34   33 1    
    54   35   33 ar   
    55   74   34 1    
    56   75   34 1    
    57   76   34 1    
    58   36   35 1    
    59   37   35 ar   
    60   77   36 1    
    61   78   36 1    
    62   79   36 1    
    63   38   37 ar   
    64   66   37 1    
    65   39   38 1    
    66   40   39 1    
    67   41   39 1    
    68   42   41 1    
    69   67   41 1    
    70   68   41 1    
    71   43   42 1    
    72   44   42 1    
    73   69   42 1    
    74   82   43 1    
    75   45   44 1    
    76   46   44 1    
    77   70   44 1    
    78   83   45 1    
    79   47   46 1    
    80   48   46 1    
    81   71   46 1    
    82   84   47 1    
    83   49   48 1    
    84   72   48 1    
    85   73   48 1    
    86   50   49 1    
    87   51   50 ar   
    88   52   50 ar   
    89   53   50 1    
@<TRIPOS>SUBSTRUCTURE
     1 FAD358      1 GROUP   
@<TRIPOS>SET

