#    Name: 4ec3_REN_1_INTS_M
#    Modification time : Mon Apr  7 23:33:39 2014

@<TRIPOS>MOLECULE
4ec3_REN_1_INTS_M
   76     0    12     0     0
SMALL
NO_CHARGES


@<TRIPOS>ATOM
      1 CA         28.9205   31.6560   16.2190 C.3       4 GLC5        0.0000 
      2 CA         29.2710   32.9210   18.0010 C.3      12 GLL5        0.0000 
      3 CA         28.5700   30.3910   14.4370 C.3       8 GLP5        0.0000 
      4 CA         26.3980   35.8195   16.5760 C.3       4 GLC5        0.0000 
      5 CA         27.2780   34.4450   18.0010 C.3      12 GLL5        0.0000 
      6 CA         25.5180   37.1940   15.1510 C.3       8 GLP5        0.0000 
      7 CA         27.2020   34.1635   16.0700 C.3       4 GLC5        0.0000 
      8 CA         27.1260   33.8820   14.1390 C.3       8 GLP5        0.0000 
      9 CA         25.3920   36.0170   17.5690 C.3       4 GLC5        0.0000 
     10 CA         26.3000   34.6830   19.0880 C.3      12 GLL5        0.0000 
     11 CA         24.4840   37.3510   16.0500 C.3       8 GLP5        0.0000 
     12 CA         25.6765   32.9700   19.5300 C.3       4 GLC5        0.0000 
     13 CA         25.0530   31.2570   19.9720 C.3       8 GLP5        0.0000 
     14 OD1        25.2030   35.3185   20.2200 O.co2     3 ASC3        0.0000 
     15 OD1        26.9070   35.6860   19.9030 O.co2    11 ASL3        0.0000 
     16 OD1        23.4990   34.9510   20.5370 O.co2     7 ASP3        0.0000 
     17 CA         27.9255   32.6270   22.2235 C.3       4 GLC5        0.0000 
     18 CA         27.7450   34.7000   22.1040 C.3      12 GLL5        0.0000 
     19 CA         28.1060   30.5540   22.3430 C.3       8 GLP5        0.0000 
     20 CA         26.5165   39.4525   27.8965 C.3       4 GLC5        0.0000 
     21 CA         26.5500   37.7050   27.7550 C.3      12 GLL5        0.0000 
     22 CA         26.4830   41.2000   28.0380 C.3       8 GLP5        0.0000 
     23 CA         25.6130   37.6570   29.2720 C.3       4 GLC5        0.0000 
     24 CA         24.6760   37.6090   30.7890 C.3       8 GLP5        0.0000 
     25 CA         27.9440   37.1310   28.7470 C.3       4 GLC5        0.0000 
     26 CA         29.3380   36.5570   29.7390 C.3       8 GLP5        0.0000 
     27 N          23.6105   37.6675   25.5660 N.am      2 SEC2        0.0000 
     28 N          24.6140   37.6670   24.5110 N.am     10 SEL2        0.0000 
     29 N          22.6070   37.6680   26.6210 N.am      6 SEP2        0.0000 
     30 O          23.8475   36.9540   23.3950 O.2       1 ALC1        0.0000 
     31 O          24.6140   37.6670   24.5110 O.2       9 ALL1        0.0000 
     32 O          23.0810   36.2410   22.2790 O.2       5 ALP1        0.0000 
     33 CA         29.7205   36.1095   18.9590 C.3       4 GLC5        0.0000 
     34 CA         28.8950   34.2930   19.9740 C.3      12 GLL5        0.0000 
     35 CA         30.5460   37.9260   17.9440 C.3       8 GLP5        0.0000 
     36 CA         25.2800   37.1165   18.0520 C.3       4 GLC5        0.0000 
     37 CA         26.0760   36.8820   20.0540 C.3      12 GLL5        0.0000 
     38 CA         27.9455   38.1000   20.2845 C.3       4 GLC5        0.0000 
     39 CA         29.8150   39.3180   20.5150 C.3       8 GLP5        0.0000 
     40 CA         26.8070   38.3515   19.5775 C.3       4 GLC5        0.0000 
     41 CA         27.5380   39.8210   19.1010 C.3       8 GLP5        0.0000 
     42 CA         31.8225   33.3600   16.7095 C.3       4 GLC5        0.0000 
     43 CA         31.3430   31.5350   16.5220 C.3      12 GLL5        0.0000 
     44 CA         32.3020   35.1850   16.8970 C.3       8 GLP5        0.0000 
     45 CA         32.9745   32.0735   17.1205 C.3       4 GLC5        0.0000 
     46 CA         34.6060   32.6120   17.7190 C.3       8 GLP5        0.0000 
     47 CA         32.6650   29.9100   15.7225 C.3       4 GLC5        0.0000 
     48 CA         33.9870   28.2850   14.9230 C.3       8 GLP5        0.0000 
     49 CA         30.4405   32.0700   15.1320 C.3       4 GLC5        0.0000 
     50 CA         29.5380   32.6050   13.7420 C.3       8 GLP5        0.0000 
     51 CA         30.8980   29.6210   16.5895 C.3       4 GLC5        0.0000 
     52 CA         30.4530   27.7070   16.6570 C.3       8 GLP5        0.0000 
     53 O          32.8800   31.5305   19.7595 O.2       1 ALC1        0.0000 
     54 O          31.9140   32.2450   20.4430 O.2       9 ALL1        0.0000 
     55 O          33.8460   30.8160   19.0760 O.2       5 ALP1        0.0000 
     56 CA         32.5975   32.6010   18.4742 C.3       4 GLC5        0.0000 
     57 CA         30.7790   32.7930   19.8640 C.3      12 GLL5        0.0000 
     58 CA         28.2150   31.4045   18.3065 C.3       4 GLC5        0.0000 
     59 CA         30.3990   32.3870   18.5950 C.3      12 GLL5        0.0000 
     60 CA         26.5950   30.1550   18.3150 C.3       8 GLP5        0.0000 
     61 CA         27.2452   32.1560   18.3255 C.3       4 GLC5        0.0000 
     62 CA         28.5130   33.8690   18.6710 C.3      12 GLL5        0.0000 
     63 CA         25.2125   34.0075   17.1618 C.3       4 GLC5        0.0000 
     64 CA         23.6360   33.4510   15.7790 C.3       8 GLP5        0.0000 
     65 CA         28.6863   37.2782   20.2660 C.3       4 GLC5        0.0000 
     66 CA         28.0840   35.3160   20.7180 C.3      12 GLL5        0.0000 
     67 CA         28.7620   39.1630   19.1130 C.3       8 GLP5        0.0000 
     68 CA         28.1562   38.9333   25.2833 C.3       4 GLC5        0.0000 
     69 CA         26.7790   37.3270   25.4100 C.3      12 GLL5        0.0000 
     70 CA         28.8950   40.8360   25.1860 C.3       8 GLP5        0.0000 
     71 CA         27.7704   34.6088   25.4322 C.3       4 GLC5        0.0000 
     72 CA         28.0560   36.7340   25.3510 C.3      12 GLL5        0.0000 
     73 CA         27.5650   32.9690   26.2930 C.3       8 GLP5        0.0000 
     74 CA         25.2719   35.0303   24.4736 C.3       4 GLC5        0.0000 
     75 CA         27.4180   35.6390   23.2960 C.3      12 GLL5        0.0000 
     76 CA         24.2160   33.5540   25.0570 C.3       8 GLP5        0.0000 
@<TRIPOS>BOND
@<TRIPOS>SUBSTRUCTURE
     1 ALC1       30 GROUP        1 X    ALC  0     ROOT ALC X 1
     2 SEC2       27 GROUP        1 X    SEC  0     **** SEC X 2
     3 ASC3       14 GROUP        1 X    ASC  0     **** ASC X 3
     4 GLC5        1 GROUP        1 X    GLC  0     **** GLC X 6
     5 ALP1       32 GROUP        1 Y    ALP  0     ROOT ALP Y 8
     6 SEP2       29 GROUP        1 Y    SEP  0     **** SEP Y 9
     7 ASP3       16 GROUP        1 Y    ASP  0     **** ASP Y 10
     8 GLP5        3 GROUP        1 Y    GLP  0     **** GLP Y 13
     9 ALL1       31 GROUP        1 Z    ALL  0     ROOT ALL Z 15
    10 SEL2       28 GROUP        1 Z    SEL  0     **** SEL Z 16
    11 ASL3       15 GROUP        1 Z    ASL  0     **** ASL Z 17
    12 GLL5        2 GROUP        1 Z    GLL  0     **** GLL Z 20
@<TRIPOS>SET

