#    Name: 4ec3_REN_1_ligand
#    Modification time : Mon Apr  7 23:33:39 2014

@<TRIPOS>MOLECULE
4ec3_REN_1_ligand
   48    50     1     0     0
SMALL
NO_CHARGES


@<TRIPOS>ATOM
      1 C2         30.0210   33.7530   20.5590 C.ar      1 REN602      0.0000 
      2 C3         30.7790   32.7930   19.8640 C.ar      1 REN602      0.0000 
      3 C5         30.3990   32.3870   18.5950 C.ar      1 REN602      0.0000 
      4 C8         29.2710   32.9210   18.0010 C.ar      1 REN602      0.0000 
      5 C9         28.5130   33.8690   18.6710 C.ar      1 REN602      0.0000 
      6 C10        27.2780   34.4450   18.0010 C.3       1 REN602      0.0000 
      7 C11        26.3000   34.6830   19.0880 C.3       1 REN602      0.0000 
      8 N12        26.9070   35.6860   19.9030 N.4       1 REN602      0.0000 
      9 C14        28.0840   35.3160   20.7180 C.3       1 REN602      0.0000 
     10 C16        27.7450   34.7000   22.1040 C.3       1 REN602      0.0000 
     11 C17        27.4180   35.6390   23.2960 C.ar      1 REN602      0.0000 
     12 C25        28.3730   35.8870   24.2880 C.ar      1 REN602      0.0000 
     13 C24        28.0560   36.7340   25.3510 C.ar      1 REN602      0.0000 
     14 C21        26.7790   37.3270   25.4100 C.ar      1 REN602      0.0000 
     15 O22        26.4510   38.1560   26.4370 O.3       1 REN602      0.0000 
     16 C23        26.5500   37.7050   27.7550 C.3       1 REN602      0.0000 
     17 C19        25.8610   37.0770   24.4400 C.ar      1 REN602      0.0000 
     18 O20        24.6140   37.6670   24.5110 O.3       1 REN602      0.0000 
     19 C18        26.1710   36.2330   23.3850 C.ar      1 REN602      0.0000 
     20 C1         28.8950   34.2930   19.9740 C.ar      1 REN602      0.0000 
     21 C13        26.0760   36.8820   20.0540 C.3       1 REN602      0.0000 
     22 O6         31.1560   31.4410   17.9250 O.3       1 REN602      0.0000 
     23 C7         31.3430   31.5350   16.5220 C.3       1 REN602      0.0000 
     24 O4         31.9140   32.2450   20.4430 O.3       1 REN602      0.0000 
     25 H          30.3157   34.0426   21.4986 H         1 REN602      0.0000 
     26 H          28.9907   32.6146   17.0566 H         1 REN602      0.0000 
     27 H          26.8944   33.7317   17.2943 H         1 REN602      0.0000 
     28 H          27.5378   35.3679   17.5149 H         1 REN602      0.0000 
     29 H          26.1440   33.7658   19.6368 H         1 REN602      0.0000 
     30 H          25.3683   35.0266   18.6629 H         1 REN602      0.0000 
     31 H          27.6348   36.1989   18.8671 H         1 REN602      0.0000 
     32 H          28.7174   36.1781   20.8885 H         1 REN602      0.0000 
     33 H          28.5983   34.0373   22.4069 H         1 REN602      0.0000 
     34 H          26.8819   33.9959   21.9687 H         1 REN602      0.0000 
     35 H          29.2959   35.4502   24.2332 H         1 REN602      0.0000 
     36 H          28.7404   36.9265   26.0839 H         1 REN602      0.0000 
     37 H          25.4606   36.0453   22.6553 H         1 REN602      0.0000 
     38 H          27.4839   37.4307   27.9845 H         1 REN602      0.0000 
     39 H          26.2825   38.4114   28.4103 H         1 REN602      0.0000 
     40 H          25.9626   36.9131   27.9217 H         1 REN602      0.0000 
     41 H          26.5166   37.5700   20.6307 H         1 REN602      0.0000 
     42 H          25.8860   37.3158   19.1733 H         1 REN602      0.0000 
     43 H          25.1930   36.6703   20.4730 H         1 REN602      0.0000 
     44 H          31.7923   32.3902   16.2637 H         1 REN602      0.0000 
     45 H          31.9095   30.7890   16.1720 H         1 REN602      0.0000 
     46 H          30.4741   31.4997   16.0283 H         1 REN602      0.0000 
     47 H          24.0660   37.1977   23.8186 H         1 REN602      0.0000 
     48 H          32.3919   31.7876   19.6930 H         1 REN602      0.0000 
@<TRIPOS>BOND
     1    2    1 ar   
     2   20    1 ar   
     3   25    1 1    
     4    3    2 ar   
     5   24    2 1    
     6    4    3 ar   
     7   22    3 1    
     8    5    4 ar   
     9   26    4 1    
    10    6    5 1    
    11   20    5 ar   
    12    7    6 1    
    13   27    6 1    
    14   28    6 1    
    15    8    7 1    
    16   29    7 1    
    17   30    7 1    
    18    9    8 1    
    19   21    8 1    
    20   31    8 1    
    21   10    9 1    
    22   20    9 1    
    23   32    9 1    
    24   11   10 1    
    25   33   10 1    
    26   34   10 1    
    27   12   11 ar   
    28   19   11 ar   
    29   13   12 ar   
    30   35   12 1    
    31   14   13 ar   
    32   36   13 1    
    33   15   14 1    
    34   17   14 ar   
    35   16   15 1    
    36   38   16 1    
    37   39   16 1    
    38   40   16 1    
    39   18   17 1    
    40   19   17 ar   
    41   47   18 1    
    42   37   19 1    
    43   41   21 1    
    44   42   21 1    
    45   43   21 1    
    46   23   22 1    
    47   44   23 1    
    48   45   23 1    
    49   46   23 1    
    50   48   24 1    
@<TRIPOS>SUBSTRUCTURE
     1 REN602      1 GROUP   
@<TRIPOS>SET

