#    Name: 1gp6_QUE_1_INTS_M
#    Modification time : Tue Mar 25 03:22:58 2014

@<TRIPOS>MOLECULE
1gp6_QUE_1_INTS_M
   42     0     9     0     0
SMALL
NO_CHARGES


@<TRIPOS>ATOM
      1 CA         20.0435   28.4950    1.4950 C.3       3 GLC5        0.0000 
      2 CA         17.9560   28.7430    1.8490 C.3       9 GLL5        0.0000 
      3 CA         22.1310   28.2470    1.1410 C.3       6 GLP5        0.0000 
      4 CA         15.5800   32.1290    0.0640 C.3       3 GLC5        0.0000 
      5 CA         16.3980   30.2710    0.8290 C.3       9 GLL5        0.0000 
      6 CA         14.7620   33.9870   -0.7010 C.3       6 GLP5        0.0000 
      7 CA         16.4480   27.6065    4.5085 C.3       3 GLC5        0.0000 
      8 CA         15.8960   25.9390    3.4600 C.3       9 GLL5        0.0000 
      9 CA         17.0000   29.2740    5.5570 C.3       6 GLP5        0.0000 
     10 CA         15.1715   28.0765    4.2470 C.3       3 GLC5        0.0000 
     11 CA         14.6270   26.3560    3.1230 C.3       9 GLL5        0.0000 
     12 CA         15.7160   29.7970    5.3710 C.3       6 GLP5        0.0000 
     13 CA          9.8850   26.7235    4.6460 C.3       3 GLC5        0.0000 
     14 CA         10.8710   25.6050    3.1840 C.3       9 GLL5        0.0000 
     15 CA          8.8990   27.8420    6.1080 C.3       6 GLP5        0.0000 
     16 O           9.7930   22.5505    4.3605 O.2       1 ALC1        0.0000 
     17 O           9.7560   23.5590    3.5900 O.2       7 ALL1        0.0000 
     18 O           9.8300   21.5420    5.1310 O.2       4 ALP1        0.0000 
     19 N          15.4405   24.5170    5.5200 N.am      2 SEC2        0.0000 
     20 N          16.0880   24.8550    4.2690 N.am      8 SEL2        0.0000 
     21 N          14.7930   24.1790    6.7710 N.am      5 SEP2        0.0000 
     22 O          14.9995   31.6000   -0.2175 O.2       1 ALC1        0.0000 
     23 O          16.1490   31.3980    0.1200 O.2       7 ALL1        0.0000 
     24 O          13.8500   31.8020   -0.5550 O.2       4 ALP1        0.0000 
     25 N          19.9805   28.5845    0.6700 N.am      2 SEC2        0.0000 
     26 N          19.2070   28.3560    2.1470 N.am      8 SEL2        0.0000 
     27 N          20.7540   28.8130   -0.8070 N.am      5 SEP2        0.0000 
     28 CA         17.9710   29.0015   -0.3053 C.3       3 GLC5        0.0000 
     29 CA         18.0970   28.6920   -2.1000 C.3       6 GLP5        0.0000 
     30 CA         18.3130   31.6320    0.7942 C.3       3 GLC5        0.0000 
     31 CA         17.7340   29.8790    1.1300 C.3       9 GLL5        0.0000 
     32 CA         19.5600   33.1890    0.6090 C.3       6 GLP5        0.0000 
     33 CA         16.9680   29.2878   -0.5290 C.3       3 GLC5        0.0000 
     34 CA         16.3065   31.3133    2.1531 C.3       3 GLC5        0.0000 
     35 CA         16.4400   32.8410    3.1890 C.3       6 GLP5        0.0000 
     36 CA         14.6303   26.3418    5.2027 C.3       3 GLC5        0.0000 
     37 CA         13.9990   26.5360    7.1140 C.3       6 GLP5        0.0000 
     38 CA         13.3592   26.2617    5.1623 C.3       3 GLC5        0.0000 
     39 CA         13.3410   25.6590    3.3380 C.3       9 GLL5        0.0000 
     40 CA         13.1820   24.4903    5.4798 C.3       3 GLC5        0.0000 
     41 CA         13.3090   24.2610    3.6590 C.3       9 GLL5        0.0000 
     42 CA         13.6650   25.0530    7.2680 C.3       6 GLP5        0.0000 
@<TRIPOS>BOND
@<TRIPOS>SUBSTRUCTURE
     1 ALC1       16 GROUP        1 X    ALC  0     ROOT ALC X 1
     2 SEC2       19 GROUP        1 X    SEC  0     **** SEC X 2
     3 GLC5        1 GROUP        1 X    GLC  0     **** GLC X 6
     4 ALP1       18 GROUP        1 Y    ALP  0     ROOT ALP Y 8
     5 SEP2       21 GROUP        1 Y    SEP  0     **** SEP Y 9
     6 GLP5        3 GROUP        1 Y    GLP  0     **** GLP Y 13
     7 ALL1       17 GROUP        1 Z    ALL  0     ROOT ALL Z 15
     8 SEL2       20 GROUP        1 Z    SEL  0     **** SEL Z 16
     9 GLL5        2 GROUP        1 Z    GLL  0     **** GLL Z 20
@<TRIPOS>SET

