#    Name: 1gp6_QUE_1_ligand
#    Modification time : Tue Mar 25 03:22:58 2014

@<TRIPOS>MOLECULE
1gp6_QUE_1_ligand
   32    34     1     0     0
SMALL
NO_CHARGES


@<TRIPOS>ATOM
      1 C1         17.7340   29.8790    1.1300 C.ar      1 QUE380      0.0000 
      2 C2         17.9560   28.7430    1.8490 C.ar      1 QUE380      0.0000 
      3 C3         16.8520   27.9120    2.3160 C.ar      1 QUE380      0.0000 
      4 C4         15.5500   28.3260    1.9880 C.ar      1 QUE380      0.0000 
      5 C5         15.2800   29.4960    1.2550 C.ar      1 QUE380      0.0000 
      6 C6         16.3980   30.2710    0.8290 C.ar      1 QUE380      0.0000 
      7 C9         17.0680   26.7120    3.0760 C.2       1 QUE380      0.0000 
      8 C10        15.8960   25.9390    3.4600 C.2       1 QUE380      0.0000 
      9 C11        14.6270   26.3560    3.1230 C.2       1 QUE380      0.0000 
     10 C14        13.3410   25.6590    3.3380 C.ar      1 QUE380      0.0000 
     11 C15        12.0980   26.3160    3.0830 C.ar      1 QUE380      0.0000 
     12 C16        10.8710   25.6050    3.1840 C.ar      1 QUE380      0.0000 
     13 C17        10.8980   24.2490    3.5030 C.ar      1 QUE380      0.0000 
     14 C18        12.0890   23.5940    3.7240 C.ar      1 QUE380      0.0000 
     15 C19        13.3090   24.2610    3.6590 C.ar      1 QUE380      0.0000 
     16 O12        14.4610   27.5360    2.3910 O.3       1 QUE380      0.0000 
     17 O13        18.2240   26.3180    3.4070 O.2       1 QUE380      0.0000 
     18 O23        11.9600   22.2500    3.9480 O.3       1 QUE380      0.0000 
     19 O24         9.7560   23.5590    3.5900 O.3       1 QUE380      0.0000 
     20 O27        16.0880   24.8550    4.2690 O.3       1 QUE380      0.0000 
     21 O29        16.1490   31.3980    0.1200 O.3       1 QUE380      0.0000 
     22 O30        19.2070   28.3560    2.1470 O.3       1 QUE380      0.0000 
     23 H          18.5041   30.4664    0.7954 H         1 QUE380      0.0000 
     24 H          14.3460   29.7797    1.0374 H         1 QUE380      0.0000 
     25 H          12.0943   27.3038    2.8265 H         1 QUE380      0.0000 
     26 H           9.9929   26.0909    3.0233 H         1 QUE380      0.0000 
     27 H          14.1874   23.7748    3.8357 H         1 QUE380      0.0000 
     28 H          12.4071   22.0904    4.8281 H         1 QUE380      0.0000 
     29 H          10.0368   22.6145    3.7605 H         1 QUE380      0.0000 
     30 H          17.0754   24.8188    4.4230 H         1 QUE380      0.0000 
     31 H          15.1976   31.6277    0.3250 H         1 QUE380      0.0000 
     32 H          19.0980   27.5197    2.6843 H         1 QUE380      0.0000 
@<TRIPOS>BOND
     1    2    1 ar   
     2    6    1 ar   
     3   23    1 1    
     4    3    2 ar   
     5   22    2 1    
     6    4    3 ar   
     7    7    3 1    
     8    5    4 ar   
     9   16    4 1    
    10    6    5 ar   
    11   24    5 1    
    12   21    6 1    
    13    8    7 1    
    14   17    7 2    
    15    9    8 2    
    16   20    8 1    
    17   10    9 1    
    18   16    9 1    
    19   11   10 ar   
    20   15   10 ar   
    21   12   11 ar   
    22   25   11 1    
    23   13   12 ar   
    24   26   12 1    
    25   14   13 ar   
    26   19   13 1    
    27   15   14 ar   
    28   18   14 1    
    29   27   15 1    
    30   28   18 1    
    31   29   19 1    
    32   30   20 1    
    33   31   21 1    
    34   32   22 1    
@<TRIPOS>SUBSTRUCTURE
     1 QUE380      1 GROUP   
@<TRIPOS>SET

