#    Name: 3zwt_KFZ_2_INTS_M
#    Modification time : Tue Mar 25 04:04:03 2014

@<TRIPOS>MOLECULE
3zwt_KFZ_2_INTS_M
   68     0     6     0     0
SMALL
NO_CHARGES


@<TRIPOS>ATOM
      1 CA        -30.0585   -8.3965   -0.2210 C.3       2 GLC5        0.0000 
      2 CA        -31.7840   -8.9550    0.0020 C.3       6 GLL5        0.0000 
      3 CA        -28.3330   -7.8380   -0.4440 C.3       4 GLP5        0.0000 
      4 CA        -34.7530   -6.6690    0.9190 C.3       2 GLC5        0.0000 
      5 CA        -33.5580   -8.2310    1.9250 C.3       6 GLL5        0.0000 
      6 CA        -35.9480   -5.1070   -0.0870 C.3       4 GLP5        0.0000 
      7 CA        -35.4880   -9.0590    6.8935 C.3       2 GLC5        0.0000 
      8 CA        -35.1400  -10.0610    5.1060 C.3       6 GLL5        0.0000 
      9 CA        -35.8360   -8.0570    8.6810 C.3       4 GLP5        0.0000 
     10 CA        -34.4700  -11.4155    6.2405 C.3       2 GLC5        0.0000 
     11 CA        -33.8000  -12.7700    7.3750 C.3       4 GLP5        0.0000 
     12 CA        -36.2875  -11.8610    5.3410 C.3       2 GLC5        0.0000 
     13 CA        -37.4350  -13.6610    5.5760 C.3       4 GLP5        0.0000 
     14 CA        -30.6865  -10.7860    2.8665 C.3       2 GLC5        0.0000 
     15 CA        -31.6730  -11.5800    1.5390 C.3       6 GLL5        0.0000 
     16 CA        -29.7000   -9.9920    4.1940 C.3       4 GLP5        0.0000 
     17 CA        -33.8955  -11.6515    0.1335 C.3       2 GLC5        0.0000 
     18 CA        -32.2510  -12.4180    0.0300 C.3       6 GLL5        0.0000 
     19 CA        -35.5400  -10.8850    0.2370 C.3       4 GLP5        0.0000 
     20 CA        -33.3740  -12.6810   -1.5125 C.3       2 GLC5        0.0000 
     21 CA        -34.4970  -12.9440   -3.0550 C.3       4 GLP5        0.0000 
     22 CA        -30.6340  -12.7785   -0.8855 C.3       2 GLC5        0.0000 
     23 CA        -29.0170  -13.1390   -1.8010 C.3       4 GLP5        0.0000 
     24 N         -35.4405  -17.0770   -0.6935 N.am      1 SEC2        0.0000 
     25 N         -35.2470  -16.3870    0.6080 N.am      5 SEL2        0.0000 
     26 N         -35.6340  -17.7670   -1.9950 N.am      3 SEP2        0.0000 
     27 CA        -37.6785  -16.9415    1.0015 C.3       2 GLC5        0.0000 
     28 CA        -36.6300  -18.3300    1.3080 C.3       6 GLL5        0.0000 
     29 CA        -38.7270  -15.5530    0.6950 C.3       4 GLP5        0.0000 
     30 CA        -34.9605  -21.3825    1.8375 C.3       2 GLC5        0.0000 
     31 CA        -35.6370  -19.5350    1.2430 C.3       6 GLL5        0.0000 
     32 CA        -34.2840  -23.2300    2.4320 C.3       4 GLP5        0.0000 
     33 CA        -33.7500  -18.4145    1.1570 C.3       2 GLC5        0.0000 
     34 CA        -31.8630  -17.2940    1.0710 C.3       4 GLP5        0.0000 
     35 CA        -37.0885  -17.1515    4.5440 C.3       2 GLC5        0.0000 
     36 CA        -35.6180  -16.6190    2.9510 C.3       6 GLL5        0.0000 
     37 CA        -38.5590  -17.6840    6.1370 C.3       4 GLP5        0.0000 
     38 CA        -37.1725  -16.0860    1.8230 C.3       2 GLC5        0.0000 
     39 CA        -33.7405  -16.9565    2.0110 C.3       2 GLC5        0.0000 
     40 CA        -36.5735  -14.8210    2.1565 C.3       2 GLC5        0.0000 
     41 CA        -34.8440  -15.4900    3.1720 C.3       6 GLL5        0.0000 
     42 CA        -38.3030  -14.1520    1.1410 C.3       4 GLP5        0.0000 
     43 CA        -33.0845  -16.2725    2.8390 C.3       2 GLC5        0.0000 
     44 CA        -31.3250  -17.0550    2.5060 C.3       4 GLP5        0.0000 
     45 N         -33.5740  -14.4520    5.0100 N.am      1 SEC2        0.0000 
     46 N         -34.6130  -15.0290    4.4250 N.am      5 SEL2        0.0000 
     47 N         -32.5350  -13.8750    5.5950 N.am      3 SEP2        0.0000 
     48 CA        -33.8935   -9.9870    0.4765 C.3       2 GLC5        0.0000 
     49 CA        -32.7100   -9.2230    1.4300 C.3       6 GLL5        0.0000 
     50 CA        -31.1795   -9.9185    2.9662 C.3       2 GLC5        0.0000 
     51 CA        -32.3337   -8.7043    3.9120 C.3       2 GLC5        0.0000 
     52 CA        -30.7300   -9.0480    5.3270 C.3       4 GLP5        0.0000 
     53 CA        -35.1623   -8.9763    1.3065 C.3       2 GLC5        0.0000 
     54 CA        -34.3170   -8.4900    3.0690 C.3       6 GLL5        0.0000 
     55 CA        -36.3870   -9.5920    0.1160 C.3       4 GLP5        0.0000 
     56 CA        -32.2585   -9.6320    4.3865 C.3       2 GLC5        0.0000 
     57 CA        -34.2120   -9.7240    3.6980 C.3       6 GLL5        0.0000 
     58 CA        -34.6635  -10.5505    1.8415 C.3       2 GLC5        0.0000 
     59 CA        -33.3620  -10.7080    3.1940 C.3       6 GLL5        0.0000 
     60 CA        -33.8402  -10.9543    1.0150 C.3       2 GLC5        0.0000 
     61 CA        -32.6080  -10.4670    2.0470 C.3       6 GLL5        0.0000 
     62 CA        -37.0487  -20.2523    2.1783 C.3       2 GLC5        0.0000 
     63 CA        -37.9640  -21.5720    3.0810 C.3       4 GLP5        0.0000 
     64 CA        -35.2818  -18.5427   -0.6552 C.3       2 GLC5        0.0000 
     65 CA        -34.4300  -18.1530   -2.5860 C.3       4 GLP5        0.0000 
     66 CA        -36.3538  -20.2643   -0.1633 C.3       2 GLC5        0.0000 
     67 CA        -36.5740  -21.5960   -1.6020 C.3       4 GLP5        0.0000 
     68 CA        -36.3330  -14.8577    4.3187 C.3       2 GLC5        0.0000 
@<TRIPOS>BOND
@<TRIPOS>SUBSTRUCTURE
     1 SEC2       24 GROUP        1 X    SEC  0     ROOT SEC X 2
     2 GLC5        1 GROUP        1 X    GLC  0     **** GLC X 6
     3 SEP2       26 GROUP        1 Y    SEP  0     ROOT SEP Y 9
     4 GLP5        3 GROUP        1 Y    GLP  0     **** GLP Y 13
     5 SEL2       25 GROUP        1 Z    SEL  0     ROOT SEL Z 16
     6 GLL5        2 GROUP        1 Z    GLL  0     **** GLL Z 20
@<TRIPOS>SET

