#    Name: 3zwt_KFZ_2_ligand
#    Modification time : Tue Mar 25 04:04:03 2014

@<TRIPOS>MOLECULE
3zwt_KFZ_2_ligand
   34    36     1     0     0
SMALL
NO_CHARGES


@<TRIPOS>ATOM
      1 CL1       -31.7840   -8.9550    0.0020 Cl        1 KFZ1401     0.0000 
      2 CAQ       -32.7100   -9.2230    1.4300 C.ar      1 KFZ1401     0.0000 
      3 CAF       -33.5580   -8.2310    1.9250 C.ar      1 KFZ1401     0.0000 
      4 CAE       -34.3170   -8.4900    3.0690 C.ar      1 KFZ1401     0.0000 
      5 CAO       -34.2120   -9.7240    3.6980 C.ar      1 KFZ1401     0.0000 
      6 CL2       -35.1400  -10.0610    5.1060 Cl        1 KFZ1401     0.0000 
      7 CAG       -33.3620  -10.7080    3.1940 C.ar      1 KFZ1401     0.0000 
      8 CAS       -32.6080  -10.4670    2.0470 C.ar      1 KFZ1401     0.0000 
      9 CAJ       -31.6730  -11.5800    1.5390 C.3       1 KFZ1401     0.0000 
     10 SAN       -32.2510  -12.4180    0.0300 S.3       1 KFZ1401     0.0000 
     11 CAT       -33.2670  -13.6280    0.7260 C.2       1 KFZ1401     0.0000 
     12 NAL       -33.8940  -14.5220   -0.0240 N.2       1 KFZ1401     0.0000 
     13 NAM       -33.5330  -13.8080    2.0230 N.2       1 KFZ1401     0.0000 
     14 NAV       -34.2760  -14.8000    2.1010 N.pl3     1 KFZ1401     0.0000 
     15 CAU       -34.5050  -15.3110    0.8100 C.2       1 KFZ1401     0.0000 
     16 NAK       -35.2470  -16.3870    0.6080 N.2       1 KFZ1401     0.0000 
     17 CAR       -35.8060  -17.0690    1.6270 C.2       1 KFZ1401     0.0000 
     18 CAI       -36.6300  -18.3300    1.3080 C.3       1 KFZ1401     0.0000 
     19 CAA       -35.6370  -19.5350    1.2430 C.3       1 KFZ1401     0.0000 
     20 CAH       -35.6180  -16.6190    2.9510 C.2       1 KFZ1401     0.0000 
     21 CAP       -34.8440  -15.4900    3.1720 C.2       1 KFZ1401     0.0000 
     22 OAB       -34.6130  -15.0290    4.4250 O.3       1 KFZ1401     0.0000 
     23 H         -33.6233   -7.3260    1.4567 H         1 KFZ1401     0.0000 
     24 H         -34.9467   -7.7711    3.4392 H         1 KFZ1401     0.0000 
     25 H         -33.2914  -11.6171    3.6720 H         1 KFZ1401     0.0000 
     26 H         -31.5728  -12.3997    2.2326 H         1 KFZ1401     0.0000 
     27 H         -30.7022  -11.2162    1.2419 H         1 KFZ1401     0.0000 
     28 H         -37.1053  -18.2213    0.3560 H         1 KFZ1401     0.0000 
     29 H         -37.3388  -18.5072    2.0892 H         1 KFZ1401     0.0000 
     30 H         -36.0484  -17.1228    3.7239 H         1 KFZ1401     0.0000 
     31 H         -34.9391  -19.4036    0.5389 H         1 KFZ1401     0.0000 
     32 H         -35.1571  -19.6679    2.1102 H         1 KFZ1401     0.0000 
     33 H         -36.1068  -20.3925    1.0336 H         1 KFZ1401     0.0000 
     34 H         -34.9078  -15.0424    5.3806 H         1 KFZ1401     0.0000 
@<TRIPOS>BOND
     1    2    1 1    
     2    3    2 ar   
     3    8    2 ar   
     4    4    3 ar   
     5   23    3 1    
     6    5    4 ar   
     7   24    4 1    
     8    6    5 1    
     9    7    5 ar   
    10    8    7 ar   
    11   25    7 1    
    12    9    8 1    
    13   10    9 1    
    14   26    9 1    
    15   27    9 1    
    16   11   10 1    
    17   12   11 1    
    18   13   11 2    
    19   15   12 2    
    20   14   13 1    
    21   15   14 1    
    22   21   14 1    
    23   16   15 1    
    24   17   16 2    
    25   18   17 1    
    26   20   17 1    
    27   19   18 1    
    28   28   18 1    
    29   29   18 1    
    30   31   19 1    
    31   32   19 1    
    32   33   19 1    
    33   21   20 2    
    34   30   20 1    
    35   22   21 1    
    36   34   22 1    
@<TRIPOS>SUBSTRUCTURE
     1 KFZ1401     1 GROUP   
@<TRIPOS>SET

