#    Name: 2qs3_UBE_2_INTS_M
#    Modification time : Mon Mar 24 22:42:13 2014

@<TRIPOS>MOLECULE
2qs3_UBE_2_INTS_M
   57     0    12     0     0
SMALL
NO_CHARGES


@<TRIPOS>ATOM
      1 N         -56.6495   -0.6705   19.0745 N.am      2 SEC2        0.0000 
      2 N         -55.8320   -1.1770   18.1340 N.am     10 SEL2        0.0000 
      3 N         -57.4670   -0.1640   20.0150 N.am      6 SEP2        0.0000 
      4 N         -58.6095   -1.7530   18.1020 N.am      2 SEC2        0.0000 
      5 N         -57.7530   -1.4110   17.0880 N.am     10 SEL2        0.0000 
      6 N         -59.4660   -2.0950   19.1160 N.am      6 SEP2        0.0000 
      7 N         -57.6100   -0.7875   18.5515 N.am      2 SEC2        0.0000 
      8 CA        -57.3660   -0.1245   13.7640 C.3       4 GLC5        0.0000 
      9 CA        -56.4840   -1.5960   14.3370 C.3      12 GLL5        0.0000 
     10 CA        -58.2480    1.3470   13.1910 C.3       8 GLP5        0.0000 
     11 CA        -58.2695   -2.4295   14.6420 C.3       4 GLC5        0.0000 
     12 CA        -60.0550   -3.2630   14.9470 C.3       8 GLP5        0.0000 
     13 CA        -53.5430   -2.2880   18.8875 C.3       4 GLC5        0.0000 
     14 CA        -53.7230   -2.9640   16.9340 C.3      12 GLL5        0.0000 
     15 CA        -53.3630   -1.6120   20.8410 C.3       8 GLP5        0.0000 
     16 CA        -48.0280   -5.1205   14.8030 C.3       4 GLC5        0.0000 
     17 CA        -49.1000   -4.8160   16.3230 C.3      12 GLL5        0.0000 
     18 CA        -46.9560   -5.4250   13.2830 C.3       8 GLP5        0.0000 
     19 CA        -47.1585   -4.6255   16.9015 C.3       4 GLC5        0.0000 
     20 CA        -45.2170   -4.4350   17.4800 C.3       8 GLP5        0.0000 
     21 CA        -48.1925   -6.2540   17.1650 C.3       4 GLC5        0.0000 
     22 CA        -47.2850   -7.6920   18.0070 C.3       8 GLP5        0.0000 
     23 CA        -50.6630   -7.5900   15.1655 C.3       4 GLC5        0.0000 
     24 CA        -51.1520   -6.2940   16.2720 C.3      12 GLL5        0.0000 
     25 CA        -50.1740   -8.8860   14.0590 C.3       8 GLP5        0.0000 
     26 CA        -49.2185   -6.9930   17.1395 C.3       4 GLC5        0.0000 
     27 CA        -52.6080   -8.8640   14.7350 C.3       4 GLC5        0.0000 
     28 CA        -53.0060   -7.8580   16.2210 C.3      12 GLL5        0.0000 
     29 CA        -52.2100   -9.8700   13.2490 C.3       8 GLP5        0.0000 
     30 CA        -52.2335   -9.5695   16.3915 C.3       4 GLC5        0.0000 
     31 CA        -53.3780   -8.3080   17.6500 C.3      12 GLL5        0.0000 
     32 CA        -51.0890  -10.8310   15.1330 C.3       8 GLP5        0.0000 
     33 O         -50.9605   -8.6250   18.3375 O.2       1 ALC1        0.0000 
     34 O         -52.2950   -8.0730   18.5960 O.2       9 ALL1        0.0000 
     35 O         -49.6260   -9.1770   18.0790 O.2       5 ALP1        0.0000 
     36 O         -52.7230   -8.3875   20.0245 O.2       1 ALC1        0.0000 
     37 O         -53.1510   -8.7020   21.4530 O.2       5 ALP1        0.0000 
     38 NZ        -53.8110  -11.6115   18.8740 N.4       3 LYC4        0.0000 
     39 NZ        -53.1330  -10.5270   18.4420 N.4      11 LYL4        0.0000 
     40 NZ        -55.2220  -13.3480   18.4170 N.4       7 LYP4        0.0000 
     41 N         -52.4790  -10.8410   19.6445 N.am      2 SEC2        0.0000 
     42 N         -53.1330  -10.5270   18.4420 N.am     10 SEL2        0.0000 
     43 N         -51.8250  -11.1550   20.8470 N.am      6 SEP2        0.0000 
     44 N         -53.8110  -11.6115   18.8740 N.am      2 SEC2        0.0000 
     45 N         -54.4890  -12.6960   19.3060 N.am      6 SEP2        0.0000 
     46 N         -54.2975  -11.6545   17.8400 N.am      2 SEC2        0.0000 
     47 N         -55.4620  -12.7820   17.2380 N.am      6 SEP2        0.0000 
     48 NZ        -55.0685  -11.4570   17.0740 N.4       3 LYC4        0.0000 
     49 NZ        -54.6750  -10.1320   16.9100 N.4      11 LYL4        0.0000 
     50 N         -55.0685  -11.4570   17.0740 N.am      2 SEC2        0.0000 
     51 N         -54.6750  -10.1320   16.9100 N.am     10 SEL2        0.0000 
     52 CA        -54.9280   -0.4502    8.8500 C.3       4 GLC5        0.0000 
     53 CA        -55.1500   -2.4610    9.2490 C.3      12 GLL5        0.0000 
     54 CA        -55.2580    1.3080    8.1070 C.3       8 GLP5        0.0000 
     55 CA        -57.1448   -1.1442   11.3678 C.3       4 GLC5        0.0000 
     56 CA        -56.2660   -2.9330    9.9450 C.3      12 GLL5        0.0000 
     57 CA        -58.2930    0.5010   11.9210 C.3       8 GLP5        0.0000 
@<TRIPOS>BOND
@<TRIPOS>SUBSTRUCTURE
     1 ALC1       33 GROUP        1 X    ALC  0     ROOT ALC X 1
     2 SEC2        1 GROUP        1 X    SEC  0     **** SEC X 2
     3 LYC4       38 GROUP        1 X    LYC  0     **** LYC X 4
     4 GLC5        8 GROUP        1 X    GLC  0     **** GLC X 6
     5 ALP1       35 GROUP        1 Y    ALP  0     ROOT ALP Y 8
     6 SEP2        3 GROUP        1 Y    SEP  0     **** SEP Y 9
     7 LYP4       40 GROUP        1 Y    LYP  0     **** LYP Y 11
     8 GLP5       10 GROUP        1 Y    GLP  0     **** GLP Y 13
     9 ALL1       34 GROUP        1 Z    ALL  0     ROOT ALL Z 15
    10 SEL2        2 GROUP        1 Z    SEL  0     **** SEL Z 16
    11 LYL4       39 GROUP        1 Z    LYL  0     **** LYL Z 18
    12 GLL5        9 GROUP        1 Z    GLL  0     **** GLL Z 20
@<TRIPOS>SET

