#    Name: 2qs3_UBE_2_ligand
#    Modification time : Mon Mar 24 22:42:13 2014

@<TRIPOS>MOLECULE
2qs3_UBE_2_ligand
   48    50     1     0     0
SMALL
NO_CHARGES


@<TRIPOS>ATOM
      1 O24       -55.8320   -1.1770   18.1340 O.co2     1 UBE602      0.0000 
      2 C22       -56.5090   -1.4650   17.1220 C.2       1 UBE602      0.0000 
      3 O23       -57.7530   -1.4110   17.0880 O.co2     1 UBE602      0.0000 
      4 C21       -55.8140   -1.8860   15.8840 C.2       1 UBE602      0.0000 
      5 S20       -56.4840   -1.5960   14.3370 S.3       1 UBE602      0.0000 
      6 C19       -55.1470   -2.3510   13.5140 C.2       1 UBE602      0.0000 
      7 C25       -55.1770   -2.3910   12.0270 C.ar      1 UBE602      0.0000 
      8 C30       -54.0570   -1.9260   11.3330 C.ar      1 UBE602      0.0000 
      9 C29       -54.0460   -1.9560    9.9370 C.ar      1 UBE602      0.0000 
     10 C28       -55.1500   -2.4610    9.2490 C.ar      1 UBE602      0.0000 
     11 C27       -56.2660   -2.9330    9.9450 C.ar      1 UBE602      0.0000 
     12 C26       -56.2770   -2.9010   11.3410 C.ar      1 UBE602      0.0000 
     13 C18       -54.1880   -2.8220   14.4080 C.2       1 UBE602      0.0000 
     14 C17       -54.5230   -2.5890   15.7460 C.2       1 UBE602      0.0000 
     15 C16       -53.7230   -2.9640   16.9340 C.3       1 UBE602      0.0000 
     16 N3        -52.8740   -4.1160   16.6820 N.am      1 UBE602      0.0000 
     17 C4        -53.3820   -5.4220   16.5440 C.2       1 UBE602      0.0000 
     18 O15       -54.6070   -5.6470   16.5950 O.2       1 UBE602      0.0000 
     19 C2        -51.4970   -3.8810   16.6160 C.2       1 UBE602      0.0000 
     20 O14       -51.0550   -2.7290   16.7490 O.2       1 UBE602      0.0000 
     21 C1        -50.5900   -5.0310   16.4030 C.2       1 UBE602      0.0000 
     22 C13       -49.1000   -4.8160   16.3230 C.3       1 UBE602      0.0000 
     23 C6        -51.1520   -6.2940   16.2720 C.2       1 UBE602      0.0000 
     24 N5        -52.4820   -6.4970   16.3410 N.am      1 UBE602      0.0000 
     25 C7        -53.0060   -7.8580   16.2210 C.3       1 UBE602      0.0000 
     26 C8        -53.3780   -8.3080   17.6500 C.3       1 UBE602      0.0000 
     27 N9        -52.2950   -8.0730   18.5960 N.4       1 UBE602      0.0000 
     28 C10       -53.7520   -9.7540   17.6650 C.2       1 UBE602      0.0000 
     29 O11       -53.1330  -10.5270   18.4420 O.co2     1 UBE602      0.0000 
     30 O12       -54.6750  -10.1320   16.9100 O.co2     1 UBE602      0.0000 
     31 H         -53.2477   -1.5647   11.8464 H         1 UBE602      0.0000 
     32 H         -53.2321   -1.6093    9.4214 H         1 UBE602      0.0000 
     33 H         -55.1431   -2.4865    8.2190 H         1 UBE602      0.0000 
     34 H         -57.0731   -3.3012    9.4325 H         1 UBE602      0.0000 
     35 H         -57.0901   -3.2509   11.8564 H         1 UBE602      0.0000 
     36 H         -53.3631   -3.2705   14.1312 H         1 UBE602      0.0000 
     37 H         -54.4080   -3.1730   17.7795 H         1 UBE602      0.0000 
     38 H         -53.1067   -2.0966   17.2430 H         1 UBE602      0.0000 
     39 H         -50.5041   -7.1061   16.1145 H         1 UBE602      0.0000 
     40 H         -52.2621   -8.5349   15.8378 H         1 UBE602      0.0000 
     41 H         -53.8962   -7.8862   15.6166 H         1 UBE602      0.0000 
     42 H         -54.2585   -7.7281   17.9510 H         1 UBE602      0.0000 
     43 H         -48.6082   -5.6744   16.1769 H         1 UBE602      0.0000 
     44 H         -48.8528   -4.2049   15.5711 H         1 UBE602      0.0000 
     45 H         -48.7378   -4.4099   17.1620 H         1 UBE602      0.0000 
     46 H         -52.5397   -8.3647   19.5207 H         1 UBE602      0.0000 
     47 H         -51.4654   -8.5702   18.3418 H         1 UBE602      0.0000 
     48 H         -52.0517   -7.1045   18.6490 H         1 UBE602      0.0000 
@<TRIPOS>BOND
     1    2    1 ar   
     2    3    2 ar   
     3    4    2 1    
     4    5    4 1    
     5   14    4 2    
     6    6    5 1    
     7    7    6 1    
     8   13    6 2    
     9    8    7 ar   
    10   12    7 ar   
    11    9    8 ar   
    12   31    8 1    
    13   10    9 ar   
    14   32    9 1    
    15   11   10 ar   
    16   33   10 1    
    17   12   11 ar   
    18   34   11 1    
    19   35   12 1    
    20   14   13 1    
    21   36   13 1    
    22   15   14 1    
    23   16   15 1    
    24   37   15 1    
    25   38   15 1    
    26   17   16 am   
    27   19   16 am   
    28   18   17 2    
    29   24   17 am   
    30   20   19 2    
    31   21   19 1    
    32   22   21 1    
    33   23   21 2    
    34   43   22 1    
    35   44   22 1    
    36   45   22 1    
    37   24   23 1    
    38   39   23 1    
    39   25   24 1    
    40   26   25 1    
    41   40   25 1    
    42   41   25 1    
    43   27   26 1    
    44   28   26 1    
    45   42   26 1    
    46   46   27 1    
    47   47   27 1    
    48   48   27 1    
    49   29   28 ar   
    50   30   28 ar   
@<TRIPOS>SUBSTRUCTURE
     1 UBE602      1 GROUP   
@<TRIPOS>SET

