#    Name: 2v11_C80_1_INTS_M
#    Modification time : Tue Mar 25 00:40:56 2014

@<TRIPOS>MOLECULE
2v11_C80_1_INTS_M
   69     0    12     0     0
SMALL
NO_CHARGES


@<TRIPOS>ATOM
      1 CA         16.3915   47.5655   71.8535 C.3       4 GLC5        0.0000 
      2 CA         15.0980   46.6280   70.8630 C.3      12 GLL5        0.0000 
      3 CA         17.6850   48.5030   72.8440 C.3       8 GLP5        0.0000 
      4 CA         17.6050   45.1065   69.6325 C.3       4 GLC5        0.0000 
      5 CA         15.6330   45.8010   69.8770 C.3      12 GLL5        0.0000 
      6 CA         19.5770   44.4120   69.3880 C.3       8 GLP5        0.0000 
      7 CA         17.2695   43.7320   69.4050 C.3       4 GLC5        0.0000 
      8 CA         15.3530   44.4480   69.8410 C.3      12 GLL5        0.0000 
      9 CA         19.1860   43.0160   68.9690 C.3       8 GLP5        0.0000 
     10 CA         16.3330   46.0540   72.2695 C.3       4 GLC5        0.0000 
     11 CA         14.2740   46.1030   71.8330 C.3      12 GLL5        0.0000 
     12 CA         18.3920   46.0050   72.7060 C.3       8 GLP5        0.0000 
     13 CA         15.7055   47.7335   72.9025 C.3       4 GLC5        0.0000 
     14 CA         13.7260   46.9640   72.9610 C.3      12 GLL5        0.0000 
     15 CA         14.2140   48.6265   71.6625 C.3       4 GLC5        0.0000 
     16 CA         14.7020   50.2890   70.3640 C.3       8 GLP5        0.0000 
     17 CA         15.7295   49.1675   73.4405 C.3       4 GLC5        0.0000 
     18 CA         13.7740   49.8320   74.0370 C.3      12 GLL5        0.0000 
     19 N           8.0280   49.7685   72.5675 N.am      2 SEC2        0.0000 
     20 N           9.1630   50.1370   71.9240 N.am     10 SEL2        0.0000 
     21 N           6.8930   49.4000   73.2110 N.am      6 SEP2        0.0000 
     22 CA          6.8755   49.3830   68.6925 C.3       4 GLC5        0.0000 
     23 CA          8.3020   48.0460   69.3880 C.3      12 GLL5        0.0000 
     24 CA          5.4490   50.7200   67.9970 C.3       8 GLP5        0.0000 
     25 CA          6.6460   49.0155   67.4500 C.3       4 GLC5        0.0000 
     26 CA          8.0580   48.1910   67.9210 C.3      12 GLL5        0.0000 
     27 CA          5.2340   49.8400   66.9790 C.3       8 GLP5        0.0000 
     28 OD1         7.3630   43.3185   70.1000 O.co2     3 ASC3        0.0000 
     29 OD1         7.0100   44.5790   70.5290 O.co2    11 ASL3        0.0000 
     30 OD1         7.7160   42.0580   69.6710 O.co2     7 ASP3        0.0000 
     31 O           7.3630   43.3185   70.1000 O.2       1 ALC1        0.0000 
     32 O           7.0100   44.5790   70.5290 O.2       9 ALL1        0.0000 
     33 O           7.7160   42.0580   69.6710 O.2       5 ALP1        0.0000 
     34 N           7.9975   44.7880   67.1070 N.am      2 SEC2        0.0000 
     35 N           6.9710   45.0670   67.9300 N.am     10 SEL2        0.0000 
     36 N           9.0240   44.5090   66.2840 N.am      6 SEP2        0.0000 
     37 CA          5.0050   48.1150   67.7535 C.3       4 GLC5        0.0000 
     38 CA          4.7760   46.3900   68.5280 C.3      12 GLL5        0.0000 
     39 CA          4.8295   44.2490   66.4860 C.3       4 GLC5        0.0000 
     40 CA          3.6910   45.5860   67.8910 C.3      12 GLL5        0.0000 
     41 CA          5.9680   42.9120   65.0810 C.3       8 GLP5        0.0000 
     42 CA          3.4095   42.4430   68.5565 C.3       4 GLC5        0.0000 
     43 CA          3.3020   44.4370   68.7760 C.3      12 GLL5        0.0000 
     44 CA          3.5170   40.4490   68.3370 C.3       8 GLP5        0.0000 
     45 CA          4.2065   47.2800   63.0850 C.3       4 GLC5        0.0000 
     46 CA          2.8290   48.3390   63.0020 C.3      12 GLL5        0.0000 
     47 CA          5.5840   46.2210   63.1680 C.3       8 GLP5        0.0000 
     48 CA         16.9425   45.5648   71.2825 C.3       4 GLC5        0.0000 
     49 CA         14.8286   45.7546   68.4832 C.3       4 GLC5        0.0000 
     50 CA         14.2980   46.1780   66.8610 C.3       8 GLP5        0.0000 
     51 CA         12.6610   43.5023   71.5550 C.3       4 GLC5        0.0000 
     52 CA         14.5260   43.9220   70.8090 C.3      12 GLL5        0.0000 
     53 CA         11.0630   42.6680   71.8080 C.3       8 GLP5        0.0000 
     54 CA         13.9375   43.1882   72.9205 C.3       4 GLC5        0.0000 
     55 CA         13.9920   44.7510   71.7950 C.3      12 GLL5        0.0000 
     56 CA         13.6160   42.0400   74.5390 C.3       8 GLP5        0.0000 
     57 CA         13.2024   44.0510   69.6320 C.3       4 GLC5        0.0000 
     58 CA         11.9390   43.6340   68.2040 C.3       8 GLP5        0.0000 
     59 CA         10.7178   52.6718   74.3805 C.3       4 GLC5        0.0000 
     60 CA         11.6110   51.3680   73.0890 C.3      12 GLL5        0.0000 
     61 CA          9.3710   53.7150   75.2180 C.3       8 GLP5        0.0000 
     62 CA         13.6753   52.5378   72.9170 C.3       4 GLC5        0.0000 
     63 CA         12.5180   51.8890   73.9970 C.3      12 GLL5        0.0000 
     64 CA         15.2860   53.4470   72.2910 C.3       8 GLP5        0.0000 
     65 CA         14.4827   51.9655   73.2713 C.3       4 GLC5        0.0000 
     66 CA         13.5850   51.1360   74.4660 C.3      12 GLL5        0.0000 
     67 CA          4.1065   49.3547   64.6908 C.3       4 GLC5        0.0000 
     68 CA          2.1650   48.9200   64.3010 C.3      12 GLL5        0.0000 
     69 CA          5.7160   50.0800   65.7300 C.3       8 GLP5        0.0000 
@<TRIPOS>BOND
@<TRIPOS>SUBSTRUCTURE
     1 ALC1       31 GROUP        1 X    ALC  0     ROOT ALC X 1
     2 SEC2       19 GROUP        1 X    SEC  0     **** SEC X 2
     3 ASC3       28 GROUP        1 X    ASC  0     **** ASC X 3
     4 GLC5        1 GROUP        1 X    GLC  0     **** GLC X 6
     5 ALP1       33 GROUP        1 Y    ALP  0     ROOT ALP Y 8
     6 SEP2       21 GROUP        1 Y    SEP  0     **** SEP Y 9
     7 ASP3       30 GROUP        1 Y    ASP  0     **** ASP Y 10
     8 GLP5        3 GROUP        1 Y    GLP  0     **** GLP Y 13
     9 ALL1       32 GROUP        1 Z    ALL  0     ROOT ALL Z 15
    10 SEL2       20 GROUP        1 Z    SEL  0     **** SEL Z 16
    11 ASL3       29 GROUP        1 Z    ASL  0     **** ASL Z 17
    12 GLL5        2 GROUP        1 Z    GLL  0     **** GLL Z 20
@<TRIPOS>SET

