#    Name: 2v11_C80_1_ligand
#    Modification time : Tue Mar 25 00:40:56 2014

@<TRIPOS>MOLECULE
2v11_C80_1_ligand
   79    81     1     0     0
SMALL
NO_CHARGES


@<TRIPOS>ATOM
      1 C1         15.0980   46.6280   70.8630 C.ar      1 C801341     0.0000 
      2 C2         15.6330   45.8010   69.8770 C.ar      1 C801341     0.0000 
      3 C3         15.3530   44.4480   69.8410 C.ar      1 C801341     0.0000 
      4 C4         14.5260   43.9220   70.8090 C.ar      1 C801341     0.0000 
      5 C5         13.9920   44.7510   71.7950 C.ar      1 C801341     0.0000 
      6 C6         14.2740   46.1030   71.8330 C.ar      1 C801341     0.0000 
      7 C7         13.7260   46.9640   72.9610 C.3       1 C801341     0.0000 
      8 N8         12.8210   48.0430   72.5900 N.pl3     1 C801341     0.0000 
      9 C16        11.8290   47.9420   71.7430 C.2       1 C801341     0.0000 
     10 C9         12.8690   49.2940   73.1280 C.ar      1 C801341     0.0000 
     11 C13        11.6110   51.3680   73.0890 C.ar      1 C801341     0.0000 
     12 C14        11.7980   50.0680   72.6660 C.ar      1 C801341     0.0000 
     13 C15        11.2070   49.1690   71.8180 C.2       1 C801341     0.0000 
     14 C10        13.7740   49.8320   74.0370 C.ar      1 C801341     0.0000 
     15 C11        13.5850   51.1360   74.4660 C.ar      1 C801341     0.0000 
     16 C12        12.5180   51.8890   73.9970 C.ar      1 C801341     0.0000 
     17 C17        10.0360   49.6460   71.1980 C.2       1 C801341     0.0000 
     18 O18         9.1630   50.1370   71.9240 O.2       1 C801341     0.0000 
     19 O19         9.8390   49.6510   69.9610 O.3       1 C801341     0.0000 
     20 C20         9.7260   48.3690   69.3950 C.3       1 C801341     0.0000 
     21 C21         8.3020   48.0460   69.3880 C.3       1 C801341     0.0000 
     22 C22         8.0580   48.1910   67.9210 C.3       1 C801341     0.0000 
     23 C23         8.2130   46.6440   69.9150 C.3       1 C801341     0.0000 
     24 C24         6.8700   45.9430   70.0740 C.3       1 C801341     0.0000 
     25 N25         7.0100   44.5790   70.5290 N.4       1 C801341     0.0000 
     26 C26         6.1410   45.8060   68.8060 C.3       1 C801341     0.0000 
     27 O27         6.9710   45.0670   67.9300 O.3       1 C801341     0.0000 
     28 C28         4.7760   46.3900   68.5280 C.3       1 C801341     0.0000 
     29 C29         3.6910   45.5860   67.8910 C.3       1 C801341     0.0000 
     30 C30         3.3020   44.4370   68.7760 C.3       1 C801341     0.0000 
     31 C31         2.5390   46.5610   67.8030 C.2       1 C801341     0.0000 
     32 O32         1.8130   46.7350   68.7790 O.2       1 C801341     0.0000 
     33 N33         2.3520   47.3480   66.7560 N.am      1 C801341     0.0000 
     34 C34         1.7190   46.8670   65.5630 C.3       1 C801341     0.0000 
     35 C35         1.0820   48.0260   64.8790 C.3       1 C801341     0.0000 
     36 C36         2.1650   48.9200   64.3010 C.3       1 C801341     0.0000 
     37 C37         2.8290   48.3390   63.0020 C.3       1 C801341     0.0000 
     38 H          15.3242   47.6338   70.8595 H         1 C801341     0.0000 
     39 H          16.2555   46.2154   69.1553 H         1 C801341     0.0000 
     40 H          15.7513   43.8534   69.1122 H         1 C801341     0.0000 
     41 H          14.2976   42.9179   70.8111 H         1 C801341     0.0000 
     42 H          13.3676   44.3367   72.5160 H         1 C801341     0.0000 
     43 H          14.6048   47.3766   73.5292 H         1 C801341     0.0000 
     44 H          13.2251   46.2774   73.6979 H         1 C801341     0.0000 
     45 H          11.5664   47.2252   71.1946 H         1 C801341     0.0000 
     46 H          10.8345   51.9267   72.7472 H         1 C801341     0.0000 
     47 H          14.5576   49.2777   74.3784 H         1 C801341     0.0000 
     48 H          14.2462   51.5535   75.1434 H         1 C801341     0.0000 
     49 H          12.3978   52.8646   74.3349 H         1 C801341     0.0000 
     50 H          10.2646   47.6212   69.9815 H         1 C801341     0.0000 
     51 H          10.1082   48.3456   68.3719 H         1 C801341     0.0000 
     52 H           7.7766   48.7318   69.9358 H         1 C801341     0.0000 
     53 H           8.7423   46.6045   70.9234 H         1 C801341     0.0000 
     54 H           8.8752   45.9754   69.2722 H         1 C801341     0.0000 
     55 H           6.2560   46.4937   70.7715 H         1 C801341     0.0000 
     56 H           5.5714   44.5792   69.2993 H         1 C801341     0.0000 
     57 H           4.9262   47.3418   67.9109 H         1 C801341     0.0000 
     58 H           4.3756   46.8168   69.5113 H         1 C801341     0.0000 
     59 H           3.9685   45.2763   66.9378 H         1 C801341     0.0000 
     60 H           2.6544   48.3466   66.7510 H         1 C801341     0.0000 
     61 H           0.9509   46.1254   65.7945 H         1 C801341     0.0000 
     62 H           2.4455   46.4109   64.8864 H         1 C801341     0.0000 
     63 H           0.4887   48.6001   65.5863 H         1 C801341     0.0000 
     64 H           0.4403   47.6801   64.0726 H         1 C801341     0.0000 
     65 H           2.9576   49.0734   65.0436 H         1 C801341     0.0000 
     66 H           1.7446   49.9023   64.0528 H         1 C801341     0.0000 
     67 H           8.4285   49.0493   67.5659 H         1 C801341     0.0000 
     68 H           8.4817   47.4507   67.3991 H         1 C801341     0.0000 
     69 H           7.0819   48.1811   67.7041 H         1 C801341     0.0000 
     70 H           6.2251   44.2875   71.0757 H         1 C801341     0.0000 
     71 H           7.0889   43.9388   69.7648 H         1 C801341     0.0000 
     72 H           7.8240   44.4588   71.0972 H         1 C801341     0.0000 
     73 H           4.0722   43.8226   68.9470 H         1 C801341     0.0000 
     74 H           2.9728   44.7494   69.6671 H         1 C801341     0.0000 
     75 H           2.5723   43.8864   68.3706 H         1 C801341     0.0000 
     76 H           3.5345   48.9488   62.6409 H         1 C801341     0.0000 
     77 H           3.2644   47.4548   63.1711 H         1 C801341     0.0000 
     78 H           2.1592   48.2011   62.2723 H         1 C801341     0.0000 
     79 H           6.3420   44.5192   67.3783 H         1 C801341     0.0000 
@<TRIPOS>BOND
     1    2    1 ar   
     2    6    1 ar   
     3   38    1 1    
     4    3    2 ar   
     5   39    2 1    
     6    4    3 ar   
     7   40    3 1    
     8    5    4 ar   
     9   41    4 1    
    10    6    5 ar   
    11   42    5 1    
    12    7    6 1    
    13    8    7 1    
    14   43    7 1    
    15   44    7 1    
    16    9    8 1    
    17   10    8 1    
    18   13    9 2    
    19   45    9 1    
    20   12   10 ar   
    21   14   10 ar   
    22   12   11 ar   
    23   16   11 ar   
    24   46   11 1    
    25   13   12 1    
    26   17   13 1    
    27   15   14 ar   
    28   47   14 1    
    29   16   15 ar   
    30   48   15 1    
    31   49   16 1    
    32   18   17 2    
    33   19   17 1    
    34   20   19 1    
    35   21   20 1    
    36   50   20 1    
    37   51   20 1    
    38   22   21 1    
    39   23   21 1    
    40   52   21 1    
    41   67   22 1    
    42   68   22 1    
    43   69   22 1    
    44   24   23 1    
    45   53   23 1    
    46   54   23 1    
    47   25   24 1    
    48   26   24 1    
    49   55   24 1    
    50   70   25 1    
    51   71   25 1    
    52   72   25 1    
    53   27   26 1    
    54   28   26 1    
    55   56   26 1    
    56   79   27 1    
    57   29   28 1    
    58   57   28 1    
    59   58   28 1    
    60   30   29 1    
    61   31   29 1    
    62   59   29 1    
    63   73   30 1    
    64   74   30 1    
    65   75   30 1    
    66   32   31 2    
    67   33   31 am   
    68   34   33 1    
    69   60   33 1    
    70   35   34 1    
    71   61   34 1    
    72   62   34 1    
    73   36   35 1    
    74   63   35 1    
    75   64   35 1    
    76   37   36 1    
    77   65   36 1    
    78   66   36 1    
    79   76   37 1    
    80   77   37 1    
    81   78   37 1    
@<TRIPOS>SUBSTRUCTURE
     1 C801341     1 GROUP   
@<TRIPOS>SET

