#    Name: 2c1a_I5S_1_INTS_M
#    Modification time : Mon Mar 24 22:13:46 2014

@<TRIPOS>MOLECULE
2c1a_I5S_1_INTS_M
   74     0     9     0     0
SMALL
NO_CHARGES


@<TRIPOS>ATOM
      1 CA         14.0685   16.0865   -0.3245 C.3       3 GLC5        0.0000 
      2 CA         12.9800   14.4640   -0.2000 C.3       9 GLL5        0.0000 
      3 CA         15.1570   17.7090   -0.4490 C.3       6 GLP5        0.0000 
      4 CA         11.3395   14.7290   -1.2735 C.3       3 GLC5        0.0000 
      5 CA          9.6990   14.9940   -2.3470 C.3       6 GLP5        0.0000 
      6 CA         12.9920   15.3210   -1.9420 C.3       3 GLC5        0.0000 
      7 CA         13.0040   16.1780   -3.6840 C.3       6 GLP5        0.0000 
      8 CA         13.3745    5.0860    3.8995 C.3       3 GLC5        0.0000 
      9 CA         13.1630    6.7670    3.0450 C.3       9 GLL5        0.0000 
     10 CA         13.5860    3.4050    4.7540 C.3       6 GLP5        0.0000 
     11 OD1        11.9930    7.7645    0.8555 O.co2     2 ASC3        0.0000 
     12 OD1        11.8370    7.2790    2.6380 O.co2     8 ASL3        0.0000 
     13 OD1        12.1490    8.2500   -0.9270 O.co2     5 ASP3        0.0000 
     14 OD1        11.1990    7.3585    1.4255 O.co2     2 ASC3        0.0000 
     15 OD1        10.5610    7.4380    0.2130 O.co2     5 ASP3        0.0000 
     16 CA          8.5625    7.1405    2.0285 C.3       3 GLC5        0.0000 
     17 CA          9.5890    7.8320    3.4420 C.3       9 GLL5        0.0000 
     18 CA          7.5360    6.4490    0.6150 C.3       6 GLP5        0.0000 
     19 CA          7.5130    8.4285    1.2030 C.3       3 GLC5        0.0000 
     20 CA          7.4900   10.4080    1.7910 C.3       9 GLL5        0.0000 
     21 CA          6.0925   11.5210   -0.5715 C.3       3 GLC5        0.0000 
     22 CA          6.4020   10.4050    0.8900 C.3       9 GLL5        0.0000 
     23 CA          5.7830   12.6370   -2.0330 C.3       6 GLP5        0.0000 
     24 CA          3.5325    9.4920    0.1005 C.3       3 GLC5        0.0000 
     25 CA          5.1240   10.3480    1.3600 C.3       9 GLL5        0.0000 
     26 CA          1.9410    8.6360   -1.1590 C.3       6 GLP5        0.0000 
     27 CA          4.9675   10.8480   -0.5805 C.3       3 GLC5        0.0000 
     28 CA          4.8110   11.3480   -2.5210 C.3       6 GLP5        0.0000 
     29 CA          1.7360   10.9235    3.7990 C.3       3 GLC5        0.0000 
     30 CA          3.5630   10.2000    3.2420 C.3       9 GLL5        0.0000 
     31 CA         -0.0910   11.6470    4.3560 C.3       6 GLP5        0.0000 
     32 CA          2.0985    8.7105    3.4555 C.3       3 GLC5        0.0000 
     33 CA          0.6340    7.2210    3.6690 C.3       6 GLP5        0.0000 
     34 N           1.9375    9.8205    4.9310 N.am      1 SEC2        0.0000 
     35 N           3.3130   10.1080    4.5290 N.am      7 SEL2        0.0000 
     36 N           0.5620    9.5330    5.3330 N.am      4 SEP2        0.0000 
     37 CA          2.3375    9.1670    5.6945 C.3       3 GLC5        0.0000 
     38 CA          4.3100   10.1000    5.4270 C.3       9 GLL5        0.0000 
     39 CA          0.3650    8.2340    5.9620 C.3       6 GLP5        0.0000 
     40 CA         15.6857   13.3510    1.3182 C.3       3 GLC5        0.0000 
     41 CA         13.4670   13.2150    0.8600 C.3       9 GLL5        0.0000 
     42 CA         17.3570   13.8770    1.9620 C.3       6 GLP5        0.0000 
     43 CA         12.5345   12.8517    4.4825 C.3       3 GLC5        0.0000 
     44 CA         12.8060   13.0070    2.0610 C.3       9 GLL5        0.0000 
     45 CA         12.0500   13.2020    6.4840 C.3       6 GLP5        0.0000 
     46 CA         12.9069   15.2321    1.8142 C.3       3 GLC5        0.0000 
     47 CA         12.7990   17.0410    2.4330 C.3       6 GLP5        0.0000 
     48 CA         11.0939   13.6231    1.3708 C.3       3 GLC5        0.0000 
     49 CA          9.1730   13.8230    1.5460 C.3       6 GLP5        0.0000 
     50 CA         14.4270   13.2694    3.7365 C.3       3 GLC5        0.0000 
     51 CA         13.2320   11.9960    2.9010 C.3       9 GLL5        0.0000 
     52 CA         15.1740   14.6720    4.9630 C.3       6 GLP5        0.0000 
     53 CA         16.0113   12.6038    1.9480 C.3       3 GLC5        0.0000 
     54 CA         14.3410   11.2320    2.5390 C.3       9 GLL5        0.0000 
     55 CA          9.7595    6.7110    5.3477 C.3       3 GLC5        0.0000 
     56 CA         11.0990    7.8460    3.7530 C.3       9 GLL5        0.0000 
     57 CA          9.1750    5.5830    7.0980 C.3       6 GLP5        0.0000 
     58 CA          6.9725   12.2045    3.2880 C.3       3 GLC5        0.0000 
     59 CA          7.3110   10.2930    3.1490 C.3       9 GLL5        0.0000 
     60 CA          7.2980   14.1300    3.1660 C.3       6 GLP5        0.0000 
     61 CA          5.6075    8.5750    3.4050 C.3       3 GLC5        0.0000 
     62 CA          4.5680    6.8710    3.4000 C.3       6 GLP5        0.0000 
     63 CA          8.0595   12.1148    1.4432 C.3       3 GLC5        0.0000 
     64 CA          6.1405    8.5452    0.3240 C.3       3 GLC5        0.0000 
     65 CA          6.5180    6.7140   -0.4770 C.3       6 GLP5        0.0000 
     66 CA          4.4268    8.5633    3.0240 C.3       3 GLC5        0.0000 
     67 CA          5.1480   12.0343    5.9398 C.3       3 GLC5        0.0000 
     68 CA          5.6460   10.1750    5.0400 C.3       9 GLL5        0.0000 
     69 CA          5.3180   13.9310    6.6460 C.3       6 GLP5        0.0000 
     70 CA          4.2775   11.8248    4.0802 C.3       3 GLC5        0.0000 
     71 CA          3.5770   13.5120    2.9270 C.3       6 GLP5        0.0000 
     72 CA          4.7730    8.5042    4.3167 C.3       3 GLC5        0.0000 
     73 CA          4.3556   11.8861    3.0433 C.3       3 GLC5        0.0000 
     74 CA          5.9830   10.2650    3.6710 C.3       9 GLL5        0.0000 
@<TRIPOS>BOND
@<TRIPOS>SUBSTRUCTURE
     1 SEC2       34 GROUP        1 X    SEC  0     ROOT SEC X 2
     2 ASC3       11 GROUP        1 X    ASC  0     **** ASC X 3
     3 GLC5        1 GROUP        1 X    GLC  0     **** GLC X 6
     4 SEP2       36 GROUP        1 Y    SEP  0     ROOT SEP Y 9
     5 ASP3       13 GROUP        1 Y    ASP  0     **** ASP Y 10
     6 GLP5        3 GROUP        1 Y    GLP  0     **** GLP Y 13
     7 SEL2       35 GROUP        1 Z    SEL  0     ROOT SEL Z 16
     8 ASL3       12 GROUP        1 Z    ASL  0     **** ASL Z 17
     9 GLL5        2 GROUP        1 Z    GLL  0     **** GLL Z 20
@<TRIPOS>SET

