#    Name: 2c1a_I5S_1_ligand
#    Modification time : Mon Mar 24 22:13:47 2014

@<TRIPOS>MOLECULE
2c1a_I5S_1_ligand
   49    51     1     0     0
SMALL
NO_CHARGES


@<TRIPOS>ATOM
      1 CL1        12.9800   14.4640   -0.2000 Cl        1 I5S1351     0.0000 
      2 C2         13.4670   13.2150    0.8600 C.ar      1 I5S1351     0.0000 
      3 C3         12.8060   13.0070    2.0610 C.ar      1 I5S1351     0.0000 
      4 C4         13.2320   11.9960    2.9010 C.ar      1 I5S1351     0.0000 
      5 C5         14.3410   11.2320    2.5390 C.ar      1 I5S1351     0.0000 
      6 C6         14.7610   10.1120    3.4440 C.3       1 I5S1351     0.0000 
      7 O7         13.7410    9.1450    3.1360 O.3       1 I5S1351     0.0000 
      8 C8         14.2370    7.8400    3.2240 C.3       1 I5S1351     0.0000 
      9 C9         13.1630    6.7670    3.0450 C.3       1 I5S1351     0.0000 
     10 N10        11.8370    7.2790    2.6380 N.4       1 I5S1351     0.0000 
     11 C13        11.0990    7.8460    3.7530 C.3       1 I5S1351     0.0000 
     12 C14         9.5890    7.8320    3.4420 C.3       1 I5S1351     0.0000 
     13 N15         8.9710    8.6680    4.4780 N.pl3     1 I5S1351     0.0000 
     14 S16         8.7360   10.2570    4.1790 S.o2      1 I5S1351     0.0000 
     15 O17         8.4880   10.6990    5.4780 O.2       1 I5S1351     0.0000 
     16 O18         9.7340   10.7660    3.3120 O.2       1 I5S1351     0.0000 
     17 C19         7.3110   10.2930    3.1490 C.ar      1 I5S1351     0.0000 
     18 C20         7.4900   10.4080    1.7910 C.ar      1 I5S1351     0.0000 
     19 C21         6.4020   10.4050    0.8900 C.ar      1 I5S1351     0.0000 
     20 C22         5.1240   10.3480    1.3600 C.ar      1 I5S1351     0.0000 
     21 C23         4.8920   10.2740    2.7480 C.ar      1 I5S1351     0.0000 
     22 C24         3.5630   10.2000    3.2420 C.ar      1 I5S1351     0.0000 
     23 N25         3.3130   10.1080    4.5290 N.ar      1 I5S1351     0.0000 
     24 C26         4.3100   10.1000    5.4270 C.ar      1 I5S1351     0.0000 
     25 C27         5.6460   10.1750    5.0400 C.ar      1 I5S1351     0.0000 
     26 C28         5.9830   10.2650    3.6710 C.ar      1 I5S1351     0.0000 
     27 C29        14.9900   11.4290    1.3290 C.ar      1 I5S1351     0.0000 
     28 C30        14.5620   12.4350    0.4890 C.ar      1 I5S1351     0.0000 
     29 H          12.0096   13.5984    2.3211 H         1 I5S1351     0.0000 
     30 H          12.7432   11.8055    3.7800 H         1 I5S1351     0.0000 
     31 H          14.7077   10.4357    4.4521 H         1 I5S1351     0.0000 
     32 H          15.7250    9.7739    3.1609 H         1 I5S1351     0.0000 
     33 H          14.7280    7.6450    4.2065 H         1 I5S1351     0.0000 
     34 H          15.0244    7.6398    2.4595 H         1 I5S1351     0.0000 
     35 H          13.0761    6.2054    4.0002 H         1 I5S1351     0.0000 
     36 H          13.5324    6.0329    2.2967 H         1 I5S1351     0.0000 
     37 H          11.3919    8.8813    3.9395 H         1 I5S1351     0.0000 
     38 H          11.2567    7.2719    4.6685 H         1 I5S1351     0.0000 
     39 H           9.2413    6.8194    3.4964 H         1 I5S1351     0.0000 
     40 H           9.4406    8.2459    2.4643 H         1 I5S1351     0.0000 
     41 H           8.6817    8.3521    5.3484 H         1 I5S1351     0.0000 
     42 H           8.4501   10.5009    1.3986 H         1 I5S1351     0.0000 
     43 H           6.5982   10.4466   -0.1208 H         1 I5S1351     0.0000 
     44 H           4.3181   10.3577    0.7214 H         1 I5S1351     0.0000 
     45 H           2.7966   10.2226    2.5283 H         1 I5S1351     0.0000 
     46 H           4.1007   10.0363    6.4524 H         1 I5S1351     0.0000 
     47 H           6.3920   10.1655    5.7427 H         1 I5S1351     0.0000 
     48 H          15.7803   10.8300    1.0652 H         1 I5S1351     0.0000 
     49 H          15.0388   12.6135   -0.4005 H         1 I5S1351     0.0000 
@<TRIPOS>BOND
     1    2    1 1    
     2    3    2 ar   
     3   28    2 ar   
     4    4    3 ar   
     5   29    3 1    
     6    5    4 ar   
     7   30    4 1    
     8    6    5 1    
     9   27    5 ar   
    10    7    6 1    
    11   31    6 1    
    12   32    6 1    
    13    8    7 1    
    14    9    8 1    
    15   33    8 1    
    16   34    8 1    
    17   10    9 1    
    18   35    9 1    
    19   36    9 1    
    20   11   10 1    
    21   12   11 1    
    22   37   11 1    
    23   38   11 1    
    24   13   12 1    
    25   39   12 1    
    26   40   12 1    
    27   14   13 1    
    28   41   13 1    
    29   15   14 2    
    30   16   14 2    
    31   17   14 1    
    32   18   17 ar   
    33   26   17 ar   
    34   19   18 ar   
    35   42   18 1    
    36   20   19 ar   
    37   43   19 1    
    38   21   20 ar   
    39   44   20 1    
    40   22   21 ar   
    41   26   21 ar   
    42   23   22 ar   
    43   45   22 1    
    44   24   23 ar   
    45   25   24 ar   
    46   46   24 1    
    47   26   25 ar   
    48   47   25 1    
    49   28   27 ar   
    50   48   27 1    
    51   49   28 1    
@<TRIPOS>SUBSTRUCTURE
     1 I5S1351     1 GROUP   
@<TRIPOS>SET

