#    Name: 3rmo_S04_1_INTS_M
#    Modification time : Tue Mar 25 11:42:41 2014

@<TRIPOS>MOLECULE
3rmo_S04_1_INTS_M
   90     0     9     0     0
SMALL
NO_CHARGES


@<TRIPOS>ATOM
      1 CA         13.5040  -17.8255   25.3435 C.3       3 GLC5        0.0000 
      2 CA         13.4960  -19.7160   24.2670 C.3       9 GLL5        0.0000 
      3 CA         13.5120  -15.9350   26.4200 C.3       6 GLP5        0.0000 
      4 CA         14.7610  -17.2380   25.4400 C.3       3 GLC5        0.0000 
      5 CA         16.0100  -18.5410   24.4600 C.3       9 GLL5        0.0000 
      6 N          13.0915  -16.3875   23.2480 N.am      2 SEC2        0.0000 
      7 N          14.0350  -16.2280   21.9800 N.am      8 SEL2        0.0000 
      8 N          12.1480  -16.5470   24.5160 N.am      5 SEP2        0.0000 
      9 CA         18.2505  -12.6300   26.8010 C.3       3 GLC5        0.0000 
     10 CA         19.5720  -13.4300   25.8770 C.3       9 GLL5        0.0000 
     11 CA         16.9290  -11.8300   27.7250 C.3       6 GLP5        0.0000 
     12 CA         19.2715  -11.6775   26.6665 C.3       3 GLC5        0.0000 
     13 CA         20.8930  -12.6760   25.9530 C.3       9 GLL5        0.0000 
     14 CA         17.6500  -10.6790   27.3800 C.3       6 GLP5        0.0000 
     15 CA         22.4805  -13.7965   21.8330 C.3       3 GLC5        0.0000 
     16 CA         21.6880  -13.9430   23.9180 C.3       9 GLL5        0.0000 
     17 CA         23.2730  -13.6500   19.7480 C.3       6 GLP5        0.0000 
     18 O          15.0265  -14.7985   23.7850 O.2       1 ALC1        0.0000 
     19 O          16.0980  -15.4890   23.1420 O.2       7 ALL1        0.0000 
     20 O          13.9550  -14.1080   24.4280 O.2       4 ALP1        0.0000 
     21 N          15.2980  -12.1105   23.9570 N.am      2 SEC2        0.0000 
     22 N          16.0700  -12.7160   22.8610 N.am      8 SEL2        0.0000 
     23 N          14.5260  -11.5050   25.0530 N.am      5 SEP2        0.0000 
     24 CA         19.0385  -10.7110   21.9065 C.3       3 GLC5        0.0000 
     25 CA         17.4250  -11.6620   20.7520 C.3       9 GLL5        0.0000 
     26 CA         20.6520   -9.7600   23.0610 C.3       6 GLP5        0.0000 
     27 CA         17.3735  -10.9935   22.7700 C.3       3 GLC5        0.0000 
     28 CA         17.3220  -10.3250   24.7880 C.3       6 GLP5        0.0000 
     29 CA         21.0850  -13.3435   19.0915 C.3       3 GLC5        0.0000 
     30 CA         19.3520  -12.6850   19.6950 C.3       9 GLL5        0.0000 
     31 CA         22.8180  -14.0020   18.4880 C.3       6 GLP5        0.0000 
     32 O          16.1560   -9.3285   21.4910 O.2       1 ALC1        0.0000 
     33 O          15.4050  -10.3260   20.7320 O.2       7 ALL1        0.0000 
     34 O          16.9070   -8.3310   22.2500 O.2       4 ALP1        0.0000 
     35 CA         11.7890  -12.0625   18.9335 C.3       3 GLC5        0.0000 
     36 CA         12.2740  -12.3540   21.0740 C.3       9 GLL5        0.0000 
     37 CA         11.3040  -11.7710   16.7930 C.3       6 GLP5        0.0000 
     38 CA         10.5815  -13.1885   20.9035 C.3       3 GLC5        0.0000 
     39 CA          8.8890  -14.0230   20.7330 C.3       6 GLP5        0.0000 
     40 O          13.5010  -13.7625   23.0590 O.2       1 ALC1        0.0000 
     41 O          13.0470  -13.4170   21.6900 O.2       7 ALL1        0.0000 
     42 O          11.9205  -13.9135   22.6065 O.2       1 ALC1        0.0000 
     43 O          10.7940  -14.4100   23.5230 O.2       4 ALP1        0.0000 
     44 CA         10.7620   -7.3165   23.3150 C.3       3 GLC5        0.0000 
     45 CA         12.2440   -7.4520   24.6080 C.3       9 GLL5        0.0000 
     46 CA          9.2800   -7.1810   22.0220 C.3       6 GLP5        0.0000 
     47 CA         11.7155   -7.9930   26.2565 C.3       3 GLC5        0.0000 
     48 CA         11.1870   -8.5340   27.9050 C.3       6 GLP5        0.0000 
     49 CA         13.3920   -7.1605   26.5130 C.3       3 GLC5        0.0000 
     50 CA         14.5400   -6.8690   28.4180 C.3       6 GLP5        0.0000 
     51 CA         11.3195   -5.9230   25.3535 C.3       3 GLC5        0.0000 
     52 CA         10.3950   -4.3940   26.0990 C.3       6 GLP5        0.0000 
     53 CA         12.3468  -18.1068   23.7512 C.3       3 GLC5        0.0000 
     54 CA         14.0790  -19.1350   23.1440 C.3       9 GLL5        0.0000 
     55 CA         10.9060  -16.7880   23.7970 C.3       6 GLP5        0.0000 
     56 CA         14.3142  -17.9913   26.6485 C.3       3 GLC5        0.0000 
     57 CA         14.1670  -19.7050   25.4860 C.3       9 GLL5        0.0000 
     58 CA         13.8330  -16.5700   27.7630 C.3       6 GLP5        0.0000 
     59 CA         17.9555  -12.2598   24.6043 C.3       3 GLC5        0.0000 
     60 CA         17.9240  -14.5670   24.4060 C.3       9 GLL5        0.0000 
     61 CA         22.7800  -12.1098   26.6850 C.3       3 GLC5        0.0000 
     62 CA         24.1010  -11.1380   27.7260 C.3       6 GLP5        0.0000 
     63 CA         21.1914  -14.3325   27.4045 C.3       3 GLC5        0.0000 
     64 CA         22.0250  -13.4870   25.3350 C.3       9 GLL5        0.0000 
     65 CA         21.2540  -15.3950   29.1840 C.3       6 GLP5        0.0000 
     66 CA         21.8328  -11.5996   24.1725 C.3       3 GLC5        0.0000 
     67 CA         22.0920   -9.6870   23.5640 C.3       6 GLP5        0.0000 
     68 CA         18.9017  -10.3520   19.0132 C.3       3 GLC5        0.0000 
     69 CA         19.2130   -8.5240   18.1270 C.3       6 GLP5        0.0000 
     70 CA         18.5706  -13.8726   18.6826 C.3       3 GLC5        0.0000 
     71 CA         18.2330  -11.6880   19.4560 C.3       9 GLL5        0.0000 
     72 CA         18.3230  -14.8210   17.2050 C.3       6 GLP5        0.0000 
     73 CA         12.8037   -7.5963   21.6707 C.3       3 GLC5        0.0000 
     74 CA         13.0930   -8.9210   22.4650 C.3       9 GLL5        0.0000 
     75 CA         12.5080   -5.7130   21.2840 C.3       6 GLP5        0.0000 
     76 CA         12.7007  -11.6510   24.1655 C.3       3 GLC5        0.0000 
     77 CA         12.2860  -11.1200   21.9460 C.3       9 GLL5        0.0000 
     78 CA         13.5330  -12.2030   25.8310 C.3       6 GLP5        0.0000 
     79 CA         10.4313  -11.1237   20.9770 C.3       3 GLC5        0.0000 
     80 CA         11.4510  -11.0780   23.0540 C.3       9 GLL5        0.0000 
     81 CA          8.9970  -10.8400   19.6720 C.3       6 GLP5        0.0000 
     82 CA         12.6878  -10.8135   24.7760 C.3       3 GLC5        0.0000 
     83 CA         12.2590   -8.8930   23.5690 C.3       9 GLL5        0.0000 
     84 CA         11.5147   -8.9790   25.8130 C.3       3 GLC5        0.0000 
     85 CA         11.4260   -9.9550   23.8730 C.3       9 GLL5        0.0000 
     86 CA         12.3797   -6.9428   22.6862 C.3       3 GLC5        0.0000 
     87 CA         14.1128   -8.9417   24.2438 C.3       3 GLC5        0.0000 
     88 CA         15.9740   -9.7110   24.3990 C.3       6 GLP5        0.0000 
     89 CA         10.8739   -8.1768   22.5575 C.3       3 GLC5        0.0000 
     90 CA         14.6495   -9.5950   23.0772 C.3       3 GLC5        0.0000 
@<TRIPOS>BOND
@<TRIPOS>SUBSTRUCTURE
     1 ALC1       18 GROUP        1 X    ALC  0     ROOT ALC X 1
     2 SEC2        6 GROUP        1 X    SEC  0     **** SEC X 2
     3 GLC5        1 GROUP        1 X    GLC  0     **** GLC X 6
     4 ALP1       20 GROUP        1 Y    ALP  0     ROOT ALP Y 8
     5 SEP2        8 GROUP        1 Y    SEP  0     **** SEP Y 9
     6 GLP5        3 GROUP        1 Y    GLP  0     **** GLP Y 13
     7 ALL1       19 GROUP        1 Z    ALL  0     ROOT ALL Z 15
     8 SEL2        7 GROUP        1 Z    SEL  0     **** SEL Z 16
     9 GLL5        2 GROUP        1 Z    GLL  0     **** GLL Z 20
@<TRIPOS>SET

