#    Name: 3rmo_S04_1_ligand
#    Modification time : Tue Mar 25 11:42:42 2014

@<TRIPOS>MOLECULE
3rmo_S04_1_ligand
   79    82     1     0     0
SMALL
NO_CHARGES


@<TRIPOS>ATOM
      1 C7         15.9690  -17.9080   22.0250 C.3       1 S041        0.0000 
      2 S8         15.4670  -16.3170   21.9150 S.o2      1 S041        0.0000 
      3 C6         15.3390  -18.5500   23.2410 C.ar      1 S041        0.0000 
      4 C1         14.0790  -19.1350   23.1440 C.ar      1 S041        0.0000 
      5 C2         13.4960  -19.7160   24.2670 C.ar      1 S041        0.0000 
      6 C32        14.1670  -19.7050   25.4860 C.ar      1 S041        0.0000 
      7 C4         15.4240  -19.1200   25.5820 C.ar      1 S041        0.0000 
      8 C5         16.0100  -18.5410   24.4600 C.ar      1 S041        0.0000 
      9 O15        15.9490  -15.7870   20.6720 O.2       1 S041        0.0000 
     10 O16        14.0350  -16.2280   21.9800 O.2       1 S041        0.0000 
     11 C12        19.2540  -13.8220   24.4350 C.3       1 S041        0.0000 
     12 C35        19.5720  -13.4300   25.8770 C.3       1 S041        0.0000 
     13 C36        20.8930  -12.6760   25.9530 C.3       1 S041        0.0000 
     14 C37        22.0250  -13.4870   25.3350 C.3       1 S041        0.0000 
     15 C38        21.6880  -13.9430   23.9180 C.3       1 S041        0.0000 
     16 C39        20.3700  -14.7060   23.8820 C.3       1 S041        0.0000 
     17 N9         16.0980  -15.4890   23.1420 N.pl3     1 S041        0.0000 
     18 C10        17.3190  -14.7160   23.0120 C.3       1 S041        0.0000 
     19 C11        17.9240  -14.5670   24.4060 C.3       1 S041        0.0000 
     20 C13        16.9920  -13.3780   22.4060 C.2       1 S041        0.0000 
     21 O17        16.0700  -12.7160   22.8610 O.2       1 S041        0.0000 
     22 N14        17.7310  -12.9500   21.3810 N.am      1 S041        0.0000 
     23 C18        17.4250  -11.6620   20.7520 C.3       1 S041        0.0000 
     24 C19        15.9650  -11.4950   20.4370 C.2       1 S041        0.0000 
     25 O20        15.3180  -12.4040   19.9340 O.2       1 S041        0.0000 
     26 C23        18.2330  -11.6880   19.4560 C.3       1 S041        0.0000 
     27 C24        19.3520  -12.6850   19.6950 C.3       1 S041        0.0000 
     28 C25        18.8440  -13.6620   20.7450 C.3       1 S041        0.0000 
     29 N21        15.4050  -10.3260   20.7320 N.am      1 S041        0.0000 
     30 C22        14.0080  -10.0360   20.4420 C.3       1 S041        0.0000 
     31 C26        13.1060  -10.0380   21.6500 C.ar      1 S041        0.0000 
     32 C27        12.2860  -11.1200   21.9460 C.ar      1 S041        0.0000 
     33 C28        12.2740  -12.3540   21.0740 C.3       1 S041        0.0000 
     34 N34        13.0470  -13.4170   21.6900 N.4       1 S041        0.0000 
     35 C29        11.4510  -11.0780   23.0540 C.ar      1 S041        0.0000 
     36 C30        11.4260   -9.9550   23.8730 C.ar      1 S041        0.0000 
     37 C31        12.2590   -8.8930   23.5690 C.ar      1 S041        0.0000 
     38 CL3        12.2440   -7.4520   24.6080 Cl        1 S041        0.0000 
     39 C33        13.0930   -8.9210   22.4650 C.ar      1 S041        0.0000 
     40 H          17.0364  -17.8697   22.0990 H         1 S041        0.0000 
     41 H          15.6518  -18.3746   21.1151 H         1 S041        0.0000 
     42 H          13.5810  -19.1378   22.2461 H         1 S041        0.0000 
     43 H          12.5682  -20.1538   24.1951 H         1 S041        0.0000 
     44 H          13.7322  -20.1299   26.3153 H         1 S041        0.0000 
     45 H          15.9220  -19.1144   26.4816 H         1 S041        0.0000 
     46 H          16.9390  -18.1066   24.5322 H         1 S041        0.0000 
     47 H          19.1754  -12.9360   23.8423 H         1 S041        0.0000 
     48 H          19.6338  -14.3299   26.4873 H         1 S041        0.0000 
     49 H          18.7725  -12.7980   26.2608 H         1 S041        0.0000 
     50 H          21.1289  -12.4669   26.9976 H         1 S041        0.0000 
     51 H          20.7978  -11.7279   25.4214 H         1 S041        0.0000 
     52 H          22.2205  -14.3650   25.9570 H         1 S041        0.0000 
     53 H          22.9325  -12.8773   25.3090 H         1 S041        0.0000 
     54 H          22.4878  -14.5871   23.5488 H         1 S041        0.0000 
     55 H          21.6170  -13.0696   23.2676 H         1 S041        0.0000 
     56 H          20.1380  -14.9789   22.8592 H         1 S041        0.0000 
     57 H          20.4532  -15.6002   24.4885 H         1 S041        0.0000 
     58 H          15.5815  -15.5504   23.9992 H         1 S041        0.0000 
     59 H          18.0220  -15.2323   22.3883 H         1 S041        0.0000 
     60 H          17.2028  -14.0381   25.0533 H         1 S041        0.0000 
     61 H          18.0661  -15.5711   24.8425 H         1 S041        0.0000 
     62 H          17.7851  -10.8583   21.3453 H         1 S041        0.0000 
     63 H          18.6418  -10.7188   19.2700 H         1 S041        0.0000 
     64 H          17.6118  -12.0225   18.6540 H         1 S041        0.0000 
     65 H          20.2195  -12.1751   20.0669 H         1 S041        0.0000 
     66 H          19.5685  -13.2127   18.7864 H         1 S041        0.0000 
     67 H          18.5075  -14.5521   20.2584 H         1 S041        0.0000 
     68 H          19.6277  -13.8602   21.4442 H         1 S041        0.0000 
     69 H          15.9414   -9.5532   21.1887 H         1 S041        0.0000 
     70 H          13.6066  -10.7725   19.7077 H         1 S041        0.0000 
     71 H          13.9168   -9.0437   19.9422 H         1 S041        0.0000 
     72 H          12.6862  -12.0897   20.0916 H         1 S041        0.0000 
     73 H          11.2318  -12.6644   20.9249 H         1 S041        0.0000 
     74 H          10.8454  -11.8839   23.2717 H         1 S041        0.0000 
     75 H          10.8047   -9.9177   24.6814 H         1 S041        0.0000 
     76 H          13.6974   -8.1181   22.2531 H         1 S041        0.0000 
     77 H          13.8101  -13.7046   21.1112 H         1 S041        0.0000 
     78 H          13.4349  -13.1338   22.5671 H         1 S041        0.0000 
     79 H          12.4893  -14.2285   21.8645 H         1 S041        0.0000 
@<TRIPOS>BOND
     1    2    1 1    
     2    3    1 1    
     3   40    1 1    
     4   41    1 1    
     5    9    2 2    
     6   10    2 2    
     7   17    2 1    
     8    4    3 ar   
     9    8    3 ar   
    10    5    4 ar   
    11   42    4 1    
    12    6    5 ar   
    13   43    5 1    
    14    7    6 ar   
    15   44    6 1    
    16    8    7 ar   
    17   45    7 1    
    18   46    8 1    
    19   12   11 1    
    20   16   11 1    
    21   19   11 1    
    22   47   11 1    
    23   13   12 1    
    24   48   12 1    
    25   49   12 1    
    26   14   13 1    
    27   50   13 1    
    28   51   13 1    
    29   15   14 1    
    30   52   14 1    
    31   53   14 1    
    32   16   15 1    
    33   54   15 1    
    34   55   15 1    
    35   56   16 1    
    36   57   16 1    
    37   18   17 1    
    38   58   17 1    
    39   19   18 1    
    40   20   18 1    
    41   59   18 1    
    42   60   19 1    
    43   61   19 1    
    44   21   20 2    
    45   22   20 am   
    46   23   22 1    
    47   28   22 1    
    48   24   23 1    
    49   26   23 1    
    50   62   23 1    
    51   25   24 2    
    52   29   24 am   
    53   27   26 1    
    54   63   26 1    
    55   64   26 1    
    56   28   27 1    
    57   65   27 1    
    58   66   27 1    
    59   67   28 1    
    60   68   28 1    
    61   30   29 1    
    62   69   29 1    
    63   31   30 1    
    64   70   30 1    
    65   71   30 1    
    66   32   31 ar   
    67   39   31 ar   
    68   33   32 1    
    69   35   32 ar   
    70   34   33 1    
    71   72   33 1    
    72   73   33 1    
    73   77   34 1    
    74   78   34 1    
    75   79   34 1    
    76   36   35 ar   
    77   74   35 1    
    78   37   36 ar   
    79   75   36 1    
    80   38   37 1    
    81   39   37 ar   
    82   76   39 1    
@<TRIPOS>SUBSTRUCTURE
     1 S041        1 GROUP   
@<TRIPOS>SET

