#    Name: 4aa4_QC0_1_INTS_M
#    Modification time : Tue Mar 25 05:22:09 2014

@<TRIPOS>MOLECULE
4aa4_QC0_1_INTS_M
   70     0     9     0     0
SMALL
NO_CHARGES


@<TRIPOS>ATOM
      1 CA         -3.9685    1.5990   26.4235 C.3       3 GLC5        0.0000 
      2 CA         -1.7780    1.7820   26.3350 C.3       9 GLL5        0.0000 
      3 CA         -6.1590    1.4160   26.5120 C.3       6 GLP5        0.0000 
      4 CA         -4.1445    5.3475   27.2065 C.3       3 GLC5        0.0000 
      5 CA         -2.4840    4.5830   26.5210 C.3       9 GLL5        0.0000 
      6 CA         -5.8050    6.1120   27.8920 C.3       6 GLP5        0.0000 
      7 CA         -3.5890    6.3445   25.6860 C.3       3 GLC5        0.0000 
      8 CA         -4.6940    8.1060   24.8510 C.3       6 GLP5        0.0000 
      9 CA         -4.8795    1.7760   23.5840 C.3       3 GLC5        0.0000 
     10 CA         -2.8100    1.6540   24.1920 C.3       9 GLL5        0.0000 
     11 CA         -6.9490    1.8980   22.9760 C.3       6 GLP5        0.0000 
     12 CA         -4.4030   -2.0580   23.8555 C.3       3 GLC5        0.0000 
     13 CA         -2.8940   -0.5770   23.2110 C.3       9 GLL5        0.0000 
     14 CA         -5.9120   -3.5390   24.5000 C.3       6 GLP5        0.0000 
     15 O          -3.3265    4.4470   14.5975 O.2       1 ALC1        0.0000 
     16 O          -2.6520    3.3420   15.0770 O.2       7 ALL1        0.0000 
     17 O          -4.0010    5.5520   14.1180 O.2       4 ALP1        0.0000 
     18 N           0.6590    2.7375   15.6785 N.am      2 SEC2        0.0000 
     19 N          -0.7530    2.1590   15.5780 N.am      8 SEL2        0.0000 
     20 N           2.0710    3.3160   15.7790 N.am      5 SEP2        0.0000 
     21 CA          0.1175    1.1055   13.5790 C.3       3 GLC5        0.0000 
     22 CA          0.3680    3.1150   12.9600 C.3       9 GLL5        0.0000 
     23 CA         -0.1330   -0.9040   14.1980 C.3       6 GLP5        0.0000 
     24 CA          0.7915    5.1705   10.3390 C.3       3 GLC5        0.0000 
     25 CA          0.5310    4.1100   12.0580 C.3       9 GLL5        0.0000 
     26 CA          1.0520    6.2310    8.6200 C.3       6 GLP5        0.0000 
     27 CA          2.6430    4.4280   12.3955 C.3       3 GLC5        0.0000 
     28 CA          4.7550    4.7460   12.7330 C.3       6 GLP5        0.0000 
     29 CA          0.2650    6.2685   11.9355 C.3       3 GLC5        0.0000 
     30 CA         -0.0010    8.4270   11.8130 C.3       6 GLP5        0.0000 
     31 CA         -2.5780    5.4745   12.5915 C.3       3 GLC5        0.0000 
     32 CA         -1.0880    4.8940   13.3380 C.3       9 GLL5        0.0000 
     33 CA         -4.0680    6.0550   11.8450 C.3       6 GLP5        0.0000 
     34 CA         -2.7795    3.6690   12.6775 C.3       3 GLC5        0.0000 
     35 CA         -4.4710    2.4440   12.0170 C.3       6 GLP5        0.0000 
     36 CA         -0.4275    6.5680   13.8560 C.3       3 GLC5        0.0000 
     37 CA          0.2330    8.2420   14.3740 C.3       6 GLP5        0.0000 
     38 CA         -6.6120    1.4560   20.8770 C.3       3 GLC5        0.0000 
     39 CA         -6.2750    1.0140   18.7780 C.3       9 GLL5        0.0000 
     40 CA         -6.5055   -0.3010   19.9810 C.3       3 GLC5        0.0000 
     41 CA         -6.7360   -1.6160   21.1840 C.3       6 GLP5        0.0000 
     42 CA         -5.7815   -0.2025   17.2370 C.3       3 GLC5        0.0000 
     43 CA         -5.2880   -1.4190   15.6960 C.3       6 GLP5        0.0000 
     44 CA         -4.6410    3.2025   22.4860 C.3       3 GLC5        0.0000 
     45 CA         -3.0370    2.2510   22.9430 C.3       9 GLL5        0.0000 
     46 CA         -6.2450    4.1540   22.0290 C.3       6 GLP5        0.0000 
     47 CA         -4.4700    1.1820   25.3810 C.3       3 GLC5        0.0000 
     48 CA         -4.8660   -0.9467   21.8810 C.3       3 GLC5        0.0000 
     49 CA         -5.0445    1.3157   22.4312 C.3       3 GLC5        0.0000 
     50 CA         -3.0980    0.0220   21.9450 C.3       9 GLL5        0.0000 
     51 CA         -1.3040    0.7548   21.0087 C.3       3 GLC5        0.0000 
     52 CA         -3.1820    1.4450   21.8280 C.3       9 GLL5        0.0000 
     53 CA          0.5320    0.7760   20.1310 C.3       6 GLP5        0.0000 
     54 CA         -4.9133    0.1177   16.8492 C.3       3 GLC5        0.0000 
     55 CA         -3.8550    1.6790   18.1540 C.3       9 GLL5        0.0000 
     56 CA         -4.9690    4.3748   16.3918 C.3       3 GLC5        0.0000 
     57 CA         -4.8520    2.7340   15.7450 C.3       9 GLL5        0.0000 
     58 CA         -5.7710    5.9960   16.8850 C.3       6 GLP5        0.0000 
     59 CA         -4.3190    2.5987   13.9578 C.3       3 GLC5        0.0000 
     60 CA         -1.4335    2.0410   12.7073 C.3       3 GLC5        0.0000 
     61 CA         -0.7200    3.6590   13.7990 C.3       9 GLL5        0.0000 
     62 CA         -2.6910    0.6950   12.0350 C.3       6 GLP5        0.0000 
     63 CA          0.8734    4.5476   14.3202 C.3       3 GLC5        0.0000 
     64 CA          2.2020    4.7740   15.6120 C.3       6 GLP5        0.0000 
     65 CA         -6.9390    2.6152   15.1468 C.3       3 GLC5        0.0000 
     66 CA         -8.5920    2.7960   14.0990 C.3       6 GLP5        0.0000 
     67 CA         -5.2870    0.5077   15.9452 C.3       3 GLC5        0.0000 
     68 CA         -5.7200    2.1350   16.6440 C.3       9 GLL5        0.0000 
     69 CA         -6.9295    2.9371   18.2359 C.3       3 GLC5        0.0000 
     70 CA         -7.9860    4.4260   18.4590 C.3       6 GLP5        0.0000 
@<TRIPOS>BOND
@<TRIPOS>SUBSTRUCTURE
     1 ALC1       15 GROUP        1 X    ALC  0     ROOT ALC X 1
     2 SEC2       18 GROUP        1 X    SEC  0     **** SEC X 2
     3 GLC5        1 GROUP        1 X    GLC  0     **** GLC X 6
     4 ALP1       17 GROUP        1 Y    ALP  0     ROOT ALP Y 8
     5 SEP2       20 GROUP        1 Y    SEP  0     **** SEP Y 9
     6 GLP5        3 GROUP        1 Y    GLP  0     **** GLP Y 13
     7 ALL1       16 GROUP        1 Z    ALL  0     ROOT ALL Z 15
     8 SEL2       19 GROUP        1 Z    SEL  0     **** SEL Z 16
     9 GLL5        2 GROUP        1 Z    GLL  0     **** GLL Z 20
@<TRIPOS>SET

