#    Name: 4aa4_QC0_1_ligand
#    Modification time : Tue Mar 25 05:22:09 2014

@<TRIPOS>MOLECULE
4aa4_QC0_1_ligand
   59    63     1     0     0
SMALL
NO_CHARGES


@<TRIPOS>ATOM
      1 C1         -1.6050    4.7270   28.7740 C.3       1 QC01356     0.0000 
      2 N2         -1.5040    3.9930   27.4690 N.4       1 QC01356     0.0000 
      3 C3         -1.8150    2.5480   27.6680 C.3       1 QC01356     0.0000 
      4 C4         -1.7780    1.7820   26.3350 C.3       1 QC01356     0.0000 
      5 N5         -2.6960    2.4250   25.3660 N.3       1 QC01356     0.0000 
      6 C6         -2.3770    3.8580   25.1680 C.3       1 QC01356     0.0000 
      7 C7         -2.4840    4.5830   26.5210 C.3       1 QC01356     0.0000 
      8 C8         -2.8100    1.6540   24.1920 C.ar      1 QC01356     0.0000 
      9 C9         -2.7520    0.2420   24.3080 C.ar      1 QC01356     0.0000 
     10 C10        -2.8940   -0.5770   23.2110 C.ar      1 QC01356     0.0000 
     11 C11        -3.0980    0.0220   21.9450 C.ar      1 QC01356     0.0000 
     12 N12        -3.2000   -0.7290   20.8050 N.2       1 QC01356     0.0000 
     13 C13        -3.4150   -0.2360   19.6040 C.2       1 QC01356     0.0000 
     14 N14        -3.5370    1.1240   19.4100 N.am      1 QC01356     0.0000 
     15 C15        -3.8550    1.6790   18.1540 C.ar      1 QC01356     0.0000 
     16 C16        -2.9580    2.2330   17.2470 C.ar      1 QC01356     0.0000 
     17 C17        -3.4820    2.7730   16.0520 C.ar      1 QC01356     0.0000 
     18 N18        -2.6520    3.3420   15.0770 N.am      1 QC01356     0.0000 
     19 C19        -1.3630    2.9840   14.9120 C.2       1 QC01356     0.0000 
     20 O20        -0.7530    2.1590   15.5780 O.2       1 QC01356     0.0000 
     21 C21        -0.7200    3.6590   13.7990 C.2       1 QC01356     0.0000 
     22 C22         0.3680    3.1150   12.9600 C.2       1 QC01356     0.0000 
     23 C23         0.5310    4.1100   12.0580 C.2       1 QC01356     0.0000 
     24 O24        -0.3270    5.1510   12.3070 O.3       1 QC01356     0.0000 
     25 C25        -1.0880    4.8940   13.3380 C.2       1 QC01356     0.0000 
     26 C26        -4.8520    2.7340   15.7450 C.ar      1 QC01356     0.0000 
     27 C27        -5.7200    2.1350   16.6440 C.ar      1 QC01356     0.0000 
     28 C28        -5.2220    1.6300   17.8510 C.ar      1 QC01356     0.0000 
     29 C29        -6.2750    1.0140   18.7780 C.3       1 QC01356     0.0000 
     30 C30        -3.4080    2.0020   20.4630 C.2       1 QC01356     0.0000 
     31 C32        -3.1820    1.4450   21.8280 C.ar      1 QC01356     0.0000 
     32 C31        -3.0370    2.2510   22.9430 C.ar      1 QC01356     0.0000 
     33 O31        -3.4780    3.2070   20.2630 O.2       1 QC01356     0.0000 
     34 H          -0.5139    4.1021   27.0768 H         1 QC01356     0.0000 
     35 H          -2.8105    2.4318   28.1053 H         1 QC01356     0.0000 
     36 H          -1.0878    2.0943   28.3470 H         1 QC01356     0.0000 
     37 H          -2.0769    0.7528   26.5220 H         1 QC01356     0.0000 
     38 H          -0.7564    1.7928   25.9611 H         1 QC01356     0.0000 
     39 H          -3.0770    4.3157   24.4772 H         1 QC01356     0.0000 
     40 H          -1.3663    3.9786   24.7932 H         1 QC01356     0.0000 
     41 H          -2.2771    5.6369   26.3639 H         1 QC01356     0.0000 
     42 H          -3.4961    4.4656   26.8952 H         1 QC01356     0.0000 
     43 H          -2.5983   -0.1658   25.2491 H         1 QC01356     0.0000 
     44 H          -2.8561   -1.5889   23.2892 H         1 QC01356     0.0000 
     45 H          -3.4989   -0.8613   18.7665 H         1 QC01356     0.0000 
     46 H          -1.9659    2.2533   17.4271 H         1 QC01356     0.0000 
     47 H          -3.0754    4.0812   14.4557 H         1 QC01356     0.0000 
     48 H           0.7644    2.3212   13.0838 H         1 QC01356     0.0000 
     49 H           1.1742    4.0986   11.3203 H         1 QC01356     0.0000 
     50 H          -1.7778    5.4379   13.7241 H         1 QC01356     0.0000 
     51 H          -5.1925    3.1406   14.8760 H         1 QC01356     0.0000 
     52 H          -6.7192    2.0592   16.4330 H         1 QC01356     0.0000 
     53 H          -3.0930    3.2679   22.8671 H         1 QC01356     0.0000 
     54 H          -0.9655    4.3668   29.4532 H         1 QC01356     0.0000 
     55 H          -1.4033    5.7008   28.6690 H         1 QC01356     0.0000 
     56 H          -2.5212    4.6583   29.1688 H         1 QC01356     0.0000 
     57 H          -6.0957    0.0457   18.9520 H         1 QC01356     0.0000 
     58 H          -6.3007    1.4717   19.6667 H         1 QC01356     0.0000 
     59 H          -7.1942    1.0767   18.3893 H         1 QC01356     0.0000 
@<TRIPOS>BOND
     1    2    1 1    
     2   54    1 1    
     3   55    1 1    
     4   56    1 1    
     5    3    2 1    
     6    7    2 1    
     7   34    2 1    
     8    4    3 1    
     9   35    3 1    
    10   36    3 1    
    11    5    4 1    
    12   37    4 1    
    13   38    4 1    
    14    6    5 1    
    15    8    5 1    
    16    7    6 1    
    17   39    6 1    
    18   40    6 1    
    19   41    7 1    
    20   42    7 1    
    21    9    8 ar   
    22   32    8 ar   
    23   10    9 ar   
    24   43    9 1    
    25   11   10 ar   
    26   44   10 1    
    27   12   11 1    
    28   31   11 ar   
    29   13   12 2    
    30   14   13 1    
    31   45   13 1    
    32   15   14 1    
    33   30   14 am   
    34   16   15 ar   
    35   28   15 ar   
    36   17   16 ar   
    37   46   16 1    
    38   18   17 1    
    39   26   17 ar   
    40   19   18 am   
    41   47   18 1    
    42   20   19 2    
    43   21   19 1    
    44   22   21 1    
    45   25   21 2    
    46   23   22 2    
    47   48   22 1    
    48   24   23 1    
    49   49   23 1    
    50   25   24 1    
    51   50   25 1    
    52   27   26 ar   
    53   51   26 1    
    54   28   27 ar   
    55   52   27 1    
    56   29   28 1    
    57   57   29 1    
    58   58   29 1    
    59   59   29 1    
    60   31   30 1    
    61   33   30 2    
    62   32   31 ar   
    63   53   32 1    
@<TRIPOS>SUBSTRUCTURE
     1 QC01356     1 GROUP   
@<TRIPOS>SET

