#    Name: 4j26_EST_2_INTS_M
#    Modification time : Tue Mar 25 05:15:35 2014

@<TRIPOS>MOLECULE
4j26_EST_2_INTS_M
   65     0     9     0     0
SMALL
NO_CHARGES


@<TRIPOS>ATOM
      1 N          25.2705   35.7000    5.3365 N.am      2 SEC2        0.0000 
      2 N          23.9490   36.1750    4.5540 N.am      8 SEL2        0.0000 
      3 N          26.5920   35.2250    6.1190 N.am      5 SEP2        0.0000 
      4 N          24.8480   35.1345    3.8805 N.am      2 SEC2        0.0000 
      5 N          25.7470   34.0940    3.2070 N.am      5 SEP2        0.0000 
      6 O          24.5685   37.0725    3.8670 O.2       1 ALC1        0.0000 
      7 O          23.9490   36.1750    4.5540 O.2       7 ALL1        0.0000 
      8 O          25.1880   37.9700    3.1800 O.2       4 ALP1        0.0000 
      9 CA         19.1035   33.6120    5.5950 C.3       3 GLC5        0.0000 
     10 CA         19.4600   35.2550    6.2860 C.3       9 GLL5        0.0000 
     11 CA         18.7470   31.9690    4.9040 C.3       6 GLP5        0.0000 
     12 CA         20.2060   37.7990    7.6750 C.3       3 GLC5        0.0000 
     13 CA         18.8930   38.2520    6.1980 C.3       9 GLL5        0.0000 
     14 CA         21.5190   37.3460    9.1520 C.3       6 GLP5        0.0000 
     15 CA         19.5785   39.9530    3.5415 C.3       3 GLC5        0.0000 
     16 CA         18.3370   39.3990    5.3210 C.3       9 GLL5        0.0000 
     17 CA         20.8200   40.5070    1.7620 C.3       6 GLP5        0.0000 
     18 CA         15.6445   41.6515    6.2640 C.3       3 GLC5        0.0000 
     19 CA         16.9830   39.9320    5.8250 C.3       9 GLL5        0.0000 
     20 CA         14.3060   43.3710    6.7030 C.3       6 GLP5        0.0000 
     21 CA         15.9760   38.7065    8.8095 C.3       3 GLC5        0.0000 
     22 CA         16.5680   37.7500    6.9070 C.3       9 GLL5        0.0000 
     23 CA         15.3840   39.6630   10.7120 C.3       6 GLP5        0.0000 
     24 CA         15.8575   34.9190    6.4545 C.3       3 GLC5        0.0000 
     25 CA         15.3930   36.8600    7.2910 C.3       9 GLL5        0.0000 
     26 CA         16.3220   32.9780    5.6180 C.3       6 GLP5        0.0000 
     27 CA         14.9185   35.2460    8.2925 C.3       3 GLC5        0.0000 
     28 CA         14.4440   33.6320    9.2940 C.3       6 GLP5        0.0000 
     29 CA         12.8650   36.5740    8.2690 C.3       3 GLC5        0.0000 
     30 CA         14.1980   37.8120    7.3130 C.3       9 GLL5        0.0000 
     31 CA         11.5320   35.3360    9.2250 C.3       6 GLP5        0.0000 
     32 CA         14.5100   41.2690    6.7625 C.3       3 GLC5        0.0000 
     33 CA         14.7140   39.1670    6.8220 C.3       9 GLL5        0.0000 
     34 CA         15.0490   39.4150    8.7670 C.3       3 GLC5        0.0000 
     35 O          12.5390   39.7615    6.9905 O.2       1 ALC1        0.0000 
     36 O          13.6570   39.8530    6.1350 O.2       7 ALL1        0.0000 
     37 O          11.4210   39.6700    7.8460 O.2       4 ALP1        0.0000 
     38 CA         15.4580   37.3680    3.1480 C.3       3 GLC5        0.0000 
     39 CA         15.5310   38.3180    4.6060 C.3       9 GLL5        0.0000 
     40 CA         15.3850   36.4180    1.6900 C.3       6 GLP5        0.0000 
     41 CA         14.0275   39.1815    3.6940 C.3       3 GLC5        0.0000 
     42 CA         12.5240   40.0450    2.7820 C.3       6 GLP5        0.0000 
     43 CA         23.5100   39.2780    5.7490 C.3       3 GLC5        0.0000 
     44 CA         21.2500   38.5450    5.3040 C.3       9 GLL5        0.0000 
     45 CA         25.1560   40.2730    6.3920 C.3       6 GLP5        0.0000 
     46 CA         21.3420   39.3950    3.4340 C.3       3 GLC5        0.0000 
     47 CA         22.4780   38.0210    4.9080 C.3       9 GLL5        0.0000 
     48 CA         22.1373   36.2340    3.2289 C.3       3 GLC5        0.0000 
     49 CA         22.0940   35.9190    1.2940 C.3       6 GLP5        0.0000 
     50 CA         21.1326   34.7116    7.4355 C.3       3 GLC5        0.0000 
     51 CA         21.7530   35.7630    5.3970 C.3       9 GLL5        0.0000 
     52 CA         21.9710   33.7950    8.9280 C.3       6 GLP5        0.0000 
     53 CA         20.2215   36.4748    7.9265 C.3       3 GLC5        0.0000 
     54 CA         18.6340   34.2433    8.2185 C.3       3 GLC5        0.0000 
     55 CA         18.3880   35.9520    7.1160 C.3       9 GLL5        0.0000 
     56 CA         18.3440   32.8830    9.7360 C.3       6 GLP5        0.0000 
     57 CA         17.2182   34.7595    6.1680 C.3       3 GLC5        0.0000 
     58 CA         18.6995   40.7809    6.7316 C.3       3 GLC5        0.0000 
     59 CA         19.6000   42.1830    7.6710 C.3       6 GLP5        0.0000 
     60 CA         14.6248   37.9480    9.2430 C.3       3 GLC5        0.0000 
     61 CA         14.4540   38.5600   11.1840 C.3       6 GLP5        0.0000 
     62 CA         13.7438   36.0565    6.1990 C.3       3 GLC5        0.0000 
     63 CA         12.6920   34.7770    5.0960 C.3       6 GLP5        0.0000 
     64 CA         12.4290   38.6227    7.5397 C.3       3 GLC5        0.0000 
     65 CA         10.4020   38.7560    8.0120 C.3       6 GLP5        0.0000 
@<TRIPOS>BOND
@<TRIPOS>SUBSTRUCTURE
     1 ALC1        6 GROUP        1 X    ALC  0     ROOT ALC X 1
     2 SEC2        1 GROUP        1 X    SEC  0     **** SEC X 2
     3 GLC5        9 GROUP        1 X    GLC  0     **** GLC X 6
     4 ALP1        8 GROUP        1 Y    ALP  0     ROOT ALP Y 8
     5 SEP2        3 GROUP        1 Y    SEP  0     **** SEP Y 9
     6 GLP5       11 GROUP        1 Y    GLP  0     **** GLP Y 13
     7 ALL1        7 GROUP        1 Z    ALL  0     ROOT ALL Z 15
     8 SEL2        2 GROUP        1 Z    SEL  0     **** SEL Z 16
     9 GLL5       10 GROUP        1 Z    GLL  0     **** GLL Z 20
@<TRIPOS>SET

