#    Name: 4j26_EST_2_ligand
#    Modification time : Tue Mar 25 05:15:35 2014

@<TRIPOS>MOLECULE
4j26_EST_2_ligand
   44    47     1     0     0
SMALL
NO_CHARGES


@<TRIPOS>ATOM
      1 C1         21.2500   38.5450    5.3040 C.ar      1 EST600      0.0000 
      2 C2         22.4780   38.0210    4.9080 C.ar      1 EST600      0.0000 
      3 C3         22.7380   36.6490    4.9530 C.ar      1 EST600      0.0000 
      4 O3         23.9490   36.1750    4.5540 O.3       1 EST600      0.0000 
      5 C4         21.7530   35.7630    5.3970 C.ar      1 EST600      0.0000 
      6 C5         20.5040   36.2400    5.8030 C.ar      1 EST600      0.0000 
      7 C6         19.4600   35.2550    6.2860 C.3       1 EST600      0.0000 
      8 C7         18.3880   35.9520    7.1160 C.3       1 EST600      0.0000 
      9 C8         17.8410   37.1300    6.3200 C.3       1 EST600      0.0000 
     10 C9         18.8930   38.2520    6.1980 C.3       1 EST600      0.0000 
     11 C10        20.2160   37.7110    5.7460 C.ar      1 EST600      0.0000 
     12 C11        18.3370   39.3990    5.3210 C.3       1 EST600      0.0000 
     13 C12        16.9830   39.9320    5.8250 C.3       1 EST600      0.0000 
     14 C13        15.9570   38.8170    6.0020 C.3       1 EST600      0.0000 
     15 C14        16.5680   37.7500    6.9070 C.3       1 EST600      0.0000 
     16 C15        15.3930   36.8600    7.2910 C.3       1 EST600      0.0000 
     17 C16        14.1980   37.8120    7.3130 C.3       1 EST600      0.0000 
     18 C17        14.7140   39.1670    6.8220 C.3       1 EST600      0.0000 
     19 O17        13.6570   39.8530    6.1350 O.3       1 EST600      0.0000 
     20 C18        15.5310   38.3180    4.6060 C.3       1 EST600      0.0000 
     21 H          21.0960   39.5673    5.2722 H         1 EST600      0.0000 
     22 H          23.2200   38.6643    4.5706 H         1 EST600      0.0000 
     23 H          21.9485   34.7533    5.4252 H         1 EST600      0.0000 
     24 H          19.9391   34.4855    6.8949 H         1 EST600      0.0000 
     25 H          18.9891   34.7725    5.4269 H         1 EST600      0.0000 
     26 H          18.8229   36.3104    8.0384 H         1 EST600      0.0000 
     27 H          17.5878   35.2568    7.3280 H         1 EST600      0.0000 
     28 H          17.6146   36.8002    5.3027 H         1 EST600      0.0000 
     29 H          19.0152   38.6670    7.2224 H         1 EST600      0.0000 
     30 H          18.2187   39.0340    4.2968 H         1 EST600      0.0000 
     31 H          19.0621   40.2178    5.3104 H         1 EST600      0.0000 
     32 H          16.6031   40.6639    5.1073 H         1 EST600      0.0000 
     33 H          17.1375   40.4380    6.7816 H         1 EST600      0.0000 
     34 H          16.8521   38.3115    7.8425 H         1 EST600      0.0000 
     35 H          15.5471   36.4559    8.2607 H         1 EST600      0.0000 
     36 H          15.2448   36.1160    6.5481 H         1 EST600      0.0000 
     37 H          13.8327   37.9090    8.3144 H         1 EST600      0.0000 
     38 H          13.4399   37.4545    6.6473 H         1 EST600      0.0000 
     39 H          15.0424   39.6984    7.7105 H         1 EST600      0.0000 
     40 H          16.3081   37.9655    4.0845 H         1 EST600      0.0000 
     41 H          14.8585   37.5802    4.6646 H         1 EST600      0.0000 
     42 H          15.1188   39.0478    4.0606 H         1 EST600      0.0000 
     43 H          24.5303   36.9848    4.4743 H         1 EST600      0.0000 
     44 H          12.8546   39.7457    6.7220 H         1 EST600      0.0000 
@<TRIPOS>BOND
     1    2    1 ar   
     2   11    1 ar   
     3   21    1 1    
     4    3    2 ar   
     5   22    2 1    
     6    4    3 1    
     7    5    3 ar   
     8   43    4 1    
     9    6    5 ar   
    10   23    5 1    
    11    7    6 1    
    12   11    6 ar   
    13    8    7 1    
    14   24    7 1    
    15   25    7 1    
    16    9    8 1    
    17   26    8 1    
    18   27    8 1    
    19   10    9 1    
    20   15    9 1    
    21   28    9 1    
    22   11   10 1    
    23   12   10 1    
    24   29   10 1    
    25   13   12 1    
    26   30   12 1    
    27   31   12 1    
    28   14   13 1    
    29   32   13 1    
    30   33   13 1    
    31   15   14 1    
    32   18   14 1    
    33   20   14 1    
    34   16   15 1    
    35   34   15 1    
    36   17   16 1    
    37   35   16 1    
    38   36   16 1    
    39   18   17 1    
    40   37   17 1    
    41   38   17 1    
    42   19   18 1    
    43   39   18 1    
    44   44   19 1    
    45   40   20 1    
    46   41   20 1    
    47   42   20 1    
@<TRIPOS>SUBSTRUCTURE
     1 EST600      1 GROUP   
@<TRIPOS>SET

