#    Name: 3ufx_GDP_1_INTS_M
#    Modification time : Mon Mar 24 22:18:19 2014

@<TRIPOS>MOLECULE
3ufx_GDP_1_INTS_M
   49     0    15     0     0
SMALL
NO_CHARGES


@<TRIPOS>ATOM
      1 NZ         48.7025   -3.8170  101.9270 N.4       3 LYC4        0.0000 
      2 NZ         48.2960   -4.0530  103.2590 N.4      13 LYL4        0.0000 
      3 NZ         48.1490   -3.5170   99.6830 N.4       8 LYP4        0.0000 
      4 N          49.7540   -3.3510  103.8585 N.am      2 SEC2        0.0000 
      5 N          48.2960   -4.0530  103.2590 N.am     12 SEL2        0.0000 
      6 N          51.2120   -2.6490  104.4580 N.am      7 SEP2        0.0000 
      7 N          48.7025   -3.8170  101.9270 N.am      2 SEC2        0.0000 
      8 N          49.1090   -3.5810  100.5950 N.am      7 SEP2        0.0000 
      9 N          49.4050   -1.0010  104.4655 N.am      2 SEC2        0.0000 
     10 N          48.5450   -1.9090  104.3610 N.am     12 SEL2        0.0000 
     11 N          50.2650   -0.0930  104.5700 N.am      7 SEP2        0.0000 
     12 Zn         45.4820   -3.7450  104.7165 Zn        4 ZIC7        0.0000 
     13 Zn         46.6470   -3.2760  104.9590 Zn       14 ZIL7        0.0000 
     14 Zn         44.3170   -4.2140  104.4740 Zn        9 ZIP7        0.0000 
     15 N          46.7985   -2.8225  101.3200 N.am      2 SEC2        0.0000 
     16 N          46.7200   -2.1600  102.5940 N.am     12 SEL2        0.0000 
     17 N          46.8770   -3.4850  100.0460 N.am      7 SEP2        0.0000 
     18 NZ         44.2920   -1.0320  100.1690 N.4       3 LYC4        0.0000 
     19 NZ         44.5950   -1.3340  101.3670 N.4      13 LYL4        0.0000 
     20 NZ         43.9890   -0.7300   98.9710 N.4       8 LYP4        0.0000 
     21 N          44.2920   -1.0320  100.1690 N.am      2 SEC2        0.0000 
     22 N          44.5950   -1.3340  101.3670 N.am     12 SEL2        0.0000 
     23 N          43.9890   -0.7300   98.9710 N.am      7 SEP2        0.0000 
     24 Zn         44.3310   -3.1830  104.0820 Zn        4 ZIC7        0.0000 
     25 Zn         44.3450   -2.1520  103.6900 Zn       14 ZIL7        0.0000 
     26 CA         47.7465    0.6540  104.8980 C.3       5 GLC5        0.0000 
     27 CA         45.6550    0.0940  104.7390 C.3      15 GLL5        0.0000 
     28 CA         49.8380    1.2140  105.0570 C.3      10 GLP5        0.0000 
     29 CA         41.8995   -0.8610  104.9705 C.3       5 GLC5        0.0000 
     30 CA         43.3560    0.6200  105.6340 C.3      15 GLL5        0.0000 
     31 CA         40.4430   -2.3420  104.3070 C.3      10 GLP5        0.0000 
     32 CA         40.8715    0.1210  104.9395 C.3       5 GLC5        0.0000 
     33 CA         42.3760    1.6400  105.0710 C.3      15 GLL5        0.0000 
     34 CA         39.3670   -1.3980  104.8080 C.3      10 GLP5        0.0000 
     35 O          40.6710    1.8430  106.5945 O.2       1 ALC1        0.0000 
     36 O          41.6750    2.2640  106.1470 O.2      11 ALL1        0.0000 
     37 O          39.6670    1.4220  107.0420 O.2       6 ALP1        0.0000 
     38 CA         42.1675    4.4540   99.2520 C.3       5 GLC5        0.0000 
     39 CA         41.5960    3.6230  101.1090 C.3      15 GLL5        0.0000 
     40 CA         42.7390    5.2850   97.3950 C.3      10 GLP5        0.0000 
     41 N          39.0485    5.0920   98.7305 N.am      2 SEC2        0.0000 
     42 N          40.4440    4.4760   99.2020 N.am     12 SEL2        0.0000 
     43 N          37.6530    5.7080   98.2590 N.am      7 SEP2        0.0000 
     44 O          38.7390    6.0835  100.9360 O.2       1 ALC1        0.0000 
     45 O          40.2860    5.6740  101.1000 O.2      11 ALL1        0.0000 
     46 O          37.1920    6.4930  100.7720 O.2       6 ALP1        0.0000 
     47 CA         40.0470    3.7165  103.3030 C.3       5 GLC5        0.0000 
     48 CA         41.8840    3.8710  102.5300 C.3      15 GLL5        0.0000 
     49 CA         38.2100    3.5620  104.0760 C.3      10 GLP5        0.0000 
@<TRIPOS>BOND
@<TRIPOS>SUBSTRUCTURE
     1 ALC1       35 GROUP        1 X    ALC  0     ROOT ALC X 1
     2 SEC2        4 GROUP        1 X    SEC  0     **** SEC X 2
     3 LYC4        1 GROUP        1 X    LYC  0     **** LYC X 4
     4 ZIC7       12 GROUP        1 X    ZIC  0     **** ZIC X 5
     5 GLC5       26 GROUP        1 X    GLC  0     **** GLC X 6
     6 ALP1       37 GROUP        1 Y    ALP  0     ROOT ALP Y 8
     7 SEP2        6 GROUP        1 Y    SEP  0     **** SEP Y 9
     8 LYP4        3 GROUP        1 Y    LYP  0     **** LYP Y 11
     9 ZIP7       14 GROUP        1 Y    ZIP  0     **** ZIP Y 12
    10 GLP5       28 GROUP        1 Y    GLP  0     **** GLP Y 13
    11 ALL1       36 GROUP        1 Z    ALL  0     ROOT ALL Z 15
    12 SEL2        5 GROUP        1 Z    SEL  0     **** SEL Z 16
    13 LYL4        2 GROUP        1 Z    LYL  0     **** LYL Z 18
    14 ZIL7       13 GROUP        1 Z    ZIL  0     **** ZIL Z 19
    15 GLL5       27 GROUP        1 Z    GLL  0     **** GLL Z 20
@<TRIPOS>SET

