#    Name: 3ufx_GDP_1_ligand
#    Modification time : Mon Mar 24 22:18:19 2014

@<TRIPOS>MOLECULE
3ufx_GDP_1_ligand
   40    42     1     0     0
SMALL
NO_CHARGES


@<TRIPOS>ATOM
      1 PB         47.5340   -2.8730  103.8070 P.3       1 GDP398      0.0000 
      2 O1B        48.2960   -4.0530  103.2590 O.co2     1 GDP398      0.0000 
      3 O2B        48.5450   -1.9090  104.3610 O.co2     1 GDP398      0.0000 
      4 O3B        46.6470   -3.2760  104.9590 O.co2     1 GDP398      0.0000 
      5 O3A        46.7200   -2.1600  102.5940 O.3       1 GDP398      0.0000 
      6 PA         45.2600   -1.4560  102.7120 P.3       1 GDP398      0.0000 
      7 O1A        44.5950   -1.3340  101.3670 O.co2     1 GDP398      0.0000 
      8 O2A        44.3450   -2.1520  103.6900 O.co2     1 GDP398      0.0000 
      9 O5'        45.6000   -0.0050  103.3100 O.3       1 GDP398      0.0000 
     10 C5'        45.6550    0.0940  104.7390 C.3       1 GDP398      0.0000 
     11 C4'        44.7260    1.1780  105.2750 C.3       1 GDP398      0.0000 
     12 O4'        44.5430    2.2420  104.3230 O.3       1 GDP398      0.0000 
     13 C3'        43.3560    0.6200  105.6340 C.3       1 GDP398      0.0000 
     14 O3'        43.2250    0.4950  107.0660 O.3       1 GDP398      0.0000 
     15 C2'        42.3760    1.6400  105.0710 C.3       1 GDP398      0.0000 
     16 O2'        41.6750    2.2640  106.1470 O.3       1 GDP398      0.0000 
     17 C1'        43.1890    2.6980  104.3310 C.3       1 GDP398      0.0000 
     18 N9         42.6580    2.8650  102.9500 N.pl3     1 GDP398      0.0000 
     19 C8         42.8600    2.0300  101.9090 C.2       1 GDP398      0.0000 
     20 N7         42.2260    2.4770  100.7910 N.2       1 GDP398      0.0000 
     21 C5         41.5960    3.6230  101.1090 C.2       1 GDP398      0.0000 
     22 C6         40.7410    4.6160  100.4050 C.2       1 GDP398      0.0000 
     23 O6         40.4440    4.4760   99.2020 O.2       1 GDP398      0.0000 
     24 N1         40.2860    5.6740  101.1000 N.am      1 GDP398      0.0000 
     25 C2         40.5830    5.8540  102.4070 C.2       1 GDP398      0.0000 
     26 N2         40.0940    6.9430  103.0530 N.pl3     1 GDP398      0.0000 
     27 N3         41.3600    4.9790  103.1080 N.2       1 GDP398      0.0000 
     28 C4         41.8840    3.8710  102.5300 C.2       1 GDP398      0.0000 
     29 H          46.6783    0.3272  105.0866 H         1 GDP398      0.0000 
     30 H          45.3695   -0.8600  105.2192 H         1 GDP398      0.0000 
     31 H          45.1646    1.5760  106.1945 H         1 GDP398      0.0000 
     32 H          43.2235   -0.2984  105.1207 H         1 GDP398      0.0000 
     33 H          41.7303    1.1596  104.3843 H         1 GDP398      0.0000 
     34 H          43.0934    3.6193  104.8758 H         1 GDP398      0.0000 
     35 H          43.3930    1.2073  101.9471 H         1 GDP398      0.0000 
     36 H          39.6784    6.3872  100.6132 H         1 GDP398      0.0000 
     37 H          40.3371    7.0274  104.0193 H         1 GDP398      0.0000 
     38 H          39.5339    7.5647  102.5055 H         1 GDP398      0.0000 
     39 H          42.4886    1.1242  107.3143 H         1 GDP398      0.0000 
     40 H          40.7177    2.0058  106.0163 H         1 GDP398      0.0000 
@<TRIPOS>BOND
     1    2    1 ar   
     2    3    1 ar   
     3    4    1 ar   
     4    5    1 1    
     5    6    5 1    
     6    7    6 ar   
     7    8    6 ar   
     8    9    6 1    
     9   10    9 1    
    10   11   10 1    
    11   29   10 1    
    12   30   10 1    
    13   12   11 1    
    14   13   11 1    
    15   31   11 1    
    16   17   12 1    
    17   14   13 1    
    18   15   13 1    
    19   32   13 1    
    20   39   14 1    
    21   16   15 1    
    22   17   15 1    
    23   33   15 1    
    24   40   16 1    
    25   18   17 1    
    26   34   17 1    
    27   19   18 1    
    28   28   18 1    
    29   20   19 2    
    30   35   19 1    
    31   21   20 1    
    32   22   21 1    
    33   28   21 2    
    34   23   22 2    
    35   24   22 am   
    36   25   24 1    
    37   36   24 1    
    38   26   25 1    
    39   27   25 2    
    40   37   26 1    
    41   38   26 1    
    42   28   27 1    
@<TRIPOS>SUBSTRUCTURE
     1 GDP398      1 GROUP   
@<TRIPOS>SET

