#    Name: 3ai2_NAP_8_INTS_M
#    Modification time : Tue Mar 25 12:00:30 2014

@<TRIPOS>MOLECULE
3ai2_NAP_8_INTS_M
  118     0    12     0     0
SMALL
NO_CHARGES


@<TRIPOS>ATOM
      1 N          22.8055   26.2235   53.2440 N.am      2 SEC2        0.0000 
      2 N          21.3970   25.4450   53.5030 N.am     10 SEL2        0.0000 
      3 N          24.2140   27.0020   52.9850 N.am      6 SEP2        0.0000 
      4 N          22.5525   25.2620   54.3710 N.am      2 SEC2        0.0000 
      5 N          23.7080   25.0790   55.2390 N.am      6 SEP2        0.0000 
      6 N          22.7905   25.0005   52.6795 N.am      2 SEC2        0.0000 
      7 N          24.1840   24.5560   51.8560 N.am      6 SEP2        0.0000 
      8 N          21.9575   23.9140   52.8770 N.am      2 SEC2        0.0000 
      9 N          22.5180   22.3830   52.2510 N.am      6 SEP2        0.0000 
     10 O          21.9575   23.9140   52.8770 O.2       1 ALC1        0.0000 
     11 O          21.3970   25.4450   53.5030 O.2       9 ALL1        0.0000 
     12 O          22.5180   22.3830   52.2510 O.2       5 ALP1        0.0000 
     13 CA         20.6480   27.1125   55.7125 C.3       4 GLC5        0.0000 
     14 CA         18.8400   26.4210   54.6400 C.3      12 GLL5        0.0000 
     15 CA         22.4560   27.8040   56.7850 C.3       8 GLP5        0.0000 
     16 CA         16.1665   29.7375   59.4880 C.3       4 GLC5        0.0000 
     17 CA         15.8260   28.6530   57.6130 C.3      12 GLL5        0.0000 
     18 CA         16.5070   30.8220   61.3630 C.3       8 GLP5        0.0000 
     19 CA         15.7490   30.4790   56.9430 C.3       4 GLC5        0.0000 
     20 CA         15.6720   32.3050   56.2730 C.3       8 GLP5        0.0000 
     21 O          14.2980   29.2965   59.3830 O.2       1 ALC1        0.0000 
     22 O          14.6100   28.6590   58.1680 O.2       9 ALL1        0.0000 
     23 O          13.9860   29.9340   60.5980 O.2       5 ALP1        0.0000 
     24 N          16.3380   30.8405   58.6530 N.am      2 SEC2        0.0000 
     25 N          16.7700   29.6200   57.9670 N.am     10 SEL2        0.0000 
     26 N          15.9060   32.0610   59.3390 N.am      6 SEP2        0.0000 
     27 CA         19.8435   29.2570   57.4680 C.3       4 GLC5        0.0000 
     28 CA         18.0420   29.6500   57.4480 C.3      12 GLL5        0.0000 
     29 CA         21.6450   28.8640   57.4880 C.3       8 GLP5        0.0000 
     30 CA         18.0400   28.5210   59.0070 C.3       4 GLC5        0.0000 
     31 CA         18.0380   27.3920   60.5660 C.3       8 GLP5        0.0000 
     32 CA         17.2745   30.2360   59.4055 C.3       4 GLC5        0.0000 
     33 CA         16.8570   30.9775   56.8605 C.3       4 GLC5        0.0000 
     34 CA         17.1490   29.9285   55.4760 C.3       4 GLC5        0.0000 
     35 CA         16.2560   30.2070   53.5040 C.3       8 GLP5        0.0000 
     36 CA         18.7440   28.3405   54.5105 C.3       4 GLC5        0.0000 
     37 CA         17.4630   27.7180   56.1830 C.3      12 GLL5        0.0000 
     38 CA         20.0250   28.9630   52.8380 C.3       8 GLP5        0.0000 
     39 CA         17.7505   27.5550   58.3745 C.3       4 GLC5        0.0000 
     40 N          20.0510   24.2450   46.9780 N.am      2 SEC2        0.0000 
     41 N          18.8100   24.0290   47.5810 N.am     10 SEL2        0.0000 
     42 N          21.2920   24.4610   46.3750 N.am      6 SEP2        0.0000 
     43 CA         18.3515   26.0240   46.4620 C.3       4 GLC5        0.0000 
     44 CA         16.7970   26.0550   47.9850 C.3      12 GLL5        0.0000 
     45 CA         19.9060   25.9930   44.9390 C.3       8 GLP5        0.0000 
     46 CA         16.7495   25.9245   45.5435 C.3       4 GLC5        0.0000 
     47 CA         15.7380   26.8720   47.2460 C.3      12 GLL5        0.0000 
     48 CA         17.7610   24.9770   43.8410 C.3       8 GLP5        0.0000 
     49 CA         13.6870   27.1225   49.7385 C.3       4 GLC5        0.0000 
     50 CA         14.4050   26.7840   47.9680 C.3      12 GLL5        0.0000 
     51 CA         12.9690   27.4610   51.5090 C.3       8 GLP5        0.0000 
     52 N          12.5735   28.5220   47.7565 N.am      2 SEC2        0.0000 
     53 N          13.8390   28.0730   48.1000 N.am     10 SEL2        0.0000 
     54 N          11.3080   28.9710   47.4130 N.am      6 SEP2        0.0000 
     55 O          14.9510   28.6100   48.7015 O.2       1 ALC1        0.0000 
     56 O          13.8390   28.0730   48.1000 O.2       9 ALL1        0.0000 
     57 O          16.0630   29.1470   49.3030 O.2       5 ALP1        0.0000 
     58 CA         11.7945   27.1280   47.1355 C.3       4 GLC5        0.0000 
     59 CA         13.5880   25.9540   47.0170 C.3      12 GLL5        0.0000 
     60 CA         10.0010   28.3020   47.2540 C.3       8 GLP5        0.0000 
     61 N          11.2565   25.6140   46.4000 N.am      2 SEC2        0.0000 
     62 N          12.2130   26.1920   47.2610 N.am     10 SEL2        0.0000 
     63 N          10.3000   25.0360   45.5390 N.am      6 SEP2        0.0000 
     64 N          11.7605   27.5815   47.3370 N.am      2 SEC2        0.0000 
     65 CA         15.9560   25.6940   44.7435 C.3       4 GLC5        0.0000 
     66 CA         14.1510   26.4110   45.6460 C.3      12 GLL5        0.0000 
     67 N          15.1750   20.8180   41.3485 N.am      2 SEC2        0.0000 
     68 N          14.4140   21.0100   42.5880 N.am     10 SEL2        0.0000 
     69 N          15.9360   20.6260   40.1090 N.am      6 SEP2        0.0000 
     70 N          14.2925   19.7085   42.9980 N.am      2 SEC2        0.0000 
     71 N          14.1710   18.4070   43.4080 N.am      6 SEP2        0.0000 
     72 O          16.5525   20.6075   43.3650 O.2       1 ALC1        0.0000 
     73 O          15.7380   21.6230   44.4240 O.2       9 ALL1        0.0000 
     74 O          17.3670   19.5920   42.3060 O.2       5 ALP1        0.0000 
     75 O          16.6515   20.5470   45.1210 O.2       1 ALC1        0.0000 
     76 O          17.5650   19.4710   45.8180 O.2       5 ALP1        0.0000 
     77 CA         13.3960   27.1310   42.0875 C.3       4 GLC5        0.0000 
     78 CA         13.1350   25.9190   43.4430 C.3      12 GLL5        0.0000 
     79 CA         13.6570   28.3430   40.7320 C.3       8 GLP5        0.0000 
     80 NZ         17.5275   23.6425   57.6870 N.4       3 LYC4        0.0000 
     81 NZ         18.8580   23.4260   57.3650 N.4      11 LYL4        0.0000 
     82 NZ         15.9650   24.7100   59.0120 N.4       7 LYP4        0.0000 
     83 N          17.5275   23.6425   57.6870 N.am      2 SEC2        0.0000 
     84 N          18.8580   23.4260   57.3650 N.am     10 SEL2        0.0000 
     85 N          16.1970   23.8590   58.0090 N.am      6 SEP2        0.0000 
     86 NZ         17.9775   25.6660   58.6335 N.4       3 LYC4        0.0000 
     87 NZ         19.0540   25.7490   57.8760 N.4      11 LYL4        0.0000 
     88 N          17.9775   25.6660   58.6335 N.am      2 SEC2        0.0000 
     89 N          19.0540   25.7490   57.8760 N.am     10 SEL2        0.0000 
     90 N          16.9010   25.5830   59.3910 N.am      6 SEP2        0.0000 
     91 N          19.9435   26.6020   58.6030 N.am      2 SEC2        0.0000 
     92 N          20.8330   27.4550   59.3300 N.am      6 SEP2        0.0000 
     93 N          17.6255   24.8040   57.9425 N.am      2 SEC2        0.0000 
     94 N          20.9620   25.8765   58.7680 N.am      2 SEC2        0.0000 
     95 N          21.0910   24.2980   58.2060 N.am     10 SEL2        0.0000 
     96 N          21.6025   24.7560   59.4465 N.am      2 SEC2        0.0000 
     97 N          22.1140   25.2140   60.6870 N.am      6 SEP2        0.0000 
     98 N          21.2760   22.9335   57.2880 N.am      2 SEC2        0.0000 
     99 N          21.4610   21.5690   56.3700 N.am      6 SEP2        0.0000 
    100 CA         16.3780   27.3585   58.8160 C.3       4 GLC5        0.0000 
    101 CA         16.1740   27.6690   56.7010 C.3      12 GLL5        0.0000 
    102 CA         16.7560   26.5560   60.4750 C.3       8 GLP5        0.0000 
    103 CA         14.2370   28.7555   56.2195 C.3       4 GLC5        0.0000 
    104 CA         12.4740   29.3500   55.2820 C.3       8 GLP5        0.0000 
    105 CA         16.4937   29.0733   55.0870 C.3       4 GLC5        0.0000 
    106 CA         16.0177   24.3618   43.9318 C.3       4 GLC5        0.0000 
    107 CA         14.3940   24.1880   44.5420 C.3      12 GLL5        0.0000 
    108 CA         15.2978   23.4202   41.6750 C.3       4 GLC5        0.0000 
    109 CA         14.1550   23.3050   43.5030 C.3      12 GLL5        0.0000 
    110 CA         16.8360   23.3400   40.4020 C.3       8 GLP5        0.0000 
    111 CA         14.0168   25.3968   41.1750 C.3       4 GLC5        0.0000 
    112 CA         13.3640   23.6960   42.3930 C.3      12 GLL5        0.0000 
    113 CA         14.9160   26.4400   39.9610 C.3       8 GLP5        0.0000 
    114 CA         11.1715   26.2100   42.8725 C.3       4 GLC5        0.0000 
    115 CA         12.8710   25.0110   42.3850 C.3      12 GLL5        0.0000 
    116 CA          9.3400   26.9550   42.8310 C.3       8 GLP5        0.0000 
    117 CA         19.7130   27.2019   53.3541 C.3       4 GLC5        0.0000 
    118 CA         20.1280   24.7920   53.5010 C.3      12 GLL5        0.0000 
@<TRIPOS>BOND
@<TRIPOS>SUBSTRUCTURE
     1 ALC1       10 GROUP        1 X    ALC  0     ROOT ALC X 1
     2 SEC2        1 GROUP        1 X    SEC  0     **** SEC X 2
     3 LYC4       80 GROUP        1 X    LYC  0     **** LYC X 4
     4 GLC5       13 GROUP        1 X    GLC  0     **** GLC X 6
     5 ALP1       12 GROUP        1 Y    ALP  0     ROOT ALP Y 8
     6 SEP2        3 GROUP        1 Y    SEP  0     **** SEP Y 9
     7 LYP4       82 GROUP        1 Y    LYP  0     **** LYP Y 11
     8 GLP5       15 GROUP        1 Y    GLP  0     **** GLP Y 13
     9 ALL1       11 GROUP        1 Z    ALL  0     ROOT ALL Z 15
    10 SEL2        2 GROUP        1 Z    SEL  0     **** SEL Z 16
    11 LYL4       81 GROUP        1 Z    LYL  0     **** LYL Z 18
    12 GLL5       14 GROUP        1 Z    GLL  0     **** GLL Z 20
@<TRIPOS>SET

