#    Name: 3ai2_NAP_8_ligand
#    Modification time : Tue Mar 25 12:00:30 2014

@<TRIPOS>MOLECULE
3ai2_NAP_8_ligand
   73    77     1     0     0
SMALL
NO_CHARGES


@<TRIPOS>ATOM
      1 PA         18.2100   22.4440   50.4750 P.3       1 NAP270      0.0000 
      2 O1A        19.2450   21.6140   49.7550 O.co2     1 NAP270      0.0000 
      3 O2A        17.3360   21.8160   51.5020 O.co2     1 NAP270      0.0000 
      4 O5B        18.9220   23.7350   51.1150 O.3       1 NAP270      0.0000 
      5 C5B        18.1950   24.6320   51.9030 C.3       1 NAP270      0.0000 
      6 C4B        19.2320   25.5430   52.5340 C.3       1 NAP270      0.0000 
      7 O4B        18.5240   26.5220   53.2790 O.3       1 NAP270      0.0000 
      8 C3B        20.1280   24.7920   53.5010 C.3       1 NAP270      0.0000 
      9 O3B        21.3970   25.4450   53.5030 O.3       1 NAP270      0.0000 
     10 C2B        19.4040   25.0070   54.8060 C.3       1 NAP270      0.0000 
     11 O2B        20.3400   24.8720   55.8510 O.3       1 NAP270      0.0000 
     12 C1B        18.8400   26.4210   54.6400 C.3       1 NAP270      0.0000 
     13 N9A        17.5920   26.6570   55.3460 N.pl3     1 NAP270      0.0000 
     14 C8A        16.3940   25.9670   55.3060 C.2       1 NAP270      0.0000 
     15 N7A        15.5160   26.6020   56.1360 N.2       1 NAP270      0.0000 
     16 C5A        16.1740   27.6690   56.7010 C.ar      1 NAP270      0.0000 
     17 C6A        15.8260   28.6530   57.6130 C.ar      1 NAP270      0.0000 
     18 N6A        14.6100   28.6590   58.1680 N.pl3     1 NAP270      0.0000 
     19 N1A        16.7700   29.6200   57.9670 N.ar      1 NAP270      0.0000 
     20 C2A        18.0420   29.6500   57.4480 C.ar      1 NAP270      0.0000 
     21 N3A        18.3900   28.6610   56.5370 N.ar      1 NAP270      0.0000 
     22 C4A        17.4630   27.7180   56.1830 C.ar      1 NAP270      0.0000 
     23 O3         17.2220   23.1060   49.3750 O.3       1 NAP270      0.0000 
     24 PN         17.4290   23.4860   47.8300 P.3       1 NAP270      0.0000 
     25 O1N        18.8100   24.0290   47.5810 O.co2     1 NAP270      0.0000 
     26 O2N        16.7570   22.4520   47.0340 O.co2     1 NAP270      0.0000 
     27 O5D        16.4150   24.7230   47.7440 O.3       1 NAP270      0.0000 
     28 C5D        16.7970   26.0550   47.9850 C.3       1 NAP270      0.0000 
     29 C4D        15.7380   26.8720   47.2460 C.3       1 NAP270      0.0000 
     30 O4D        15.5420   26.4670   45.8920 O.3       1 NAP270      0.0000 
     31 C3D        14.4050   26.7840   47.9680 C.3       1 NAP270      0.0000 
     32 O3D        13.8390   28.0730   48.1000 O.3       1 NAP270      0.0000 
     33 C2D        13.5880   25.9540   47.0170 C.3       1 NAP270      0.0000 
     34 O2D        12.2130   26.1920   47.2610 O.3       1 NAP270      0.0000 
     35 C1D        14.1510   26.4110   45.6460 C.3       1 NAP270      0.0000 
     36 N1N        13.8800   25.4910   44.5200 N.pl3     1 NAP270      0.0000 
     37 C2N        14.3940   24.1880   44.5420 C.ar      1 NAP270      0.0000 
     38 C3N        14.1550   23.3050   43.5030 C.ar      1 NAP270      0.0000 
     39 C7N        14.8120   21.9480   43.5270 C.2       1 NAP270      0.0000 
     40 O7N        14.4140   21.0100   42.5880 O.2       1 NAP270      0.0000 
     41 N7N        15.7380   21.6230   44.4240 N.am      1 NAP270      0.0000 
     42 C4N        13.3640   23.6960   42.3930 C.ar      1 NAP270      0.0000 
     43 C5N        12.8710   25.0110   42.3850 C.ar      1 NAP270      0.0000 
     44 C6N        13.1350   25.9190   43.4430 C.ar      1 NAP270      0.0000 
     45 P2B        19.8630   24.5710   57.3640 P.3       1 NAP270      0.0000 
     46 O1X        18.8580   23.4260   57.3650 O.co2     1 NAP270      0.0000 
     47 O2X        19.0540   25.7490   57.8760 O.co2     1 NAP270      0.0000 
     48 O3X        21.0910   24.2980   58.2060 O.co2     1 NAP270      0.0000 
     49 H          17.6502   24.1436   52.7021 H         1 NAP270      0.0000 
     50 H          17.5187   25.2485   51.3230 H         1 NAP270      0.0000 
     51 H          19.8237   25.9869   51.7709 H         1 NAP270      0.0000 
     52 H          20.1408   23.7933   53.2511 H         1 NAP270      0.0000 
     53 H          18.5972   24.3228   54.8446 H         1 NAP270      0.0000 
     54 H          19.5862   27.1246   54.9092 H         1 NAP270      0.0000 
     55 H          16.2224   25.1866   54.7869 H         1 NAP270      0.0000 
     56 H          13.8671   28.2986   57.6039 H         1 NAP270      0.0000 
     57 H          14.5524   29.0234   59.0974 H         1 NAP270      0.0000 
     58 H          18.7089   30.3666   57.7164 H         1 NAP270      0.0000 
     59 H          17.7555   26.2984   47.5640 H         1 NAP270      0.0000 
     60 H          16.7535   26.3213   49.0253 H         1 NAP270      0.0000 
     61 H          16.0454   27.9270   47.2857 H         1 NAP270      0.0000 
     62 H          14.5363   26.2623   48.8625 H         1 NAP270      0.0000 
     63 H          13.8886   24.9328   47.1612 H         1 NAP270      0.0000 
     64 H          13.7688   27.3930   45.4556 H         1 NAP270      0.0000 
     65 H          14.9626   23.8865   45.3540 H         1 NAP270      0.0000 
     66 H          15.9747   22.3317   45.0886 H         1 NAP270      0.0000 
     67 H          16.1142   20.6992   44.3531 H         1 NAP270      0.0000 
     68 H          13.1683   23.0552   41.6476 H         1 NAP270      0.0000 
     69 H          12.2970   25.3336   41.5859 H         1 NAP270      0.0000 
     70 H          12.7708   26.8689   43.3893 H         1 NAP270      0.0000 
     71 H          21.9650   24.9083   52.8791 H         1 NAP270      0.0000 
     72 H          14.6104   28.7040   48.0168 H         1 NAP270      0.0000 
     73 H          11.9359   25.4749   47.9005 H         1 NAP270      0.0000 
@<TRIPOS>BOND
     1    2    1 ar   
     2    3    1 ar   
     3    4    1 1    
     4   23    1 1    
     5    5    4 1    
     6    6    5 1    
     7   49    5 1    
     8   50    5 1    
     9    7    6 1    
    10    8    6 1    
    11   51    6 1    
    12   12    7 1    
    13    9    8 1    
    14   10    8 1    
    15   52    8 1    
    16   71    9 1    
    17   11   10 1    
    18   12   10 1    
    19   53   10 1    
    20   45   11 1    
    21   13   12 1    
    22   54   12 1    
    23   14   13 1    
    24   22   13 1    
    25   15   14 2    
    26   55   14 1    
    27   16   15 1    
    28   17   16 ar   
    29   22   16 ar   
    30   18   17 1    
    31   19   17 ar   
    32   56   18 1    
    33   57   18 1    
    34   20   19 ar   
    35   21   20 ar   
    36   58   20 1    
    37   22   21 ar   
    38   24   23 1    
    39   25   24 ar   
    40   26   24 ar   
    41   27   24 1    
    42   28   27 1    
    43   29   28 1    
    44   59   28 1    
    45   60   28 1    
    46   30   29 1    
    47   31   29 1    
    48   61   29 1    
    49   35   30 1    
    50   32   31 1    
    51   33   31 1    
    52   62   31 1    
    53   72   32 1    
    54   34   33 1    
    55   35   33 1    
    56   63   33 1    
    57   73   34 1    
    58   36   35 1    
    59   64   35 1    
    60   37   36 ar   
    61   44   36 ar   
    62   38   37 ar   
    63   65   37 1    
    64   39   38 1    
    65   42   38 ar   
    66   40   39 2    
    67   41   39 am   
    68   66   41 1    
    69   67   41 1    
    70   43   42 ar   
    71   68   42 1    
    72   44   43 ar   
    73   69   43 1    
    74   70   44 1    
    75   46   45 ar   
    76   47   45 ar   
    77   48   45 ar   
@<TRIPOS>SUBSTRUCTURE
     1 NAP270      1 GROUP   
@<TRIPOS>SET

