#    Name: 3qcf_NXY_1_INTS_M
#    Modification time : Tue Mar 25 09:36:44 2014

@<TRIPOS>MOLECULE
3qcf_NXY_1_INTS_M
   69     0     9     0     0
SMALL
NO_CHARGES


@<TRIPOS>ATOM
      1 CA         34.3715   57.0525   76.6010 C.3       3 GLC5        0.0000 
      2 CA         33.4780   56.0930   77.8450 C.3       9 GLL5        0.0000 
      3 CA         35.2650   58.0120   75.3570 C.3       6 GLP5        0.0000 
      4 CA         32.5175   55.6605   76.0665 C.3       3 GLC5        0.0000 
      5 CA         31.5570   55.2280   74.2880 C.3       6 GLP5        0.0000 
      6 CA         35.5205   55.9155   79.3360 C.3       3 GLC5        0.0000 
      7 CA         34.1360   54.5030   80.0520 C.3       9 GLL5        0.0000 
      8 CA         36.9050   57.3280   78.6200 C.3       6 GLP5        0.0000 
      9 CA         34.8305   50.6970   80.6190 C.3       3 GLC5        0.0000 
     10 CA         34.9070   52.3200   79.6580 C.3       9 GLL5        0.0000 
     11 CA         34.7540   49.0740   81.5800 C.3       6 GLP5        0.0000 
     12 CA         31.8090   57.2590   80.6270 C.3       3 GLC5        0.0000 
     13 CA         32.7230   57.0810   79.1360 C.3       9 GLL5        0.0000 
     14 CA         30.8950   57.4370   82.1180 C.3       6 GLP5        0.0000 
     15 CA         36.3960   53.6875   80.8375 C.3       3 GLC5        0.0000 
     16 CA         34.5380   53.5680   80.8870 C.3       9 GLL5        0.0000 
     17 CA         38.2540   53.8070   80.7880 C.3       6 GLP5        0.0000 
     18 N          33.2645   51.5955   76.0680 N.am      1 SEC2        0.0000 
     19 N          34.8770   51.9930   76.3930 N.am      7 SEL2        0.0000 
     20 N          31.6520   51.1980   75.7430 N.am      4 SEP2        0.0000 
     21 NZ         34.2350   54.8510   74.7960 N.4       2 LYC4        0.0000 
     22 NZ         34.5700   54.1210   76.0120 N.4       8 LYL4        0.0000 
     23 NZ         34.9260   56.1210   72.9250 N.4       5 LYP4        0.0000 
     24 N          34.2350   54.8510   74.7960 N.am      1 SEC2        0.0000 
     25 N          34.5700   54.1210   76.0120 N.am      7 SEL2        0.0000 
     26 N          33.9000   55.5810   73.5800 N.am      4 SEP2        0.0000 
     27 CA         29.1940   56.5160   78.9415 C.3       3 GLC5        0.0000 
     28 CA         30.5020   57.8810   78.3540 C.3       9 GLL5        0.0000 
     29 CA         27.8860   55.1510   79.5290 C.3       6 GLP5        0.0000 
     30 CA         27.7085   59.0085   75.7725 C.3       3 GLC5        0.0000 
     31 CA         28.0490   58.7760   77.8350 C.3       9 GLL5        0.0000 
     32 CA         27.3680   59.2410   73.7100 C.3       6 GLP5        0.0000 
     33 CA         28.7265   60.0710   79.1490 C.3       3 GLC5        0.0000 
     34 CA         29.4040   61.3660   80.4630 C.3       6 GLP5        0.0000 
     35 CA         27.9675   56.9635   78.6820 C.3       3 GLC5        0.0000 
     36 CA         26.4485   58.3220   77.5375 C.3       3 GLC5        0.0000 
     37 CA         24.8480   57.8680   77.2400 C.3       6 GLP5        0.0000 
     38 CA         27.3960   58.2250   79.8425 C.3       3 GLC5        0.0000 
     39 CA         26.7430   57.6740   81.8500 C.3       6 GLP5        0.0000 
     40 CA         29.7760   60.3805   75.3625 C.3       3 GLC5        0.0000 
     41 CA         29.3240   61.4280   76.8200 C.3       9 GLL5        0.0000 
     42 CA         30.2280   59.3330   73.9050 C.3       6 GLP5        0.0000 
     43 CA         30.6915   62.9165   76.7100 C.3       3 GLC5        0.0000 
     44 CA         32.0590   64.4050   76.6000 C.3       6 GLP5        0.0000 
     45 CA         28.6940   62.9290   76.5460 C.3       3 GLC5        0.0000 
     46 CA         28.0640   64.4300   76.2720 C.3       6 GLP5        0.0000 
     47 CA         27.1655   61.2670   76.4850 C.3       3 GLC5        0.0000 
     48 CA         25.0070   61.1060   76.1500 C.3       6 GLP5        0.0000 
     49 CA         36.0493   54.4953   79.3995 C.3       3 GLC5        0.0000 
     50 CA         34.0070   54.7180   78.7580 C.3       9 GLL5        0.0000 
     51 CA         38.0270   54.3800   79.3940 C.3       6 GLP5        0.0000 
     52 CA         35.3238   56.3668   78.4607 C.3       3 GLC5        0.0000 
     53 CA         36.3563   53.0690   78.6600 C.3       3 GLC5        0.0000 
     54 CA         34.5100   53.4320   78.2500 C.3       9 GLL5        0.0000 
     55 CA         38.0040   53.2620   78.3660 C.3       6 GLP5        0.0000 
     56 CA         33.0233   51.9780   78.5480 C.3       3 GLC5        0.0000 
     57 CA         31.3380   51.0800   78.1420 C.3       6 GLP5        0.0000 
     58 CA         32.9560   53.9898   81.9123 C.3       3 GLC5        0.0000 
     59 CA         31.5750   53.9440   83.3550 C.3       6 GLP5        0.0000 
     60 CA         29.7625   59.8875   79.2758 C.3       3 GLC5        0.0000 
     61 CA         34.3367   58.5986   78.5344 C.3       3 GLC5        0.0000 
     62 CA         32.5140   59.3860   78.0260 C.3       9 GLL5        0.0000 
     63 CA         36.2630   58.6960   78.6550 C.3       6 GLP5        0.0000 
     64 CA         30.5643   59.6641   75.7186 C.3       3 GLC5        0.0000 
     65 CA         30.3560   60.1660   77.3920 C.3       9 GLL5        0.0000 
     66 CA         31.9249   60.5825   79.2779 C.3       3 GLC5        0.0000 
     67 CA         31.7530   60.4390   77.4570 C.3       9 GLL5        0.0000 
     68 CA         31.8720   61.5610   80.7040 C.3       6 GLP5        0.0000 
     69 CA         29.6220   61.0815   78.7845 C.3       3 GLC5        0.0000 
@<TRIPOS>BOND
@<TRIPOS>SUBSTRUCTURE
     1 SEC2       18 GROUP        1 X    SEC  0     ROOT SEC X 2
     2 LYC4       21 GROUP        1 X    LYC  0     **** LYC X 4
     3 GLC5        1 GROUP        1 X    GLC  0     **** GLC X 6
     4 SEP2       20 GROUP        1 Y    SEP  0     ROOT SEP Y 9
     5 LYP4       23 GROUP        1 Y    LYP  0     **** LYP Y 11
     6 GLP5        3 GROUP        1 Y    GLP  0     **** GLP Y 13
     7 SEL2       19 GROUP        1 Z    SEL  0     ROOT SEL Z 16
     8 LYL4       22 GROUP        1 Z    LYL  0     **** LYL Z 18
     9 GLL5        2 GROUP        1 Z    GLL  0     **** GLL Z 20
@<TRIPOS>SET

