#    Name: 3qcf_NXY_1_ligand
#    Modification time : Tue Mar 25 09:36:44 2014

@<TRIPOS>MOLECULE
3qcf_NXY_1_ligand
   25    26     1     0     0
SMALL
NO_CHARGES


@<TRIPOS>ATOM
      1 C1         34.0070   54.7180   78.7580 C.2       1 NXY2001     0.0000 
      2 C2         34.5100   53.4320   78.2500 C.2       1 NXY2001     0.0000 
      3 S3         33.4780   56.0930   77.8450 S.3       1 NXY2001     0.0000 
      4 C4         34.1360   54.5030   80.0520 C.2       1 NXY2001     0.0000 
      5 S5         34.9070   52.3200   79.6580 S.3       1 NXY2001     0.0000 
      6 C6         34.6590   53.1560   76.7950 C.2       1 NXY2001     0.0000 
      7 C7         32.7230   57.0810   79.1360 C.3       1 NXY2001     0.0000 
      8 C8         34.5380   53.5680   80.8870 C.2       1 NXY2001     0.0000 
      9 O9         34.8770   51.9930   76.3930 O.co2     1 NXY2001     0.0000 
     10 O10        34.5700   54.1210   76.0120 O.co2     1 NXY2001     0.0000 
     11 C11        31.8910   58.1520   78.4670 C.ar      1 NXY2001     0.0000 
     12 C12        30.5020   57.8810   78.3540 C.ar      1 NXY2001     0.0000 
     13 C13        32.5140   59.3860   78.0260 C.ar      1 NXY2001     0.0000 
     14 C14        29.7400   58.9370   77.8230 C.ar      1 NXY2001     0.0000 
     15 C15        31.7530   60.4390   77.4570 C.ar      1 NXY2001     0.0000 
     16 C16        30.3560   60.1660   77.3920 C.ar      1 NXY2001     0.0000 
     17 CL17       28.0490   58.7760   77.8350 Cl        1 NXY2001     0.0000 
     18 CL18       29.3240   61.4280   76.8200 Cl        1 NXY2001     0.0000 
     19 H          33.7721   55.4624   80.6606 H         1 NXY2001     0.0000 
     20 H          33.5577   57.4543   79.6623 H         1 NXY2001     0.0000 
     21 H          32.1556   56.3708   79.6715 H         1 NXY2001     0.0000 
     22 H          34.6840   53.3233   81.6759 H         1 NXY2001     0.0000 
     23 H          30.1105   57.0215   78.6270 H         1 NXY2001     0.0000 
     24 H          33.5282   59.4856   78.1341 H         1 NXY2001     0.0000 
     25 H          32.1452   61.2716   77.1396 H         1 NXY2001     0.0000 
@<TRIPOS>BOND
     1    2    1 2    
     2    3    1 1    
     3    4    1 1    
     4    5    2 1    
     5    6    2 1    
     6    7    3 1    
     7    8    4 2    
     8   19    4 1    
     9    8    5 1    
    10    9    6 ar   
    11   10    6 ar   
    12   11    7 1    
    13   20    7 1    
    14   21    7 1    
    15   22    8 1    
    16   12   11 ar   
    17   13   11 ar   
    18   14   12 ar   
    19   23   12 1    
    20   15   13 ar   
    21   24   13 1    
    22   16   14 ar   
    23   17   14 1    
    24   16   15 ar   
    25   25   15 1    
    26   18   16 1    
@<TRIPOS>SUBSTRUCTURE
     1 NXY2001     1 GROUP   
@<TRIPOS>SET

