#    Name: 2klh_5GP_2_INTS_M
#    Modification time : Tue Mar 25 21:16:09 2014

@<TRIPOS>MOLECULE
2klh_5GP_2_INTS_M
   47     0     9     0     0
SMALL
NO_CHARGES


@<TRIPOS>ATOM
      1 N          -0.6770    5.4020    9.5980 N.am      2 SEC2        0.0000 
      2 N          -1.8380    4.2490    9.2070 N.am      8 SEL2        0.0000 
      3 N           0.4840    6.5550    9.9890 N.am      5 SEP2        0.0000 
      4 N          -4.7415    3.3965   10.8495 N.am      2 SEC2        0.0000 
      5 N          -4.0330    4.7250   10.4500 N.am      8 SEL2        0.0000 
      6 N          -5.4500    2.0680   11.2490 N.am      5 SEP2        0.0000 
      7 N          -0.9120    6.5275   10.0795 N.am      2 SEC2        0.0000 
      8 N          -2.3080    6.5000   10.1700 N.am      8 SEL2        0.0000 
      9 N          -2.1425    7.7990   10.4095 N.am      2 SEC2        0.0000 
     10 N          -1.9770    9.0980   10.6490 N.am      5 SEP2        0.0000 
     11 N          -2.5820    7.0330   11.4860 N.am      2 SEC2        0.0000 
     12 N          -2.8560    7.5660   12.8020 N.am      5 SEP2        0.0000 
     13 CA         -2.1825    7.8040    8.4715 C.3       3 GLC5        0.0000 
     14 CA         -4.0070    7.0400    8.0290 C.3       9 GLL5        0.0000 
     15 CA         -0.3580    8.5680    8.9140 C.3       6 GLP5        0.0000 
     16 CA         -5.0785    8.2285    9.3820 C.3       3 GLC5        0.0000 
     17 CA         -6.1500    9.4170   10.7350 C.3       6 GLP5        0.0000 
     18 N          -2.6165   10.0210    4.9020 N.am      2 SEC2        0.0000 
     19 N          -3.8710    9.0250    4.8890 N.am      8 SEL2        0.0000 
     20 N          -1.3620   11.0170    4.9150 N.am      5 SEP2        0.0000 
     21 N          -4.5720    8.0590    4.0165 N.am      2 SEC2        0.0000 
     22 N          -5.2730    7.0930    3.1440 N.am      5 SEP2        0.0000 
     23 O          -3.5910    7.7700    4.4185 O.2       1 ALC1        0.0000 
     24 O          -3.8710    9.0250    4.8890 O.2       7 ALL1        0.0000 
     25 O          -3.3110    6.5150    3.9480 O.2       4 ALP1        0.0000 
     26 CA         -6.0080    9.2820    8.5210 C.3       3 GLC5        0.0000 
     27 CA         -5.8660    9.1470    6.3070 C.3       9 GLL5        0.0000 
     28 CA         -6.2070   10.9330    5.1980 C.3       3 GLC5        0.0000 
     29 CA         -6.5480   12.7190    4.0890 C.3       6 GLP5        0.0000 
     30 O          -5.1105   11.2135    5.5840 O.2       1 ALC1        0.0000 
     31 O          -6.2230   10.1290    5.3550 O.2       7 ALL1        0.0000 
     32 O          -3.9980   12.2980    5.8130 O.2       4 ALP1        0.0000 
     33 CA         -6.6975    5.9620    5.2975 C.3       3 GLC5        0.0000 
     34 CA         -6.5320    7.8300    5.9190 C.3       9 GLL5        0.0000 
     35 CA         -6.8630    4.0940    4.6760 C.3       6 GLP5        0.0000 
     36 O          -9.6725    9.3085    2.6590 O.2       1 ALC1        0.0000 
     37 O         -10.9420    8.8130    3.2140 O.2       7 ALL1        0.0000 
     38 O          -8.4030    9.8040    2.1040 O.2       4 ALP1        0.0000 
     39 CA         -2.0460    7.0257    6.7440 C.3       3 GLC5        0.0000 
     40 CA         -4.3490    7.3130    6.5870 C.3       9 GLL5        0.0000 
     41 CA          0.0860    6.8750    6.1800 C.3       6 GLP5        0.0000 
     42 CA         -9.7483    9.1805    7.0572 C.3       3 GLC5        0.0000 
     43 CA         -9.0580    7.8820    5.9690 C.3       9 GLL5        0.0000 
     44 CA         -9.9750   10.6070    7.6510 C.3       6 GLP5        0.0000 
     45 CA         -9.8712    6.1725    6.7873 C.3       3 GLC5        0.0000 
     46 CA         -9.9850    7.6260    6.9580 C.3       9 GLL5        0.0000 
     47 CA        -10.2210    4.5910    7.1110 C.3       6 GLP5        0.0000 
@<TRIPOS>BOND
@<TRIPOS>SUBSTRUCTURE
     1 ALC1       23 GROUP        1 X    ALC  0     ROOT ALC X 1
     2 SEC2        1 GROUP        1 X    SEC  0     **** SEC X 2
     3 GLC5       13 GROUP        1 X    GLC  0     **** GLC X 6
     4 ALP1       25 GROUP        1 Y    ALP  0     ROOT ALP Y 8
     5 SEP2        3 GROUP        1 Y    SEP  0     **** SEP Y 9
     6 GLP5       15 GROUP        1 Y    GLP  0     **** GLP Y 13
     7 ALL1       24 GROUP        1 Z    ALL  0     ROOT ALL Z 15
     8 SEL2        2 GROUP        1 Z    SEL  0     **** SEL Z 16
     9 GLL5       14 GROUP        1 Z    GLL  0     **** GLL Z 20
@<TRIPOS>SET

