#    Name: 2klh_5GP_2_ligand
#    Modification time : Tue Mar 25 21:16:09 2014

@<TRIPOS>MOLECULE
2klh_5GP_2_ligand
   36    38     1     0     0
SMALL
NO_CHARGES


@<TRIPOS>ATOM
      1 P          -2.9440    5.1790    9.5490 P.3       1 5GP187      0.0000 
      2 O1P        -1.8380    4.2490    9.2070 O.co2     1 5GP187      0.0000 
      3 O2P        -4.0330    4.7250   10.4500 O.co2     1 5GP187      0.0000 
      4 O3P        -2.3080    6.5000   10.1700 O.co2     1 5GP187      0.0000 
      5 O5'        -3.6010    5.6850    8.1870 O.3       1 5GP187      0.0000 
      6 C5'        -4.0070    7.0400    8.0290 C.3       1 5GP187      0.0000 
      7 C4'        -4.3490    7.3130    6.5870 C.3       1 5GP187      0.0000 
      8 O4'        -5.6800    6.7870    6.3340 O.3       1 5GP187      0.0000 
      9 C3'        -4.3890    8.7900    6.1990 C.3       1 5GP187      0.0000 
     10 O3'        -3.8710    9.0250    4.8890 O.3       1 5GP187      0.0000 
     11 C2'        -5.8660    9.1470    6.3070 C.3       1 5GP187      0.0000 
     12 O2'        -6.2230   10.1290    5.3550 O.3       1 5GP187      0.0000 
     13 C1'        -6.5320    7.8300    5.9190 C.3       1 5GP187      0.0000 
     14 N9         -7.8350    7.6550    6.5500 N.pl3     1 5GP187      0.0000 
     15 C8         -8.0860    7.2540    7.8390 C.2       1 5GP187      0.0000 
     16 N7         -9.3580    7.2280    8.1310 N.2       1 5GP187      0.0000 
     17 C5         -9.9850    7.6260    6.9580 C.2       1 5GP187      0.0000 
     18 C6        -11.3620    7.7920    6.6610 C.2       1 5GP187      0.0000 
     19 O6        -12.3380    7.6260    7.4030 O.2       1 5GP187      0.0000 
     20 N1        -11.5560    8.2040    5.3460 N.am      1 5GP187      0.0000 
     21 C2        -10.5550    8.4270    4.4350 C.2       1 5GP187      0.0000 
     22 N2        -10.9420    8.8130    3.2140 N.pl3     1 5GP187      0.0000 
     23 N3         -9.2690    8.2820    4.6990 N.2       1 5GP187      0.0000 
     24 C4         -9.0580    7.8820    5.9690 C.2       1 5GP187      0.0000 
     25 H          -3.2113    7.7375    8.3304 H         1 5GP187      0.0000 
     26 H          -4.8922    7.2700    8.6406 H         1 5GP187      0.0000 
     27 H          -3.6440    6.8077    5.9442 H         1 5GP187      0.0000 
     28 H          -3.8686    9.3372    6.9644 H         1 5GP187      0.0000 
     29 H          -6.1016    9.3659    7.2928 H         1 5GP187      0.0000 
     30 H          -6.6369    7.8224    4.8402 H         1 5GP187      0.0000 
     31 H          -7.3429    7.0132    8.4647 H         1 5GP187      0.0000 
     32 H         -12.5633    8.3559    5.0297 H         1 5GP187      0.0000 
     33 H         -11.9283    8.8939    3.0701 H         1 5GP187      0.0000 
     34 H         -10.2103    8.9860    2.5547 H         1 5GP187      0.0000 
     35 H          -3.2215    8.2814    4.7303 H         1 5GP187      0.0000 
     36 H          -5.5562   10.8639    5.4789 H         1 5GP187      0.0000 
@<TRIPOS>BOND
     1    2    1 ar   
     2    3    1 ar   
     3    4    1 ar   
     4    5    1 1    
     5    6    5 1    
     6    7    6 1    
     7   25    6 1    
     8   26    6 1    
     9    8    7 1    
    10    9    7 1    
    11   27    7 1    
    12   13    8 1    
    13   10    9 1    
    14   11    9 1    
    15   28    9 1    
    16   35   10 1    
    17   12   11 1    
    18   13   11 1    
    19   29   11 1    
    20   36   12 1    
    21   14   13 1    
    22   30   13 1    
    23   15   14 1    
    24   24   14 1    
    25   16   15 2    
    26   31   15 1    
    27   17   16 1    
    28   18   17 1    
    29   24   17 2    
    30   19   18 2    
    31   20   18 am   
    32   21   20 1    
    33   32   20 1    
    34   22   21 1    
    35   23   21 2    
    36   33   22 1    
    37   34   22 1    
    38   24   23 1    
@<TRIPOS>SUBSTRUCTURE
     1 5GP187      1 GROUP   
@<TRIPOS>SET

