#    Name: 2ytz_SAH_1_INTS_M
#    Modification time : Tue Mar 25 09:41:28 2014

@<TRIPOS>MOLECULE
2ytz_SAH_1_INTS_M
   74     0    12     0     0
SMALL
NO_CHARGES


@<TRIPOS>ATOM
      1 O          15.8560  132.6120   15.7470 O.2       1 ALC1        0.0000 
      2 O          15.2170  133.8520   15.9490 O.2       9 ALL1        0.0000 
      3 O          16.4950  131.3720   15.5450 O.2       5 ALP1        0.0000 
      4 O          14.9115  134.6995   14.6440 O.2       1 ALC1        0.0000 
      5 O          14.6060  135.5470   13.3390 O.2       5 ALP1        0.0000 
      6 O          15.1330  133.7665   17.4465 O.2       1 ALC1        0.0000 
      7 O          15.0490  133.6810   18.9440 O.2       5 ALP1        0.0000 
      8 CA         20.1105  136.1705   13.9540 C.3       4 GLC5        0.0000 
      9 CA         19.5520  134.4280   13.6010 C.3      12 GLL5        0.0000 
     10 CA         20.6690  137.9130   14.3070 C.3       8 GLP5        0.0000 
     11 CA         19.7195  134.1095   15.6450 C.3       4 GLC5        0.0000 
     12 CA         19.8870  133.7910   17.6890 C.3       8 GLP5        0.0000 
     13 NZ         14.1950  137.9320   16.9915 N.4       3 LYC4        0.0000 
     14 NZ         14.2240  136.6250   16.9130 N.4      11 LYL4        0.0000 
     15 NZ         13.7670  139.9230   18.1310 N.4       7 LYP4        0.0000 
     16 NZ         13.2025  136.6745   15.8325 N.4       3 LYC4        0.0000 
     17 NZ         11.4110  135.7830   15.2950 N.4       7 LYP4        0.0000 
     18 N          14.1950  137.9320   16.9915 N.am      2 SEC2        0.0000 
     19 N          14.2240  136.6250   16.9130 N.am     10 SEL2        0.0000 
     20 N          14.1660  139.2390   17.0700 N.am      6 SEP2        0.0000 
     21 N          13.0860  135.7275   16.4845 N.am      2 SEC2        0.0000 
     22 N          11.9480  134.8300   16.0560 N.am      6 SEP2        0.0000 
     23 N          13.2025  136.6745   15.8325 N.am      2 SEC2        0.0000 
     24 N          12.1810  136.7240   14.7520 N.am      6 SEP2        0.0000 
     25 CA         18.3715  131.2605   13.1255 C.3       4 GLC5        0.0000 
     26 CA         19.6580  132.9450   12.8090 C.3      12 GLL5        0.0000 
     27 CA         17.0850  129.5760   13.4420 C.3       8 GLP5        0.0000 
     28 CA         20.9200  132.8400   16.0235 C.3       4 GLC5        0.0000 
     29 CA         21.9530  131.8890   14.3580 C.3      12 GLL5        0.0000 
     30 O          21.2085  130.9615   16.3180 O.2       1 ALC1        0.0000 
     31 O          21.8910  131.9860   15.8100 O.2       9 ALL1        0.0000 
     32 O          20.5260  129.9370   16.8260 O.2       5 ALP1        0.0000 
     33 O          22.1345  130.3795   16.2070 O.2       1 ALC1        0.0000 
     34 O          22.3780  128.7730   16.6040 O.2       5 ALP1        0.0000 
     35 O          23.0105  129.3670   15.4740 O.2       1 ALC1        0.0000 
     36 O          23.6430  129.9610   14.3440 O.2       9 ALL1        0.0000 
     37 CA         19.6975  129.3855   12.0705 C.3       4 GLC5        0.0000 
     38 CA         21.5380  129.9400   12.9800 C.3      12 GLL5        0.0000 
     39 CA         17.8570  128.8310   11.1610 C.3       8 GLP5        0.0000 
     40 CA         22.0305  125.0620   12.8050 C.3       4 GLC5        0.0000 
     41 CA         20.7330  125.2670   11.4280 C.3      12 GLL5        0.0000 
     42 CA         23.3280  124.8570   14.1820 C.3       8 GLP5        0.0000 
     43 CA         20.6995  123.3520   12.4445 C.3       4 GLC5        0.0000 
     44 CA         20.6660  121.4370   13.4610 C.3       8 GLP5        0.0000 
     45 CA         18.7120  124.5910   11.7910 C.3       4 GLC5        0.0000 
     46 CA         16.6910  123.9150   12.1540 C.3       8 GLP5        0.0000 
     47 O          20.5630  123.1160   10.5595 O.2       1 ALC1        0.0000 
     48 O          20.9320  124.4710   10.3850 O.2       9 ALL1        0.0000 
     49 O          20.1940  121.7610   10.7340 O.2       5 ALP1        0.0000 
     50 N          19.3180  123.6340   12.7380 N.am      2 SEC2        0.0000 
     51 N          20.1020  124.7890   12.5790 N.am     10 SEL2        0.0000 
     52 N          18.5340  122.4790   12.8970 N.am      6 SEP2        0.0000 
     53 CA         18.4165  127.0555   13.0000 C.3       4 GLC5        0.0000 
     54 CA         19.8890  125.5920   13.6690 C.3      12 GLL5        0.0000 
     55 CA         16.9440  128.5190   12.3310 C.3       8 GLP5        0.0000 
     56 CA         20.0800  126.1230   15.5595 C.3       4 GLC5        0.0000 
     57 CA         20.2710  126.6540   17.4500 C.3       8 GLP5        0.0000 
     58 CA         21.6085  125.2245   13.9255 C.3       4 GLC5        0.0000 
     59 CA         20.2775  123.5145   13.5650 C.3       4 GLC5        0.0000 
     60 CA         18.2900  124.7535   12.9115 C.3       4 GLC5        0.0000 
     61 N          21.1795  126.3385   14.8455 N.am      2 SEC2        0.0000 
     62 N          20.3120  126.8940   13.6330 N.am     10 SEL2        0.0000 
     63 N          22.0470  125.7830   16.0580 N.am      6 SEP2        0.0000 
     64 CA         18.7252  134.1712   16.2647 C.3       4 GLC5        0.0000 
     65 CA         18.0470  134.1900   14.3910 C.3      12 GLL5        0.0000 
     66 CA         21.0035  134.4262   12.4705 C.3       4 GLC5        0.0000 
     67 CA         22.4020  135.1660   11.7360 C.3       8 GLP5        0.0000 
     68 CA         22.1020  133.0155   12.4612 C.3       4 GLC5        0.0000 
     69 CA         20.8130  132.0990   13.3930 C.3      12 GLL5        0.0000 
     70 CA         22.8210  134.0370   11.0470 C.3       8 GLP5        0.0000 
     71 CA         19.4597  127.9232   11.5480 C.3       4 GLC5        0.0000 
     72 CA         20.9500  127.4300   12.5000 C.3      12 GLL5        0.0000 
     73 CA         22.5192  126.5787   12.7945 C.3       4 GLC5        0.0000 
     74 CA         23.9760  126.1420   13.6540 C.3       8 GLP5        0.0000 
@<TRIPOS>BOND
@<TRIPOS>SUBSTRUCTURE
     1 ALC1        1 GROUP        1 X    ALC  0     ROOT ALC X 1
     2 SEC2       18 GROUP        1 X    SEC  0     **** SEC X 2
     3 LYC4       13 GROUP        1 X    LYC  0     **** LYC X 4
     4 GLC5        8 GROUP        1 X    GLC  0     **** GLC X 6
     5 ALP1        3 GROUP        1 Y    ALP  0     ROOT ALP Y 8
     6 SEP2       20 GROUP        1 Y    SEP  0     **** SEP Y 9
     7 LYP4       15 GROUP        1 Y    LYP  0     **** LYP Y 11
     8 GLP5       10 GROUP        1 Y    GLP  0     **** GLP Y 13
     9 ALL1        2 GROUP        1 Z    ALL  0     ROOT ALL Z 15
    10 SEL2       19 GROUP        1 Z    SEL  0     **** SEL Z 16
    11 LYL4       14 GROUP        1 Z    LYL  0     **** LYL Z 18
    12 GLL5        9 GROUP        1 Z    GLL  0     **** GLL Z 20
@<TRIPOS>SET

