#    Name: 2ytz_SAH_1_ligand
#    Modification time : Tue Mar 25 09:41:28 2014

@<TRIPOS>MOLECULE
2ytz_SAH_1_ligand
   46    48     1     0     0
SMALL
NO_CHARGES


@<TRIPOS>ATOM
      1 N          15.2170  133.8520   15.9490 N.4       1 SAH1001     0.0000 
      2 CA         15.7790  135.0840   16.1500 C.3       1 SAH1001     0.0000 
      3 CB         17.0800  134.9130   15.2900 C.3       1 SAH1001     0.0000 
      4 CG         18.0470  134.1900   14.3910 C.3       1 SAH1001     0.0000 
      5 SD         19.5520  134.4280   13.6010 S.3       1 SAH1001     0.0000 
      6 C          15.4270  136.2560   16.8510 C.2       1 SAH1001     0.0000 
      7 O          16.5100  136.8170   17.3430 O.co2     1 SAH1001     0.0000 
      8 OXT        14.2240  136.6250   16.9130 O.co2     1 SAH1001     0.0000 
      9 C5'        19.6580  132.9450   12.8090 C.3       1 SAH1001     0.0000 
     10 C4'        20.8130  132.0990   13.3930 C.3       1 SAH1001     0.0000 
     11 O4'        20.4690  130.8430   12.8220 O.3       1 SAH1001     0.0000 
     12 C3'        21.9530  131.8890   14.3580 C.3       1 SAH1001     0.0000 
     13 O3'        21.8910  131.9860   15.8100 O.3       1 SAH1001     0.0000 
     14 C2'        22.5230  130.5350   13.9570 C.3       1 SAH1001     0.0000 
     15 O2'        23.6430  129.9610   14.3440 O.3       1 SAH1001     0.0000 
     16 C1'        21.5380  129.9400   12.9800 C.3       1 SAH1001     0.0000 
     17 N9         21.4650  128.6030   12.1510 N.pl3     1 SAH1001     0.0000 
     18 C8         21.9490  128.5140   10.9260 C.2       1 SAH1001     0.0000 
     19 N7         21.7750  127.3220   10.4630 N.2       1 SAH1001     0.0000 
     20 C5         21.1750  126.6010   11.3700 C.ar      1 SAH1001     0.0000 
     21 C6         20.7330  125.2670   11.4280 C.ar      1 SAH1001     0.0000 
     22 N6         20.9320  124.4710   10.3850 N.pl3     1 SAH1001     0.0000 
     23 N1         20.1020  124.7890   12.5790 N.ar      1 SAH1001     0.0000 
     24 C2         19.8890  125.5920   13.6690 C.ar      1 SAH1001     0.0000 
     25 N3         20.3120  126.8940   13.6330 N.ar      1 SAH1001     0.0000 
     26 C4         20.9500  127.4300   12.5000 C.ar      1 SAH1001     0.0000 
     27 H          16.5502  134.5382   17.2428 H         1 SAH1001     0.0000 
     28 H          17.9384  135.4934   16.1294 H         1 SAH1001     0.0000 
     29 H          17.0804  136.1129   14.7082 H         1 SAH1001     0.0000 
     30 H          17.3912  133.7172   13.4657 H         1 SAH1001     0.0000 
     31 H          18.2377  133.0821   14.8870 H         1 SAH1001     0.0000 
     32 H          19.8283  133.1764   11.7781 H         1 SAH1001     0.0000 
     33 H          18.7122  132.4668   12.9575 H         1 SAH1001     0.0000 
     34 H          21.6242  132.3179   12.2775 H         1 SAH1001     0.0000 
     35 H          22.7926  132.5982   13.9868 H         1 SAH1001     0.0000 
     36 H          21.7324  129.9468   15.0163 H         1 SAH1001     0.0000 
     37 H          20.8084  129.3332   14.0715 H         1 SAH1001     0.0000 
     38 H          22.3826  129.2675   10.4436 H         1 SAH1001     0.0000 
     39 H          20.9770  124.9188    9.4920 H         1 SAH1001     0.0000 
     40 H          21.0189  123.4953   10.5864 H         1 SAH1001     0.0000 
     41 H          19.4164  125.2203   14.5050 H         1 SAH1001     0.0000 
     42 H          14.4949  133.8815   15.2578 H         1 SAH1001     0.0000 
     43 H          15.8918  133.1820   15.6395 H         1 SAH1001     0.0000 
     44 H          14.8069  133.4898   16.7861 H         1 SAH1001     0.0000 
     45 H          21.3485  131.1972   16.0990 H         1 SAH1001     0.0000 
     46 H          23.3977  129.4405   15.1619 H         1 SAH1001     0.0000 
@<TRIPOS>BOND
     1    2    1 1    
     2   42    1 1    
     3   43    1 1    
     4   44    1 1    
     5    3    2 1    
     6    6    2 1    
     7   27    2 1    
     8    4    3 1    
     9   28    3 1    
    10   29    3 1    
    11    5    4 1    
    12   30    4 1    
    13   31    4 1    
    14    9    5 1    
    15    7    6 ar   
    16    8    6 ar   
    17   10    9 1    
    18   32    9 1    
    19   33    9 1    
    20   11   10 1    
    21   12   10 1    
    22   34   10 1    
    23   16   11 1    
    24   13   12 1    
    25   14   12 1    
    26   35   12 1    
    27   45   13 1    
    28   15   14 1    
    29   16   14 1    
    30   36   14 1    
    31   46   15 1    
    32   17   16 1    
    33   37   16 1    
    34   18   17 1    
    35   26   17 1    
    36   19   18 2    
    37   38   18 1    
    38   20   19 1    
    39   21   20 ar   
    40   26   20 ar   
    41   22   21 1    
    42   23   21 ar   
    43   39   22 1    
    44   40   22 1    
    45   24   23 ar   
    46   25   24 ar   
    47   41   24 1    
    48   26   25 ar   
@<TRIPOS>SUBSTRUCTURE
     1 SAH1001     1 GROUP   
@<TRIPOS>SET

