#    Name: 2gm3_AMP_3_INTS_M
#    Modification time : Tue Mar 25 14:41:54 2014

@<TRIPOS>MOLECULE
2gm3_AMP_3_INTS_M
   75     0    12     0     0
SMALL
NO_CHARGES


@<TRIPOS>ATOM
      1 NZ         -5.1255  -12.7670   52.9225 N.4       3 LYC4        0.0000 
      2 NZ         -5.4060  -13.8080   51.2890 N.4      11 LYL4        0.0000 
      3 NZ         -4.8450  -11.7260   54.5560 N.4       7 LYP4        0.0000 
      4 N          -6.2085  -12.6610   50.7300 N.am      2 SEC2        0.0000 
      5 N          -5.4060  -13.8080   51.2890 N.am     10 SEL2        0.0000 
      6 N          -7.0110  -11.5140   50.1710 N.am      6 SEP2        0.0000 
      7 N          -6.5280  -14.0265   51.0685 N.am      2 SEC2        0.0000 
      8 N          -7.6500  -14.2450   50.8480 N.am      6 SEP2        0.0000 
      9 NZ         -2.0930  -13.6615   51.6290 N.4       3 LYC4        0.0000 
     10 NZ         -3.1130  -13.2810   50.8500 N.4      11 LYL4        0.0000 
     11 NZ         -0.5300  -15.2240   52.1350 N.4       7 LYP4        0.0000 
     12 N          -2.1180  -14.6520   51.0435 N.am      2 SEC2        0.0000 
     13 N          -3.1130  -13.2810   50.8500 N.am     10 SEL2        0.0000 
     14 N          -1.1230  -16.0230   51.2370 N.am      6 SEP2        0.0000 
     15 N          -2.0930  -13.6615   51.6290 N.am      2 SEC2        0.0000 
     16 N          -1.0730  -14.0420   52.4080 N.am      6 SEP2        0.0000 
     17 NZ         -2.4830  -15.7600   50.9040 N.4       3 LYC4        0.0000 
     18 NZ         -3.8430  -15.4970   50.5710 N.4      11 LYL4        0.0000 
     19 N          -4.3865  -16.8320   50.4865 N.am      2 SEC2        0.0000 
     20 N          -3.8430  -15.4970   50.5710 N.am     10 SEL2        0.0000 
     21 N          -4.9300  -18.1670   50.4020 N.am      6 SEP2        0.0000 
     22 N          -2.4830  -15.7600   50.9040 N.am      2 SEC2        0.0000 
     23 CA         -5.2370  -15.8720   48.4150 C.3       4 GLC5        0.0000 
     24 CA         -3.8500  -14.3820   47.9350 C.3      12 GLL5        0.0000 
     25 CA         -6.6240  -17.3620   48.8950 C.3       8 GLP5        0.0000 
     26 O          -3.3665  -16.5025   45.4315 O.2       1 ALC1        0.0000 
     27 O          -3.9420  -15.4810   44.8630 O.2       9 ALL1        0.0000 
     28 O          -2.7910  -17.5240   46.0000 O.2       5 ALP1        0.0000 
     29 N          -6.2925  -14.4935   44.1670 N.am      2 SEC2        0.0000 
     30 N          -5.2830  -13.3490   43.8570 N.am     10 SEL2        0.0000 
     31 N          -7.3020  -15.6380   44.4770 N.am      6 SEP2        0.0000 
     32 O          -5.0660  -12.9810   42.6645 O.2       1 ALC1        0.0000 
     33 O          -5.2830  -13.3490   43.8570 O.2       9 ALL1        0.0000 
     34 O          -4.8490  -12.6130   41.4720 O.2       5 ALP1        0.0000 
     35 CA         -4.7070  -10.6165   46.7025 C.3       4 GLC5        0.0000 
     36 CA         -4.1600  -11.9000   45.4080 C.3      12 GLL5        0.0000 
     37 CA         -5.2540   -9.3330   47.9970 C.3       8 GLP5        0.0000 
     38 CA         -0.9040   -6.7120   43.6620 C.3       4 GLC5        0.0000 
     39 CA         -0.7770   -8.7130   44.1310 C.3      12 GLL5        0.0000 
     40 CA         -1.0310   -4.7110   43.1930 C.3       8 GLP5        0.0000 
     41 O           1.0465   -7.1645   43.7980 O.2       1 ALC1        0.0000 
     42 O           0.3860   -8.1760   44.4890 O.2       9 ALL1        0.0000 
     43 O           1.7070   -6.1530   43.1070 O.2       5 ALP1        0.0000 
     44 N          -0.9475   -7.2750   42.1225 N.am      2 SEC2        0.0000 
     45 N          -1.3780   -8.3610   42.9810 N.am     10 SEL2        0.0000 
     46 N          -0.5170   -6.1890   41.2640 N.am      6 SEP2        0.0000 
     47 CA         -4.2815   -9.4320   42.4490 C.3       4 GLC5        0.0000 
     48 CA         -2.4970   -8.9350   42.6110 C.3      12 GLL5        0.0000 
     49 CA         -6.0660   -9.9290   42.2870 C.3       8 GLP5        0.0000 
     50 CA         -2.4935  -10.5740   41.3890 C.3       4 GLC5        0.0000 
     51 CA         -2.4900  -12.2130   40.1670 C.3       8 GLP5        0.0000 
     52 CA         -0.9485  -10.4025   43.0130 C.3       4 GLC5        0.0000 
     53 CA          0.6000  -11.8700   43.4150 C.3       8 GLP5        0.0000 
     54 CA         -1.7360   -8.1580   40.9205 C.3       4 GLC5        0.0000 
     55 CA         -0.9750   -7.3810   39.2300 C.3       8 GLP5        0.0000 
     56 CA         -2.4760   -6.7685   42.6570 C.3       4 GLC5        0.0000 
     57 CA         -2.4550   -4.6020   42.7030 C.3       8 GLP5        0.0000 
     58 CA         -3.9955   -8.1300   43.7300 C.3       4 GLC5        0.0000 
     59 CA         -5.4940   -7.3250   44.8490 C.3       8 GLP5        0.0000 
     60 CA         -4.3095  -10.0720   43.4045 C.3       4 GLC5        0.0000 
     61 CA         -2.5530  -10.2150   44.5220 C.3      12 GLL5        0.0000 
     62 CA         -4.0235   -8.7700   44.6855 C.3       4 GLC5        0.0000 
     63 CA         -3.9035   -9.7740   46.2595 C.3       4 GLC5        0.0000 
     64 CA         -5.4630  -15.4573   45.5850 C.3       4 GLC5        0.0000 
     65 CA         -4.4490  -13.8870   46.6260 C.3      12 GLL5        0.0000 
     66 CA         -6.9060  -16.8660   45.1500 C.3       8 GLP5        0.0000 
     67 CA         -3.4145  -14.6798   43.3350 C.3       4 GLC5        0.0000 
     68 CA         -3.5910  -14.2100   45.4140 C.3      12 GLL5        0.0000 
     69 CA         -3.0300  -15.7120   41.7310 C.3       8 GLP5        0.0000 
     70 CA         -5.0747  -11.2108   43.6115 C.3       4 GLC5        0.0000 
     71 CA         -4.0070  -13.0850   44.4640 C.3      12 GLL5        0.0000 
     72 CA         -1.2763   -7.6800   45.8023 C.3       4 GLC5        0.0000 
     73 CA         -1.3760   -9.6610   44.9400 C.3      12 GLL5        0.0000 
     74 CA         -1.4760   -6.1730   47.0690 C.3       8 GLP5        0.0000 
     75 CA         -0.6074  -10.7855   43.9719 C.3       4 GLC5        0.0000 
@<TRIPOS>BOND
@<TRIPOS>SUBSTRUCTURE
     1 ALC1       26 GROUP        1 X    ALC  0     ROOT ALC X 1
     2 SEC2        4 GROUP        1 X    SEC  0     **** SEC X 2
     3 LYC4        1 GROUP        1 X    LYC  0     **** LYC X 4
     4 GLC5       23 GROUP        1 X    GLC  0     **** GLC X 6
     5 ALP1       28 GROUP        1 Y    ALP  0     ROOT ALP Y 8
     6 SEP2        6 GROUP        1 Y    SEP  0     **** SEP Y 9
     7 LYP4        3 GROUP        1 Y    LYP  0     **** LYP Y 11
     8 GLP5       25 GROUP        1 Y    GLP  0     **** GLP Y 13
     9 ALL1       27 GROUP        1 Z    ALL  0     ROOT ALL Z 15
    10 SEL2        5 GROUP        1 Z    SEL  0     **** SEL Z 16
    11 LYL4        2 GROUP        1 Z    LYL  0     **** LYL Z 18
    12 GLL5       24 GROUP        1 Z    GLL  0     **** GLL Z 20
@<TRIPOS>SET

