#    Name: 2gm3_AMP_3_ligand
#    Modification time : Tue Mar 25 14:41:54 2014

@<TRIPOS>MOLECULE
2gm3_AMP_3_ligand
   35    37     1     0     0
SMALL
NO_CHARGES


@<TRIPOS>ATOM
      1 P          -4.2780  -14.0850   50.5710 P.3       1 AMP176      0.0000 
      2 O1P        -5.4060  -13.8080   51.2890 O.co2     1 AMP176      0.0000 
      3 O2P        -3.1130  -13.2810   50.8500 O.co2     1 AMP176      0.0000 
      4 O3P        -3.8430  -15.4970   50.5710 O.co2     1 AMP176      0.0000 
      5 O5'        -4.5740  -13.7830   49.0230 O.3       1 AMP176      0.0000 
      6 C5'        -3.8500  -14.3820   47.9350 C.3       1 AMP176      0.0000 
      7 C4'        -4.4490  -13.8870   46.6260 C.3       1 AMP176      0.0000 
      8 O4'        -4.3700  -12.4410   46.7400 O.3       1 AMP176      0.0000 
      9 C3'        -3.5910  -14.2100   45.4140 C.3       1 AMP176      0.0000 
     10 O3'        -3.9420  -15.4810   44.8630 O.3       1 AMP176      0.0000 
     11 C2'        -4.0070  -13.0850   44.4640 C.3       1 AMP176      0.0000 
     12 O2'        -5.2830  -13.3490   43.8570 O.3       1 AMP176      0.0000 
     13 C1'        -4.1600  -11.9000   45.4080 C.3       1 AMP176      0.0000 
     14 N9         -2.9290  -11.0870   45.4410 N.pl3     1 AMP176      0.0000 
     15 C8         -2.0140  -11.0760   46.4250 C.2       1 AMP176      0.0000 
     16 N7         -1.0610  -10.2030   46.1120 N.2       1 AMP176      0.0000 
     17 C5         -1.3760   -9.6610   44.9400 C.ar      1 AMP176      0.0000 
     18 C6         -0.7770   -8.7130   44.1310 C.ar      1 AMP176      0.0000 
     19 N6          0.3860   -8.1760   44.4890 N.pl3     1 AMP176      0.0000 
     20 N1         -1.3780   -8.3610   42.9810 N.ar      1 AMP176      0.0000 
     21 C2         -2.4970   -8.9350   42.6110 C.ar      1 AMP176      0.0000 
     22 N3         -3.0750   -9.8450   43.3790 N.ar      1 AMP176      0.0000 
     23 C4         -2.5530  -10.2150   44.5220 C.ar      1 AMP176      0.0000 
     24 H          -3.9251  -15.4696   47.9535 H         1 AMP176      0.0000 
     25 H          -2.7959  -14.1040   47.9531 H         1 AMP176      0.0000 
     26 H          -5.4207  -14.2039   46.5066 H         1 AMP176      0.0000 
     27 H          -2.5884  -14.0882   45.6597 H         1 AMP176      0.0000 
     28 H          -3.2362  -12.8887   43.7946 H         1 AMP176      0.0000 
     29 H          -4.9927  -11.3175   45.1054 H         1 AMP176      0.0000 
     30 H          -2.0501  -11.6201   47.2303 H         1 AMP176      0.0000 
     31 H           0.7707   -8.4965   45.3546 H         1 AMP176      0.0000 
     32 H           0.7707   -7.5002   43.8603 H         1 AMP176      0.0000 
     33 H          -2.9468   -8.6724   41.6911 H         1 AMP176      0.0000 
     34 H          -3.4451  -16.1492   45.4168 H         1 AMP176      0.0000 
     35 H          -5.0726  -13.6049   42.9134 H         1 AMP176      0.0000 
@<TRIPOS>BOND
     1    2    1 ar   
     2    3    1 ar   
     3    4    1 ar   
     4    5    1 1    
     5    6    5 1    
     6    7    6 1    
     7   24    6 1    
     8   25    6 1    
     9    8    7 1    
    10    9    7 1    
    11   26    7 1    
    12   13    8 1    
    13   10    9 1    
    14   11    9 1    
    15   27    9 1    
    16   34   10 1    
    17   12   11 1    
    18   13   11 1    
    19   28   11 1    
    20   35   12 1    
    21   14   13 1    
    22   29   13 1    
    23   15   14 1    
    24   23   14 1    
    25   16   15 2    
    26   30   15 1    
    27   17   16 1    
    28   18   17 ar   
    29   23   17 ar   
    30   19   18 1    
    31   20   18 ar   
    32   31   19 1    
    33   32   19 1    
    34   21   20 ar   
    35   22   21 ar   
    36   33   21 1    
    37   23   22 ar   
@<TRIPOS>SUBSTRUCTURE
     1 AMP176      1 GROUP   
@<TRIPOS>SET

