#    Name: 2hru_ADP_1_INTS_M
#    Modification time : Tue Mar 25 16:57:09 2014

@<TRIPOS>MOLECULE
2hru_ADP_1_INTS_M
   47     0    15     0     0
SMALL
NO_CHARGES


@<TRIPOS>ATOM
      1 Zn         29.6350  -32.1375  126.6225 Zn        4 ZIC7        0.0000 
      2 Zn         29.6070  -31.9630  127.8210 Zn       14 ZIL7        0.0000 
      3 Zn         29.6630  -32.3120  125.4240 Zn        9 ZIP7        0.0000 
      4 Zn         27.2770  -33.1855  127.0190 Zn        4 ZIC7        0.0000 
      5 Zn         27.2630  -31.8200  126.7500 Zn       14 ZIL7        0.0000 
      6 Zn         27.2910  -34.5510  127.2880 Zn        9 ZIP7        0.0000 
      7 Zn         28.4630  -32.0660  126.0870 Zn        4 ZIC7        0.0000 
      8 Zn         26.9390  -30.7130  126.0420 Zn        4 ZIC7        0.0000 
      9 Zn         26.6150  -29.6060  125.3340 Zn        9 ZIP7        0.0000 
     10 NZ         27.8695  -33.3560  130.3320 N.4       3 LYC4        0.0000 
     11 NZ         27.5210  -32.7010  129.1400 N.4      13 LYL4        0.0000 
     12 NZ         28.2180  -34.0110  131.5240 N.4       8 LYP4        0.0000 
     13 Zn         27.4060  -33.6260  128.2140 Zn        4 ZIC7        0.0000 
     14 Zn         27.5210  -32.7010  129.1400 Zn       14 ZIL7        0.0000 
     15 N          27.8695  -33.3560  130.3320 N.am      2 SEC2        0.0000 
     16 N          27.5210  -32.7010  129.1400 N.am     12 SEL2        0.0000 
     17 N          28.2180  -34.0110  131.5240 N.am      7 SEP2        0.0000 
     18 NZ         27.1755  -32.4900  130.8650 N.4       3 LYC4        0.0000 
     19 NZ         26.1330  -30.9690  130.2060 N.4      13 LYL4        0.0000 
     20 N          24.8225  -30.5435  130.8395 N.am      2 SEC2        0.0000 
     21 N          26.1330  -30.9690  130.2060 N.am     12 SEL2        0.0000 
     22 N          23.5120  -30.1180  131.4730 N.am      7 SEP2        0.0000 
     23 O          31.2875  -26.6050  133.0040 O.2       1 ALC1        0.0000 
     24 O          30.5890  -26.9440  131.6760 O.2      11 ALL1        0.0000 
     25 O          31.9860  -26.2660  134.3320 O.2       6 ALP1        0.0000 
     26 N          29.4720  -29.5755  134.7205 N.am      2 SEC2        0.0000 
     27 N          29.7060  -28.9200  133.2650 N.am     12 SEL2        0.0000 
     28 N          29.2380  -30.2310  136.1760 N.am      7 SEP2        0.0000 
     29 CA         25.3875  -29.7290  135.4030 C.3       5 GLC5        0.0000 
     30 CA         26.0500  -27.8200  135.9130 C.3      15 GLL5        0.0000 
     31 CA         24.7250  -31.6380  134.8930 C.3      10 GLP5        0.0000 
     32 O          24.7930  -29.1220  139.1190 O.2       1 ALC1        0.0000 
     33 O          24.8390  -28.2720  137.8860 O.2      11 ALL1        0.0000 
     34 O          24.7470  -29.9720  140.3520 O.2       6 ALP1        0.0000 
     35 N          26.9155  -28.3550  139.3365 N.am      2 SEC2        0.0000 
     36 N          27.0610  -27.6290  138.0280 N.am     12 SEL2        0.0000 
     37 N          26.7700  -29.0810  140.6450 N.am      7 SEP2        0.0000 
     38 CA         29.2495  -27.2090  138.7655 C.3       5 GLC5        0.0000 
     39 CA         28.2030  -27.2890  137.4560 C.3      15 GLL5        0.0000 
     40 CA         30.2960  -27.1290  140.0750 C.3      10 GLP5        0.0000 
     41 CA         29.8610  -28.4110  137.0070 C.3       5 GLC5        0.0000 
     42 CA         31.5190  -29.5330  136.5580 C.3      10 GLP5        0.0000 
     43 CA         28.0630  -28.9710  137.0330 C.3       5 GLC5        0.0000 
     44 CA         27.9230  -30.6530  136.6100 C.3      10 GLP5        0.0000 
     45 CA         25.5000  -26.2486  135.5719 C.3       5 GLC5        0.0000 
     46 CA         24.3610  -24.8390  135.1710 C.3      10 GLP5        0.0000 
     47 CA         27.2810  -29.1556  136.2914 C.3       5 GLC5        0.0000 
@<TRIPOS>BOND
@<TRIPOS>SUBSTRUCTURE
     1 ALC1       23 GROUP        1 X    ALC  0     ROOT ALC X 1
     2 SEC2       15 GROUP        1 X    SEC  0     **** SEC X 2
     3 LYC4       10 GROUP        1 X    LYC  0     **** LYC X 4
     4 ZIC7        1 GROUP        1 X    ZIC  0     **** ZIC X 5
     5 GLC5       29 GROUP        1 X    GLC  0     **** GLC X 6
     6 ALP1       25 GROUP        1 Y    ALP  0     ROOT ALP Y 8
     7 SEP2       17 GROUP        1 Y    SEP  0     **** SEP Y 9
     8 LYP4       12 GROUP        1 Y    LYP  0     **** LYP Y 11
     9 ZIP7        3 GROUP        1 Y    ZIP  0     **** ZIP Y 12
    10 GLP5       31 GROUP        1 Y    GLP  0     **** GLP Y 13
    11 ALL1       24 GROUP        1 Z    ALL  0     ROOT ALL Z 15
    12 SEL2       16 GROUP        1 Z    SEL  0     **** SEL Z 16
    13 LYL4       11 GROUP        1 Z    LYL  0     **** LYL Z 18
    14 ZIL7        2 GROUP        1 Z    ZIL  0     **** ZIL Z 19
    15 GLL5       30 GROUP        1 Z    GLL  0     **** GLL Z 20
@<TRIPOS>SET

