#    Name: 2hru_ADP_1_ligand
#    Modification time : Tue Mar 25 16:57:10 2014

@<TRIPOS>MOLECULE
2hru_ADP_1_ligand
   39    41     1     0     0
SMALL
NO_CHARGES


@<TRIPOS>ATOM
      1 PB         28.1740  -31.6920  128.0700 P.3       1 ADP2005     0.0000 
      2 O1B        29.6070  -31.9630  127.8210 O.co2     1 ADP2005     0.0000 
      3 O2B        27.2630  -31.8200  126.7500 O.co2     1 ADP2005     0.0000 
      4 O3B        27.5210  -32.7010  129.1400 O.co2     1 ADP2005     0.0000 
      5 PA         26.5310  -29.8330  129.3390 P.3       1 ADP2005     0.0000 
      6 O1A        26.1330  -30.9690  130.2060 O.co2     1 ADP2005     0.0000 
      7 O2A        25.6010  -29.3860  128.2840 O.co2     1 ADP2005     0.0000 
      8 O3A        27.9230  -30.2030  128.6250 O.3       1 ADP2005     0.0000 
      9 O5'        26.9400  -28.5930  130.2770 O.3       1 ADP2005     0.0000 
     10 C5'        27.5010  -27.4110  129.7020 C.3       1 ADP2005     0.0000 
     11 C4'        28.3630  -26.6960  130.7440 C.3       1 ADP2005     0.0000 
     12 O4'        27.5370  -26.4320  131.8920 O.3       1 ADP2005     0.0000 
     13 C3'        29.4480  -27.6700  131.2120 C.3       1 ADP2005     0.0000 
     14 O3'        30.5890  -26.9440  131.6760 O.3       1 ADP2005     0.0000 
     15 C2'        28.7370  -28.3600  132.3760 C.3       1 ADP2005     0.0000 
     16 O2'        29.7060  -28.9200  133.2650 O.3       1 ADP2005     0.0000 
     17 C1'        28.1200  -27.1170  133.0110 C.3       1 ADP2005     0.0000 
     18 N9         27.0950  -27.4530  134.0320 N.pl3     1 ADP2005     0.0000 
     19 C8         25.8380  -27.7980  133.7750 C.2       1 ADP2005     0.0000 
     20 N7         25.1930  -28.0150  134.9220 N.2       1 ADP2005     0.0000 
     21 C5         26.0500  -27.8200  135.9130 C.ar      1 ADP2005     0.0000 
     22 C6         25.9740  -27.9010  137.2960 C.ar      1 ADP2005     0.0000 
     23 N6         24.8390  -28.2720  137.8860 N.pl3     1 ADP2005     0.0000 
     24 N1         27.0610  -27.6290  138.0280 N.ar      1 ADP2005     0.0000 
     25 C2         28.2030  -27.2890  137.4560 C.ar      1 ADP2005     0.0000 
     26 N3         28.3120  -27.1980  136.1430 N.ar      1 ADP2005     0.0000 
     27 C4         27.2660  -27.4560  135.3410 C.ar      1 ADP2005     0.0000 
     28 H          26.7259  -26.7113  129.3731 H         1 ADP2005     0.0000 
     29 H          28.1384  -27.6401  128.8419 H         1 ADP2005     0.0000 
     30 H          28.7940  -25.8454  130.3423 H         1 ADP2005     0.0000 
     31 H          29.6290  -28.3614  130.4617 H         1 ADP2005     0.0000 
     32 H          28.0095  -28.9719  132.0265 H         1 ADP2005     0.0000 
     33 H          28.9125  -26.5368  133.4310 H         1 ADP2005     0.0000 
     34 H          25.4433  -27.8810  132.8824 H         1 ADP2005     0.0000 
     35 H          24.9339  -28.7912  138.7354 H         1 ADP2005     0.0000 
     36 H          23.9942  -27.9979  137.4265 H         1 ADP2005     0.0000 
     37 H          29.0476  -27.0855  138.0633 H         1 ADP2005     0.0000 
     38 H          30.8769  -27.4187  132.5078 H         1 ADP2005     0.0000 
     39 H          30.0828  -29.7061  132.7750 H         1 ADP2005     0.0000 
@<TRIPOS>BOND
     1    2    1 ar   
     2    3    1 ar   
     3    4    1 ar   
     4    8    1 1    
     5    6    5 ar   
     6    7    5 ar   
     7    8    5 1    
     8    9    5 1    
     9   10    9 1    
    10   11   10 1    
    11   28   10 1    
    12   29   10 1    
    13   12   11 1    
    14   13   11 1    
    15   30   11 1    
    16   17   12 1    
    17   14   13 1    
    18   15   13 1    
    19   31   13 1    
    20   38   14 1    
    21   16   15 1    
    22   17   15 1    
    23   32   15 1    
    24   39   16 1    
    25   18   17 1    
    26   33   17 1    
    27   19   18 1    
    28   27   18 1    
    29   20   19 2    
    30   34   19 1    
    31   21   20 1    
    32   22   21 ar   
    33   27   21 ar   
    34   23   22 1    
    35   24   22 ar   
    36   35   23 1    
    37   36   23 1    
    38   25   24 ar   
    39   26   25 ar   
    40   37   25 1    
    41   27   26 ar   
@<TRIPOS>SUBSTRUCTURE
     1 ADP2005     1 GROUP   
@<TRIPOS>SET

