#    Name: 1glf_ADP_3_INTS_M
#    Modification time : Tue Mar 25 03:19:31 2014

@<TRIPOS>MOLECULE
1glf_ADP_3_INTS_M
   52     0    12     0     0
SMALL
NO_CHARGES


@<TRIPOS>ATOM
      1 N          -4.1480   -8.4340   -1.7010 N.am      2 SEC2        0.0000 
      2 N          -3.6100   -7.7400   -3.2010 N.am     10 SEL2        0.0000 
      3 N          -4.6860   -9.1280   -0.2010 N.am      6 SEP2        0.0000 
      4 N          -3.4040   -7.0185   -2.0385 N.am      2 SEC2        0.0000 
      5 N          -3.1980   -6.2970   -0.8760 N.am      6 SEP2        0.0000 
      6 NZ         -2.5155   -9.3225   -6.3635 N.4       3 LYC4        0.0000 
      7 NZ         -3.0590   -8.0620   -5.4980 N.4      11 LYL4        0.0000 
      8 NZ         -1.1780   -9.6650   -7.7330 N.4       7 LYP4        0.0000 
      9 N          -2.2875   -8.2155   -6.5465 N.am      2 SEC2        0.0000 
     10 N          -3.0590   -8.0620   -5.4980 N.am     10 SEL2        0.0000 
     11 N          -1.5160   -8.3690   -7.5950 N.am      6 SEP2        0.0000 
     12 N          -2.5155   -9.3225   -6.3635 N.am      2 SEC2        0.0000 
     13 N          -1.9720  -10.5830   -7.2290 N.am      6 SEP2        0.0000 
     14 N          -1.8430  -13.4180   -2.7065 N.am      2 SEC2        0.0000 
     15 N          -2.2750  -12.2770   -3.3940 N.am     10 SEL2        0.0000 
     16 N          -1.4110  -14.5590   -2.0190 N.am      6 SEP2        0.0000 
     17 CA         -0.2310  -12.0560   -1.4215 C.3       4 GLC5        0.0000 
     18 CA         -0.4120   -9.9060   -1.2250 C.3      12 GLL5        0.0000 
     19 CA         -0.0500  -14.2060   -1.6180 C.3       8 GLP5        0.0000 
     20 CA          3.2205   -9.2825    2.8955 C.3       4 GLC5        0.0000 
     21 CA          1.2720   -9.2520    1.7820 C.3      12 GLL5        0.0000 
     22 CA          5.1690   -9.3130    4.0090 C.3       8 GLP5        0.0000 
     23 O           0.0060   -7.8975    3.7150 O.2       1 ALC1        0.0000 
     24 O           1.1710   -8.3270    2.8440 O.2       9 ALL1        0.0000 
     25 O          -1.1590   -7.4680    4.5860 O.2       5 ALP1        0.0000 
     26 CA         -0.0875  -12.3435    2.5715 C.3       4 GLC5        0.0000 
     27 CA          0.8620  -10.6950    2.0380 C.3      12 GLL5        0.0000 
     28 CA         -1.0370  -13.9920    3.1050 C.3       8 GLP5        0.0000 
     29 CA          5.5345  -13.3475    4.7085 C.3       4 GLC5        0.0000 
     30 CA          3.4380  -13.8960    4.4380 C.3      12 GLL5        0.0000 
     31 CA          7.6310  -12.7990    4.9790 C.3       8 GLP5        0.0000 
     32 CA          2.7450  -15.3990    5.4955 C.3       4 GLC5        0.0000 
     33 CA          2.0520  -16.9020    6.5530 C.3       8 GLP5        0.0000 
     34 N           2.9780  -14.5770    6.7855 N.am      2 SEC2        0.0000 
     35 N           2.6760  -13.6630    5.5150 N.am     10 SEL2        0.0000 
     36 N           3.2800  -15.4910    8.0560 N.am      6 SEP2        0.0000 
     37 CA          1.1790  -11.1840    6.5365 C.3       4 GLC5        0.0000 
     38 CA          1.6670  -12.7510    5.4130 C.3      12 GLL5        0.0000 
     39 CA          0.6910   -9.6170    7.6600 C.3       8 GLP5        0.0000 
     40 CA          0.3150  -13.3715    4.2590 C.3       4 GLC5        0.0000 
     41 CA          1.8595  -14.8265    5.9830 C.3       4 GLC5        0.0000 
     42 CA          0.5140  -13.1135    3.2195 C.3       4 GLC5        0.0000 
     43 CA          2.0650  -12.2350    3.3340 C.3      12 GLL5        0.0000 
     44 CA         -2.4755  -10.6917   -0.3475 C.3       4 GLC5        0.0000 
     45 CA         -0.5840   -9.8350    0.2970 C.3      12 GLL5        0.0000 
     46 CA         -4.4530  -11.5130   -0.2310 C.3       8 GLP5        0.0000 
     47 CA          3.8795  -11.0073    3.6568 C.3       4 GLC5        0.0000 
     48 CA          1.4992  -14.1700    2.9733 C.3       4 GLC5        0.0000 
     49 CA          3.1150  -13.1680    3.2750 C.3      12 GLL5        0.0000 
     50 CA         -0.2780  -14.8080    2.0900 C.3       8 GLP5        0.0000 
     51 CA         -1.0255   -9.4470    2.4936 C.3       4 GLC5        0.0000 
     52 CA         -2.4850   -9.2810    3.7460 C.3       8 GLP5        0.0000 
@<TRIPOS>BOND
@<TRIPOS>SUBSTRUCTURE
     1 ALC1       23 GROUP        1 X    ALC  0     ROOT ALC X 1
     2 SEC2        1 GROUP        1 X    SEC  0     **** SEC X 2
     3 LYC4        6 GROUP        1 X    LYC  0     **** LYC X 4
     4 GLC5       17 GROUP        1 X    GLC  0     **** GLC X 6
     5 ALP1       25 GROUP        1 Y    ALP  0     ROOT ALP Y 8
     6 SEP2        3 GROUP        1 Y    SEP  0     **** SEP Y 9
     7 LYP4        8 GROUP        1 Y    LYP  0     **** LYP Y 11
     8 GLP5       19 GROUP        1 Y    GLP  0     **** GLP Y 13
     9 ALL1       24 GROUP        1 Z    ALL  0     ROOT ALL Z 15
    10 SEL2        2 GROUP        1 Z    SEL  0     **** SEL Z 16
    11 LYL4        7 GROUP        1 Z    LYL  0     **** LYL Z 18
    12 GLL5       18 GROUP        1 Z    GLL  0     **** GLL Z 20
@<TRIPOS>SET

