#    Name: 1glf_ADP_3_ligand
#    Modification time : Tue Mar 25 03:19:31 2014

@<TRIPOS>MOLECULE
1glf_ADP_3_ligand
   39    41     1     0     0
SMALL
NO_CHARGES


@<TRIPOS>ATOM
      1 PB         -3.1720   -8.7590   -4.1920 P.3       1 ADP608      0.0000 
      2 O1B        -3.6100   -7.7400   -3.2010 O.co2     1 ADP608      0.0000 
      3 O2B        -4.1890   -9.8530   -4.3130 O.co2     1 ADP608      0.0000 
      4 O3B        -3.0590   -8.0620   -5.4980 O.co2     1 ADP608      0.0000 
      5 PA         -1.5970  -10.9450   -3.4210 P.3       1 ADP608      0.0000 
      6 O1A        -0.1640  -10.9270   -3.9610 O.co2     1 ADP608      0.0000 
      7 O2A        -2.2750  -12.2770   -3.3940 O.co2     1 ADP608      0.0000 
      8 O3A        -1.6960   -9.3300   -3.7420 O.3       1 ADP608      0.0000 
      9 O5'        -1.6120  -10.3650   -1.9120 O.3       1 ADP608      0.0000 
     10 C5'        -0.4120   -9.9060   -1.2250 C.3       1 ADP608      0.0000 
     11 C4'        -0.5840   -9.8350    0.2970 C.3       1 ADP608      0.0000 
     12 O4'        -0.1440  -11.0330    1.0490 O.3       1 ADP608      0.0000 
     13 C3'         0.1860   -8.6700    0.8480 C.3       1 ADP608      0.0000 
     14 O3'        -0.7630   -7.8310    1.4580 O.3       1 ADP608      0.0000 
     15 C2'         1.2720   -9.2520    1.7820 C.3       1 ADP608      0.0000 
     16 O2'         1.1710   -8.3270    2.8440 O.3       1 ADP608      0.0000 
     17 C1'         0.8620  -10.6950    2.0380 C.3       1 ADP608      0.0000 
     18 N9          1.9970  -11.6560    2.0790 N.pl3     1 ADP608      0.0000 
     19 C8          2.9960  -12.2850    1.3760 C.2       1 ADP608      0.0000 
     20 N7          3.6980  -13.1900    2.0550 N.2       1 ADP608      0.0000 
     21 C5          3.1150  -13.1680    3.2750 C.ar      1 ADP608      0.0000 
     22 C6          3.4380  -13.8960    4.4380 C.ar      1 ADP608      0.0000 
     23 N6          4.4320  -14.7980    4.5150 N.pl3     1 ADP608      0.0000 
     24 N1          2.6760  -13.6630    5.5150 N.ar      1 ADP608      0.0000 
     25 C2          1.6670  -12.7510    5.4130 C.ar      1 ADP608      0.0000 
     26 N3          1.2460  -11.9900    4.3760 N.ar      1 ADP608      0.0000 
     27 C4          2.0650  -12.2350    3.3340 C.ar      1 ADP608      0.0000 
     28 H          -0.1180   -8.9004   -1.5782 H         1 ADP608      0.0000 
     29 H           0.4418  -10.5757   -1.4368 H         1 ADP608      0.0000 
     30 H          -1.6430   -9.6474    0.5140 H         1 ADP608      0.0000 
     31 H           0.6813   -8.1962    0.0129 H         1 ADP608      0.0000 
     32 H           2.1747   -9.1905    1.2495 H         1 ADP608      0.0000 
     33 H           0.3645  -10.6955    3.0374 H         1 ADP608      0.0000 
     34 H           3.1704  -12.0599    0.4048 H         1 ADP608      0.0000 
     35 H           4.5452  -15.2537    5.3979 H         1 ADP608      0.0000 
     36 H           4.9694  -14.9327    3.6825 H         1 ADP608      0.0000 
     37 H           1.0843  -12.6088    6.3591 H         1 ADP608      0.0000 
     38 H          -0.5668   -6.9172    1.1025 H         1 ADP608      0.0000 
     39 H           0.2429   -7.9602    2.7802 H         1 ADP608      0.0000 
@<TRIPOS>BOND
     1    2    1 ar   
     2    3    1 ar   
     3    4    1 ar   
     4    8    1 1    
     5    6    5 ar   
     6    7    5 ar   
     7    8    5 1    
     8    9    5 1    
     9   10    9 1    
    10   11   10 1    
    11   28   10 1    
    12   29   10 1    
    13   12   11 1    
    14   13   11 1    
    15   30   11 1    
    16   17   12 1    
    17   14   13 1    
    18   15   13 1    
    19   31   13 1    
    20   38   14 1    
    21   16   15 1    
    22   17   15 1    
    23   32   15 1    
    24   39   16 1    
    25   18   17 1    
    26   33   17 1    
    27   19   18 1    
    28   27   18 1    
    29   20   19 2    
    30   34   19 1    
    31   21   20 1    
    32   22   21 ar   
    33   27   21 ar   
    34   23   22 1    
    35   24   22 ar   
    36   35   23 1    
    37   36   23 1    
    38   25   24 ar   
    39   26   25 ar   
    40   37   25 1    
    41   27   26 ar   
@<TRIPOS>SUBSTRUCTURE
     1 ADP608      1 GROUP   
@<TRIPOS>SET

