#    Name: 4F97_1_CAVITY_N1_ALL.mol2
#    Modification time : Mon Mar 10 18:59:52 2014

@<TRIPOS>MOLECULE
4F97_1_CAVITY_N1_ALL.mol2
   83     0     6     0     0
SMALL
NO_CHARGES


@<TRIPOS>ATOM
      1 O           9.8428   -5.8948    1.3364 O.2       2 ALA2        0.0000 
      2 O          10.3651   -6.9113    2.3078 O.2       2 ALA2        0.0000 
      3 CZ         10.8874   -7.9279    3.2793 C.ar      4 PHE5        0.0000 
      4 OG         11.4097   -8.9445    4.2507 O.2       1 SER1        0.0000 
      5 NZ         10.4819   -6.6462    0.2064 N.2       3 LYS4        0.0000 
      6 DU         11.0042   -7.6628    1.1778 H         6 CUB7        0.0000 
      7 O          11.5266   -8.6794    2.1493 O.2       2 ALA2        0.0000 
      8 CZ         12.0489   -9.6959    3.1208 C.ar      4 PHE5        0.0000 
      9 NZ         11.1210   -7.3976   -0.9236 N.2       3 LYS4        0.0000 
     10 DU         11.6434   -8.4142    0.0479 H         6 CUB7        0.0000 
     11 NZ         12.1657   -9.4308    1.0193 N.2       3 LYS4        0.0000 
     12 NZ         12.6880  -10.4474    1.9908 N.2       3 LYS4        0.0000 
     13 DU         11.7602   -8.1491   -2.0536 H         6 CUB7        0.0000 
     14 DU         12.2825   -9.1656   -1.0821 H         6 CUB7        0.0000 
     15 NZ         12.8048  -10.1822   -0.1107 N.2       3 LYS4        0.0000 
     16 NZ         13.3272  -11.1988    0.8608 N.2       3 LYS4        0.0000 
     17 NZ         11.6176   -6.1039    2.4793 N.2       3 LYS4        0.0000 
     18 CZ         12.1399   -7.1205    3.4508 C.ar      4 PHE5        0.0000 
     19 NZ         12.2567   -6.8554    1.3493 N.2       3 LYS4        0.0000 
     20 NZ         12.7790   -7.8720    2.3208 N.2       3 LYS4        0.0000 
     21 NZ         13.3014   -8.8885    3.2923 N.2       3 LYS4        0.0000 
     22 O           7.2468  -10.0850    0.6633 O.2       2 ALA2        0.0000 
     23 NZ         15.4918   -3.4166    0.8924 N.2       3 LYS4        0.0000 
     24 NZ         15.6086   -3.1514   -1.2091 N.2       3 LYS4        0.0000 
     25 CZ         16.1309   -4.1680   -0.2376 C.ar      4 PHE5        0.0000 
     26 CZ         16.6532   -5.1846    0.7338 C.ar      4 PHE5        0.0000 
     27 O          16.7701   -4.9194   -1.3676 O.2       2 ALA2        0.0000 
     28 CA         17.4092   -5.6709   -2.4976 C.3       5 GLY6        0.0000 
     29 NZ         13.4834   -3.7377    3.9523 N.2       3 LYS4        0.0000 
     30 NZ         13.6002   -3.4725    1.8508 N.2       3 LYS4        0.0000 
     31 N          14.1225   -4.4891    2.8223 N.2       2 ALA2        0.0000 
     32 N          14.6448   -5.5057    3.7938 N.2       2 ALA2        0.0000 
     33 N          14.7616   -5.2405    1.6923 N.2       2 ALA2        0.0000 
     34 N          15.2840   -6.2571    2.6638 N.2       2 ALA2        0.0000 
     35 NZ         14.3561   -3.9588   -1.3806 N.2       3 LYS4        0.0000 
     36 NZ         14.8785   -4.9754   -0.4091 N.2       3 LYS4        0.0000 
     37 CA         15.4008   -5.9920    0.5623 C.3       5 GLY6        0.0000 
     38 CA         14.4729   -3.6937   -3.4820 C.3       5 GLY6        0.0000 
     39 CA         14.9953   -4.7102   -2.5106 C.3       5 GLY6        0.0000 
     40 O          15.5176   -5.7268   -1.5391 O.2       2 ALA2        0.0000 
     41 O          16.0399   -6.7434   -0.5676 O.2       2 ALA2        0.0000 
     42 CA         15.6344   -5.4617   -3.6405 C.3       5 GLY6        0.0000 
     43 O          16.1567   -6.4783   -2.6691 O.2       2 ALA2        0.0000 
     44 O           7.9770   -8.2610   -0.1366 O.2       2 ALA2        0.0000 
     45 O           8.4993   -9.2776    0.8348 O.2       2 ALA2        0.0000 
     46 O           9.0216  -10.2942    1.8063 O.2       2 ALA2        0.0000 
     47 DU          9.1384  -10.0290   -0.2951 H         6 CUB7        0.0000 
     48 DU          9.6608  -11.0456    0.6763 H         6 CUB7        0.0000 
     49 O           9.1126   -7.7188    2.1363 O.2       2 ALA2        0.0000 
     50 CA          8.7071   -6.4370   -0.9366 C.3       5 GLY6        0.0000 
     51 O           9.2294   -7.4536    0.0349 O.2       2 ALA2        0.0000 
     52 O           9.7518   -8.4702    1.0063 O.2       2 ALA2        0.0000 
     53 O          10.2741   -9.4868    1.9778 O.2       2 ALA2        0.0000 
     54 O          10.7964  -10.5034    2.9493 O.2       2 ALA2        0.0000 
     55 DU          9.8686   -8.2050   -1.0951 H         6 CUB7        0.0000 
     56 DU         10.3909   -9.2216   -0.1236 H         6 CUB7        0.0000 
     57 DU         10.9132  -10.2382    0.8478 H         6 CUB7        0.0000 
     58 O          11.4356  -11.2548    1.8193 O.2       2 ALA2        0.0000 
     59 DU         11.5524  -10.9896   -0.2822 H         6 CUB7        0.0000 
     60 NZ         12.3735   -6.5902   -0.7521 N.2       3 LYS4        0.0000 
     61 NZ         12.8958   -7.6068    0.2194 N.2       3 LYS4        0.0000 
     62 NZ         13.4182   -8.6234    1.1908 N.2       3 LYS4        0.0000 
     63 NZ         13.0127   -7.3417   -1.8821 N.2       3 LYS4        0.0000 
     64 DU         13.5350   -8.3582   -0.9106 H         6 CUB7        0.0000 
     65 NZ         14.0573   -9.3748    0.0608 N.2       3 LYS4        0.0000 
     66 DU         14.1741   -9.1097   -2.0406 H         6 CUB7        0.0000 
     67 NZ         14.6964  -10.1262   -1.0691 N.2       3 LYS4        0.0000 
     68 NZ         12.2309   -4.5451    3.7808 N.2       3 LYS4        0.0000 
     69 NZ         12.8700   -5.2965    2.6508 N.2       3 LYS4        0.0000 
     70 CA         13.3924   -6.3131    3.6223 C.3       5 GLY6        0.0000 
     71 NZ         13.5092   -6.0480    1.5208 N.2       3 LYS4        0.0000 
     72 CA         14.0315   -7.0645    2.4923 C.3       5 GLY6        0.0000 
     73 CA         14.5538   -8.0811    3.4638 C.3       5 GLY6        0.0000 
     74 NZ         14.1483   -6.7994    0.3909 N.2       3 LYS4        0.0000 
     75 NZ         14.6706   -7.8160    1.3623 N.2       3 LYS4        0.0000 
     76 N          13.2205   -4.5011   -3.6535 N.2       2 ALA2        0.0000 
     77 NZ         13.7428   -5.5177   -2.6820 N.2       3 LYS4        0.0000 
     78 NZ         14.2651   -6.5342   -1.7106 N.2       3 LYS4        0.0000 
     79 O          14.7875   -7.5508   -0.7391 O.2       2 ALA2        0.0000 
     80 NZ         15.3098   -8.5674    0.2323 N.2       3 LYS4        0.0000 
     81 DU         14.9043   -7.2857   -2.8406 H         6 CUB7        0.0000 
     82 O          15.4266   -8.3023   -1.8691 O.2       2 ALA2        0.0000 
     83 O          15.9489   -9.3188   -0.8976 O.2       2 ALA2        0.0000 
@<TRIPOS>BOND
@<TRIPOS>SUBSTRUCTURE
     1 SER1        4 GROUP   
     2 ALA2        1 GROUP   
     3 LYS4        5 GROUP   
     4 PHE5        3 GROUP   
     5 GLY6       28 GROUP   
     6 CUB7        6 GROUP   
@<TRIPOS>SET

