#    Name: 4f97_VDO_1_INTS_M
#    Modification time : Mon Mar 24 19:05:44 2014

@<TRIPOS>MOLECULE
4f97_VDO_1_INTS_M
   74     0    15     0     0
SMALL
NO_CHARGES


@<TRIPOS>ATOM
      1 NZ          7.0315   -9.6295    2.7235 N.4       4 LYC4        0.0000 
      2 NZ          5.9820   -9.8070    1.4470 N.4      14 LYL4        0.0000 
      3 NZ          7.0030   -9.3610    4.7630 N.4       9 LYP4        0.0000 
      4 N           5.6395   -8.5955    1.0165 N.am      2 SEC2        0.0000 
      5 N           5.9820   -9.8070    1.4470 N.am     12 SEL2        0.0000 
      6 N           5.2970   -7.3840    0.5860 N.am      7 SEP2        0.0000 
      7 N           5.9195   -9.8475    2.9025 N.am      2 SEC2        0.0000 
      8 N           5.8570   -9.8880    4.3580 N.am      7 SEP2        0.0000 
      9 N           7.0315   -9.6295    2.7235 N.am      2 SEC2        0.0000 
     10 N           8.0810   -9.4520    4.0000 N.am      7 SEP2        0.0000 
     11 NZ          8.0830  -10.3135    2.8690 N.4       4 LYC4        0.0000 
     12 NZ          8.0850  -11.1750    1.7380 N.4      14 LYL4        0.0000 
     13 N           8.0830  -10.3135    2.8690 N.am      2 SEC2        0.0000 
     14 N           8.0850  -11.1750    1.7380 N.am     12 SEL2        0.0000 
     15 N           6.7465   -8.0640    0.9935 N.am      2 SEC2        0.0000 
     16 N           8.1960   -8.7440    1.4010 N.am     12 SEL2        0.0000 
     17 CA          7.7760   -6.4205    0.3065 C.3       5 GLC5        0.0000 
     18 CA          8.8780   -7.9670    0.4210 C.3      15 GLL5        0.0000 
     19 CA          6.6740   -4.8740    0.1920 C.3      10 GLP5        0.0000 
     20 O          14.1435  -10.4720    2.1350 O.2       1 ALC1        0.0000 
     21 O          12.7750  -10.3830    2.1380 O.2      11 ALL1        0.0000 
     22 O          15.5120  -10.5610    2.1320 O.2       6 ALP1        0.0000 
     23 CA         11.7405   -7.6355    4.6235 C.3       5 GLC5        0.0000 
     24 CA         12.4700   -8.0880    2.8260 C.3      15 GLL5        0.0000 
     25 CA         11.0110   -7.1830    6.4210 C.3      10 GLP5        0.0000 
     26 CA         12.7770   -9.4760    4.3170 C.3       5 GLC5        0.0000 
     27 CA         13.0840  -10.8640    5.8080 C.3      10 GLP5        0.0000 
     28 CA         13.5505   -7.5215    4.4800 C.3       5 GLC5        0.0000 
     29 CA         14.6310   -6.9550    6.1340 C.3      10 GLP5        0.0000 
     30 O          14.6780   -9.2710    2.6695 O.2       1 ALC1        0.0000 
     31 O          13.8440   -7.9810    3.2070 O.2      11 ALL1        0.0000 
     32 OD1        11.8915   -4.4720    1.6005 O.co2     3 ASC3        0.0000 
     33 OD1        12.8080   -6.0430    1.4840 O.co2    13 ASL3        0.0000 
     34 OD1        10.9750   -2.9010    1.7170 O.co2     8 ASP3        0.0000 
     35 OD1        12.4300   -5.0255    0.6680 O.co2     3 ASC3        0.0000 
     36 OD1        12.0520   -4.0080   -0.1480 O.co2     8 ASP3        0.0000 
     37 O          11.8970   -3.5405    2.5150 O.2       1 ALC1        0.0000 
     38 O          12.8190   -4.1800    3.3130 O.2      11 ALL1        0.0000 
     39 O          10.9750   -2.9010    1.7170 O.2       6 ALP1        0.0000 
     40 CA         15.7080   -2.5200    3.7315 C.3       5 GLC5        0.0000 
     41 CA         14.4640   -3.0810    1.9580 C.3      15 GLL5        0.0000 
     42 CA         16.9520   -1.9590    5.5050 C.3      10 GLP5        0.0000 
     43 N          15.9300   -1.3585    3.1715 N.am      2 SEC2        0.0000 
     44 N          14.5980   -1.9980    2.8830 N.am     12 SEL2        0.0000 
     45 N          17.2620   -0.7190    3.4600 N.am      7 SEP2        0.0000 
     46 N          15.3240   -0.6745    2.0375 N.am      2 SEC2        0.0000 
     47 N          16.0500    0.6490    1.1920 N.am      7 SEP2        0.0000 
     48 O          13.6875   -1.2270    3.4605 O.2       1 ALC1        0.0000 
     49 O          14.5980   -1.9980    2.8830 O.2      11 ALL1        0.0000 
     50 O          12.7770   -0.4560    4.0380 O.2       6 ALP1        0.0000 
     51 CA         17.2170   -1.8895    1.3280 C.3       5 GLC5        0.0000 
     52 CA         15.7690   -3.2260    1.1870 C.3      15 GLL5        0.0000 
     53 CA         18.6650   -0.5530    1.4690 C.3      10 GLP5        0.0000 
     54 N          15.9950   -0.7155    0.7690 N.am      2 SEC2        0.0000 
     55 N          15.9400   -2.0800    0.3460 N.am     12 SEL2        0.0000 
     56 O          14.9025   -1.6725   -0.4610 O.2       1 ALC1        0.0000 
     57 O          15.9400   -2.0800    0.3460 O.2      11 ALL1        0.0000 
     58 O          13.8650   -1.2650   -1.2680 O.2       6 ALP1        0.0000 
     59 CA         16.4950   -2.9775   -2.1900 C.3       5 GLC5        0.0000 
     60 CA         16.5630   -4.4810   -0.9370 C.3      15 GLL5        0.0000 
     61 CA         16.4270   -1.4740   -3.4430 C.3      10 GLP5        0.0000 
     62 N          17.5165   -6.8835   -0.6060 N.am      2 SEC2        0.0000 
     63 N          16.8700   -5.8260   -1.3120 N.am     12 SEL2        0.0000 
     64 N          18.1630   -7.9410    0.1000 N.am      7 SEP2        0.0000 
     65 CA         10.9810   -6.3355    4.0482 C.3       5 GLC5        0.0000 
     66 CA         11.9310   -6.7140    2.4310 C.3      15 GLL5        0.0000 
     67 CA         10.7430   -5.9100    5.9350 C.3      10 GLP5        0.0000 
     68 CA         14.3807   -5.9742    4.2220 C.3       5 GLC5        0.0000 
     69 CA         14.1450   -5.6370    1.8910 C.3      15 GLL5        0.0000 
     70 CA         16.3801   -6.3405    1.6830 C.3       5 GLC5        0.0000 
     71 CA         15.7650   -4.4680    0.3460 C.3      15 GLL5        0.0000 
     72 CA         17.5710   -7.6460    2.5450 C.3      10 GLP5        0.0000 
     73 CA         17.8270   -4.4195    0.6879 C.3       5 GLC5        0.0000 
     74 CA         19.4890   -4.6750    1.4610 C.3      10 GLP5        0.0000 
@<TRIPOS>BOND
@<TRIPOS>SUBSTRUCTURE
     1 ALC1       20 GROUP        1 X    ALC  0     ROOT ALC X 1
     2 SEC2        4 GROUP        1 X    SEC  0     **** SEC X 2
     3 ASC3       32 GROUP        1 X    ASC  0     **** ASC X 3
     4 LYC4        1 GROUP        1 X    LYC  0     **** LYC X 4
     5 GLC5       17 GROUP        1 X    GLC  0     **** GLC X 6
     6 ALP1       22 GROUP        1 Y    ALP  0     ROOT ALP Y 8
     7 SEP2        6 GROUP        1 Y    SEP  0     **** SEP Y 9
     8 ASP3       34 GROUP        1 Y    ASP  0     **** ASP Y 10
     9 LYP4        3 GROUP        1 Y    LYP  0     **** LYP Y 11
    10 GLP5       19 GROUP        1 Y    GLP  0     **** GLP Y 13
    11 ALL1       21 GROUP        1 Z    ALL  0     ROOT ALL Z 15
    12 SEL2        5 GROUP        1 Z    SEL  0     **** SEL Z 16
    13 ASL3       33 GROUP        1 Z    ASL  0     **** ASL Z 17
    14 LYL4        2 GROUP        1 Z    LYL  0     **** LYL Z 18
    15 GLL5       18 GROUP        1 Z    GLL  0     **** GLL Z 20
@<TRIPOS>SET

