#    Name: 4f97_VDO_1_ligand
#    Modification time : Mon Mar 24 19:05:44 2014

@<TRIPOS>MOLECULE
4f97_VDO_1_ligand
   50    51     1     0     0
SMALL
NO_CHARGES


@<TRIPOS>ATOM
      1 OAY         5.9820   -9.8070    1.4470 O.co2     1 VDO502      0.0000 
      2 PBA         7.3900  -10.0710    0.9830 P.3       1 VDO502      0.0000 
      3 OAZ         8.0850  -11.1750    1.7380 O.co2     1 VDO502      0.0000 
      4 OAX         7.5480  -10.1290   -0.5140 O.co2     1 VDO502      0.0000 
      5 OAW         8.1960   -8.7440    1.4010 O.3       1 VDO502      0.0000 
      6 CAG         8.8780   -7.9670    0.4210 C.3       1 VDO502      0.0000 
      7 CAF        10.3500   -7.8560    0.7960 C.3       1 VDO502      0.0000 
      8 CAV        10.5070   -6.8080    1.8920 C.3       1 VDO502      0.0000 
      9 CAE        10.8880   -9.2080    1.2370 C.3       1 VDO502      0.0000 
     10 OAU        10.8140  -10.1300    0.1470 O.3       1 VDO502      0.0000 
     11 CAC        12.3340   -9.0970    1.6930 C.3       1 VDO502      0.0000 
     12 OAP        12.7750  -10.3830    2.1380 O.3       1 VDO502      0.0000 
     13 CAB        12.4700   -8.0880    2.8260 C.3       1 VDO502      0.0000 
     14 OAO        13.8440   -7.9810    3.2070 O.3       1 VDO502      0.0000 
     15 CAA        11.9310   -6.7140    2.4310 C.3       1 VDO502      0.0000 
     16 NAN        12.8080   -6.0430    1.4840 N.4       1 VDO502      0.0000 
     17 CAM        14.1450   -5.6370    1.8910 C.3       1 VDO502      0.0000 
     18 CAL        15.0820   -5.5670    0.7010 C.2       1 VDO502      0.0000 
     19 CAJ        14.1160   -4.3500    2.7290 C.3       1 VDO502      0.0000 
     20 OAT        12.8190   -4.1800    3.3130 O.3       1 VDO502      0.0000 
     21 CAI        14.4640   -3.0810    1.9580 C.3       1 VDO502      0.0000 
     22 OAS        14.5980   -1.9980    2.8830 O.3       1 VDO502      0.0000 
     23 CAH        15.7690   -3.2260    1.1870 C.3       1 VDO502      0.0000 
     24 OAR        15.9400   -2.0800    0.3460 O.3       1 VDO502      0.0000 
     25 CAK        15.7650   -4.4680    0.3460 C.2       1 VDO502      0.0000 
     26 CAD        16.5630   -4.4810   -0.9370 C.3       1 VDO502      0.0000 
     27 OAQ        16.8700   -5.8260   -1.3120 O.3       1 VDO502      0.0000 
     28 H           8.4718   -6.9516    0.3513 H         1 VDO502      0.0000 
     29 H           8.8184   -8.4226   -0.5739 H         1 VDO502      0.0000 
     30 H          10.8983   -7.5258   -0.0764 H         1 VDO502      0.0000 
     31 H           9.8258   -7.0498    2.7201 H         1 VDO502      0.0000 
     32 H          10.2084   -5.8270    1.4960 H         1 VDO502      0.0000 
     33 H          10.2956   -9.5546    2.0721 H         1 VDO502      0.0000 
     34 H          12.9270   -8.7554    0.8585 H         1 VDO502      0.0000 
     35 H          11.8746   -8.4491    3.6659 H         1 VDO502      0.0000 
     36 H          11.8798   -6.1115    3.3611 H         1 VDO502      0.0000 
     37 H          14.5517   -6.4369    2.5680 H         1 VDO502      0.0000 
     38 H          15.1527   -6.4667    0.1687 H         1 VDO502      0.0000 
     39 H          14.8581   -4.4617    3.5332 H         1 VDO502      0.0000 
     40 H          13.6711   -2.8816    1.2528 H         1 VDO502      0.0000 
     41 H          16.5761   -3.2919    1.9050 H         1 VDO502      0.0000 
     42 H          17.4761   -3.8901   -0.7783 H         1 VDO502      0.0000 
     43 H          15.9727   -3.9727   -1.7125 H         1 VDO502      0.0000 
     44 H           9.8396  -10.2001   -0.0668 H         1 VDO502      0.0000 
     45 H          13.7714  -10.3572    2.0568 H         1 VDO502      0.0000 
     46 H          14.2844   -8.7896    2.8168 H         1 VDO502      0.0000 
     47 H          12.2744   -3.7281    2.6065 H         1 VDO502      0.0000 
     48 H          13.6606   -1.7256    3.0999 H         1 VDO502      0.0000 
     49 H          15.0583   -1.9601   -0.1102 H         1 VDO502      0.0000 
     50 H          15.9881   -6.2970   -1.3309 H         1 VDO502      0.0000 
@<TRIPOS>BOND
     1    2    1 ar   
     2    3    2 ar   
     3    4    2 ar   
     4    5    2 1    
     5    6    5 1    
     6    7    6 1    
     7   28    6 1    
     8   29    6 1    
     9    8    7 1    
    10    9    7 1    
    11   30    7 1    
    12   15    8 1    
    13   31    8 1    
    14   32    8 1    
    15   10    9 1    
    16   11    9 1    
    17   33    9 1    
    18   44   10 1    
    19   12   11 1    
    20   13   11 1    
    21   34   11 1    
    22   45   12 1    
    23   14   13 1    
    24   15   13 1    
    25   35   13 1    
    26   46   14 1    
    27   16   15 1    
    28   36   15 1    
    29   17   16 1    
    30   18   17 1    
    31   19   17 1    
    32   37   17 1    
    33   25   18 2    
    34   38   18 1    
    35   20   19 1    
    36   21   19 1    
    37   39   19 1    
    38   47   20 1    
    39   22   21 1    
    40   23   21 1    
    41   40   21 1    
    42   48   22 1    
    43   24   23 1    
    44   25   23 1    
    45   41   23 1    
    46   49   24 1    
    47   26   25 1    
    48   27   26 1    
    49   42   26 1    
    50   43   26 1    
    51   50   27 1    
@<TRIPOS>SUBSTRUCTURE
     1 VDO502      1 GROUP   
@<TRIPOS>SET

