#    Name: 2BU6_1_CAVITY_N1_6.mol2
#    Modification time : Tue Mar 11 04:52:34 2014

@<TRIPOS>MOLECULE
2BU6_1_CAVITY_N1_6.mol2
   59     0     5     0     0
SMALL
NO_CHARGES


@<TRIPOS>ATOM
      1 N          59.7403   63.2140   80.7159 N.2       2 ALA2        0.0000 
      2 CA         58.8216   64.1911   79.0723 C.3       4 GLY6        0.0000 
      3 CZ         57.3992   62.5868   81.6517 C.ar      3 PHE5        0.0000 
      4 CA         58.9859   61.9588   80.3915 C.3       4 GLY6        0.0000 
      5 CZ         57.7332   62.7613   80.1998 C.ar      3 PHE5        0.0000 
      6 CZ         59.3198   62.1334   78.9396 C.ar      3 PHE5        0.0000 
      7 CZ         58.0671   62.9359   78.7479 C.ar      3 PHE5        0.0000 
      8 CZ         56.8144   63.7384   78.5563 C.ar      3 PHE5        0.0000 
      9 CZ         57.1483   63.9129   77.1044 C.ar      3 PHE5        0.0000 
     10 N          56.2296   64.8899   75.4608 N.2       2 ALA2        0.0000 
     11 CZ         56.9787   61.5061   79.8754 C.ar      3 PHE5        0.0000 
     12 CA         55.7260   62.3086   79.6838 C.3       4 GLY6        0.0000 
     13 CA         59.8180   60.0757   78.8068 C.3       4 GLY6        0.0000 
     14 CZ         58.5653   60.8782   78.6152 C.ar      3 PHE5        0.0000 
     15 CZ         57.3126   61.6807   78.4235 C.ar      3 PHE5        0.0000 
     16 CA         56.0599   62.4832   78.2319 C.3       4 GLY6        0.0000 
     17 CA         54.8072   63.2857   78.0402 C.3       4 GLY6        0.0000 
     18 CZ         60.1520   60.2502   77.3549 C.ar      3 PHE5        0.0000 
     19 CZ         58.8993   61.0527   77.1633 C.ar      3 PHE5        0.0000 
     20 CZ         57.6466   61.8552   76.9716 C.ar      3 PHE5        0.0000 
     21 CZ         56.3939   62.6577   76.7800 C.ar      3 PHE5        0.0000 
     22 CA         55.1412   63.4602   76.5883 C.3       4 GLY6        0.0000 
     23 CZ         56.7278   62.8322   75.3281 C.ar      3 PHE5        0.0000 
     24 CA         54.9715   61.0534   79.3594 C.3       4 GLY6        0.0000 
     25 OG         59.0636   58.8205   78.4824 O.2       1 SER1        0.0000 
     26 CZ         57.8109   59.6230   78.2908 C.ar      3 PHE5        0.0000 
     27 CZ         56.5582   60.4255   78.0991 C.ar      3 PHE5        0.0000 
     28 OG         59.3975   58.9950   77.0305 O.2       1 SER1        0.0000 
     29 CZ         58.1448   59.7975   76.8389 C.ar      3 PHE5        0.0000 
     30 CZ         56.8921   60.6000   76.6472 C.ar      3 PHE5        0.0000 
     31 CA         55.6394   61.4025   76.4556 C.3       4 GLY6        0.0000 
     32 OG         60.9841   58.3670   75.7703 O.2       1 SER1        0.0000 
     33 CZ         59.7314   59.1695   75.5786 C.ar      3 PHE5        0.0000 
     34 CZ         58.4787   59.9720   75.3870 C.ar      3 PHE5        0.0000 
     35 CZ         57.2260   60.7745   75.1953 C.ar      3 PHE5        0.0000 
     36 N          55.9733   61.5770   75.0036 N.2       2 ALA2        0.0000 
     37 CZ         60.0654   59.3440   74.1267 C.ar      3 PHE5        0.0000 
     38 CZ         57.5600   60.9490   73.7434 C.ar      3 PHE5        0.0000 
     39 CA         59.5618   56.7628   78.3497 C.3       4 GLY6        0.0000 
     40 CA         58.3091   57.5653   78.1580 C.3       4 GLY6        0.0000 
     41 CZ         57.0564   58.3678   77.9664 C.ar      3 PHE5        0.0000 
     42 CA         55.8037   59.1703   77.7747 C.3       4 GLY6        0.0000 
     43 OG         59.8957   56.9373   76.8978 O.2       1 SER1        0.0000 
     44 OG         58.6430   57.7398   76.7061 O.2       1 SER1        0.0000 
     45 DU         57.3903   58.5423   76.5145 H         5 CUB7        0.0000 
     46 CZ         56.1376   59.3448   76.3228 C.ar      3 PHE5        0.0000 
     47 O          60.2296   57.1118   75.4459 O.2       2 ALA2        0.0000 
     48 CA         58.9769   57.9143   75.2542 C.3       4 GLY6        0.0000 
     49 CZ         57.7242   58.7168   75.0625 C.ar      3 PHE5        0.0000 
     50 CZ         56.4715   59.5193   74.8709 C.ar      3 PHE5        0.0000 
     51 CA         59.3109   58.0888   73.8023 C.3       4 GLY6        0.0000 
     52 CA         58.0582   58.8913   73.6106 C.3       4 GLY6        0.0000 
     53 N          56.8055   59.6938   73.4190 N.2       2 ALA2        0.0000 
     54 CA         57.5546   56.3101   77.8336 C.3       4 GLY6        0.0000 
     55 CA         56.3019   57.1126   77.6420 C.3       4 GLY6        0.0000 
     56 N          59.1412   55.6821   76.5734 N.2       2 ALA2        0.0000 
     57 CA         57.8885   56.4846   76.3817 C.3       4 GLY6        0.0000 
     58 CZ         56.6358   57.2871   76.1900 C.ar      3 PHE5        0.0000 
     59 CZ         56.9698   57.4616   74.7381 C.ar      3 PHE5        0.0000 
@<TRIPOS>BOND
@<TRIPOS>SUBSTRUCTURE
     1 SER1       25 GROUP   
     2 ALA2        1 GROUP   
     3 PHE5        3 GROUP   
     4 GLY6        2 GROUP   
     5 CUB7       45 GROUP   
@<TRIPOS>SET

