#    Name: 2bu6_TF2_1_INTS_M
#    Modification time : Mon Mar 24 21:42:02 2014

@<TRIPOS>MOLECULE
2bu6_TF2_1_INTS_M
   48     0     6     0     0
SMALL
NO_CHARGES


@<TRIPOS>ATOM
      1 CA         54.1615   63.5070   75.9715 C.3       2 GLC5        0.0000 
      2 CA         55.7940   63.0990   76.9070 C.3       6 GLL5        0.0000 
      3 CA         52.5290   63.9150   75.0360 C.3       4 GLP5        0.0000 
      4 CA         59.8925   62.1280   77.8435 C.3       2 GLC5        0.0000 
      5 CA         59.0370   61.6250   79.4320 C.3       6 GLL5        0.0000 
      6 CA         60.7480   62.6310   76.2550 C.3       4 GLP5        0.0000 
      7 CA         60.6040   63.1140   79.5840 C.3       2 GLC5        0.0000 
      8 CA         62.1710   64.6030   79.7360 C.3       4 GLP5        0.0000 
      9 CA         60.8020   60.7125   79.5360 C.3       2 GLC5        0.0000 
     10 CA         62.5670   59.8000   79.6400 C.3       4 GLP5        0.0000 
     11 CA         59.2505   60.9700   81.0015 C.3       2 GLC5        0.0000 
     12 CA         59.4640   60.3150   82.5710 C.3       4 GLP5        0.0000 
     13 CA         53.4565   62.1990   79.2365 C.3       2 GLC5        0.0000 
     14 CA         53.8220   63.1520   81.0780 C.3       6 GLL5        0.0000 
     15 CA         53.0910   61.2460   77.3950 C.3       4 GLP5        0.0000 
     16 CA         54.7530   61.6910   82.0055 C.3       2 GLC5        0.0000 
     17 CA         55.6840   60.2300   82.9330 C.3       4 GLP5        0.0000 
     18 CA         60.5230   55.7925   74.8995 C.3       2 GLC5        0.0000 
     19 CA         59.0970   57.3920   74.9150 C.3       6 GLL5        0.0000 
     20 CA         61.9490   54.1930   74.8840 C.3       4 GLP5        0.0000 
     21 CA         59.9160   57.5905   73.2420 C.3       2 GLC5        0.0000 
     22 CA         60.7350   57.7890   71.5690 C.3       4 GLP5        0.0000 
     23 N          60.9315   57.9230   77.7640 N.am      1 SEC2        0.0000 
     24 N          59.7780   58.0480   77.1430 N.am      5 SEL2        0.0000 
     25 N          62.0850   57.7980   78.3850 N.am      3 SEP2        0.0000 
     26 CA         57.1760   54.4320   77.1320 C.3       2 GLC5        0.0000 
     27 CA         58.1520   55.8420   77.2370 C.3       6 GLL5        0.0000 
     28 CA         56.2000   53.0220   77.0270 C.3       4 GLP5        0.0000 
     29 CA         57.9705   55.3235   75.3030 C.3       2 GLC5        0.0000 
     30 CA         57.7890   54.8050   73.3690 C.3       4 GLP5        0.0000 
     31 CA         60.0930   54.8605   76.8065 C.3       2 GLC5        0.0000 
     32 CA         62.0340   53.8790   76.3760 C.3       4 GLP5        0.0000 
     33 CA         56.7965   58.1600   79.6770 C.3       2 GLC5        0.0000 
     34 CA         57.2810   57.5770   78.1960 C.3       6 GLL5        0.0000 
     35 CA         56.3120   58.7430   81.1580 C.3       4 GLP5        0.0000 
     36 CA         57.1630   55.8545   74.8355 C.3       2 GLC5        0.0000 
     37 CA         56.5370   56.9040   76.3020 C.3       6 GLL5        0.0000 
     38 CA         54.5553   62.3580   77.4275 C.3       2 GLC5        0.0000 
     39 CA         54.9988   61.4215   77.2067 C.3       2 GLC5        0.0000 
     40 CA         56.3780   61.8600   76.6140 C.3       6 GLL5        0.0000 
     41 CA         55.4690   57.1035   75.9075 C.3       2 GLC5        0.0000 
     42 CA         53.8560   57.2310   75.1500 C.3       4 GLP5        0.0000 
     43 CA         58.2037   56.1270   74.5762 C.3       2 GLC5        0.0000 
     44 CA         57.6270   57.0480   77.0280 C.3       6 GLL5        0.0000 
     45 CA         58.0606   56.1590   79.2326 C.3       2 GLC5        0.0000 
     46 CA         58.5360   55.3070   80.8010 C.3       4 GLP5        0.0000 
     47 CA         55.6713   56.0311   77.4690 C.3       2 GLC5        0.0000 
     48 CA         54.3470   54.9540   77.9810 C.3       4 GLP5        0.0000 
@<TRIPOS>BOND
@<TRIPOS>SUBSTRUCTURE
     1 SEC2       23 GROUP        1 X    SEC  0     ROOT SEC X 2
     2 GLC5        1 GROUP        1 X    GLC  0     **** GLC X 6
     3 SEP2       25 GROUP        1 Y    SEP  0     ROOT SEP Y 9
     4 GLP5        3 GROUP        1 Y    GLP  0     **** GLP Y 13
     5 SEL2       24 GROUP        1 Z    SEL  0     ROOT SEL Z 16
     6 GLL5        2 GROUP        1 Z    GLL  0     **** GLL Z 20
@<TRIPOS>SET

