#    Name: 2bu6_TF2_1_ligand
#    Modification time : Mon Mar 24 21:42:02 2014

@<TRIPOS>MOLECULE
2bu6_TF2_1_ligand
   50    51     1     0     0
SMALL
NO_CHARGES


@<TRIPOS>ATOM
      1 C1         56.2450   63.8410   78.0130 C.ar      1 TF21386     0.0000 
      2 S1         55.4860   65.4160   78.3480 S.o2      1 TF21386     0.0000 
      3 C2         57.2910   63.3520   78.8370 C.ar      1 TF21386     0.0000 
      4 C3         55.7940   63.0990   76.9070 C.ar      1 TF21386     0.0000 
      5 N1         54.3600   65.2500   79.7160 N.pl3     1 TF21386     0.0000 
      6 O1         56.4950   66.3420   78.7840 O.2       1 TF21386     0.0000 
      7 O2         54.6550   65.7680   77.2190 O.2       1 TF21386     0.0000 
      8 C4         57.9010   62.0970   78.5530 C.ar      1 TF21386     0.0000 
      9 C5         56.3780   61.8600   76.6140 C.ar      1 TF21386     0.0000 
     10 C6         53.4430   66.3250   80.0270 C.ar      1 TF21386     0.0000 
     11 C7         54.7030   64.4160   80.9120 C.3       1 TF21386     0.0000 
     12 C8         57.4350   61.3340   77.4230 C.ar      1 TF21386     0.0000 
     13 C9         59.0370   61.6250   79.4320 C.3       1 TF21386     0.0000 
     14 C10        53.9330   67.6550   80.1990 C.ar      1 TF21386     0.0000 
     15 C11        52.0360   66.0840   80.1090 C.ar      1 TF21386     0.0000 
     16 C12        53.8220   63.1520   81.0780 C.3       1 TF21386     0.0000 
     17 N2         58.0380   60.1240   77.1740 N.am      1 TF21386     0.0000 
     18 C13        53.0400   68.7250   80.4500 C.ar      1 TF21386     0.0000 
     19 C14        51.1460   67.1610   80.3620 C.ar      1 TF21386     0.0000 
     20 C15        58.0600   59.3850   76.0290 C.2       1 TF21386     0.0000 
     21 C16        51.6470   68.4810   80.5290 C.ar      1 TF21386     0.0000 
     22 C17        58.6530   57.9640   76.2760 C.3       1 TF21386     0.0000 
     23 O3         57.6680   59.7450   74.9120 O.2       1 TF21386     0.0000 
     24 C18        57.6270   57.0480   77.0280 C.3       1 TF21386     0.0000 
     25 C19        59.0970   57.3920   74.9150 C.3       1 TF21386     0.0000 
     26 O4         59.7780   58.0480   77.1430 O.3       1 TF21386     0.0000 
     27 F1         58.1520   55.8420   77.2370 F         1 TF21386     0.0000 
     28 F2         57.2810   57.5770   78.1960 F         1 TF21386     0.0000 
     29 F3         56.5370   56.9040   76.3020 F         1 TF21386     0.0000 
     30 H          57.6091   63.8995   79.6365 H         1 TF21386     0.0000 
     31 H          55.0412   63.4652   76.3193 H         1 TF21386     0.0000 
     32 H          56.0523   61.3108   75.8097 H         1 TF21386     0.0000 
     33 H          54.6075   65.0195   81.8320 H         1 TF21386     0.0000 
     34 H          55.7566   64.0902   80.8543 H         1 TF21386     0.0000 
     35 H          54.9380   67.8311   80.1395 H         1 TF21386     0.0000 
     36 H          51.6776   65.1409   79.9856 H         1 TF21386     0.0000 
     37 H          58.5832   59.6909   78.0292 H         1 TF21386     0.0000 
     38 H          53.3996   69.6711   80.5739 H         1 TF21386     0.0000 
     39 H          50.1425   66.9877   80.4244 H         1 TF21386     0.0000 
     40 H          51.0022   69.2497   80.7054 H         1 TF21386     0.0000 
     41 H          59.3894   60.7364   79.1383 H         1 TF21386     0.0000 
     42 H          59.8062   62.2639   79.4198 H         1 TF21386     0.0000 
     43 H          58.7526   61.5268   80.3857 H         1 TF21386     0.0000 
     44 H          53.8942   62.5427   80.2884 H         1 TF21386     0.0000 
     45 H          54.0835   62.6202   81.8835 H         1 TF21386     0.0000 
     46 H          52.8549   63.3843   81.1815 H         1 TF21386     0.0000 
     47 H          59.7902   57.9660   74.4792 H         1 TF21386     0.0000 
     48 H          59.4897   56.4770   75.0070 H         1 TF21386     0.0000 
     49 H          58.3319   57.3196   74.2751 H         1 TF21386     0.0000 
     50 H          59.8346   59.0126   77.4006 H         1 TF21386     0.0000 
@<TRIPOS>BOND
     1    2    1 1    
     2    3    1 ar   
     3    4    1 ar   
     4    5    2 1    
     5    6    2 2    
     6    7    2 2    
     7    8    3 ar   
     8   30    3 1    
     9    9    4 ar   
    10   31    4 1    
    11   10    5 1    
    12   11    5 1    
    13   12    8 ar   
    14   13    8 1    
    15   12    9 ar   
    16   32    9 1    
    17   14   10 ar   
    18   15   10 ar   
    19   16   11 1    
    20   33   11 1    
    21   34   11 1    
    22   17   12 1    
    23   41   13 1    
    24   42   13 1    
    25   43   13 1    
    26   18   14 ar   
    27   35   14 1    
    28   19   15 ar   
    29   36   15 1    
    30   44   16 1    
    31   45   16 1    
    32   46   16 1    
    33   20   17 am   
    34   37   17 1    
    35   21   18 ar   
    36   38   18 1    
    37   21   19 ar   
    38   39   19 1    
    39   22   20 1    
    40   23   20 2    
    41   40   21 1    
    42   24   22 1    
    43   25   22 1    
    44   26   22 1    
    45   27   24 1    
    46   28   24 1    
    47   29   24 1    
    48   47   25 1    
    49   48   25 1    
    50   49   25 1    
    51   50   26 1    
@<TRIPOS>SUBSTRUCTURE
     1 TF21386     1 GROUP   
@<TRIPOS>SET

