#    Name: 2c4j_GSO_3_INTS_M
#    Modification time : Mon Mar 24 22:36:48 2014

@<TRIPOS>MOLECULE
2c4j_GSO_3_INTS_M
   71     0    15     0     0
SMALL
NO_CHARGES


@<TRIPOS>ATOM
      1 N           9.0675    2.0445   34.2895 N.am      2 SEC2        0.0000 
      2 N           9.4270    3.0850   35.6150 N.am     12 SEL2        0.0000 
      3 N           8.7080    1.0040   32.9640 N.am      7 SEP2        0.0000 
      4 N          10.2220    2.1145   35.1665 N.am      2 SEC2        0.0000 
      5 N          11.0170    1.1440   34.7180 N.am      7 SEP2        0.0000 
      6 N           8.6605    2.3890   33.3230 N.am      2 SEC2        0.0000 
      7 N           8.6130    3.7740   33.6820 N.am     12 SEL2        0.0000 
      8 OD1         6.7680    4.7445   38.3670 O.co2     3 ASC3        0.0000 
      9 OD1         7.6380    4.3660   37.0350 O.co2    13 ASL3        0.0000 
     10 OD1         5.8980    5.1230   39.6990 O.co2     8 ASP3        0.0000 
     11 OD1         6.3865    4.9685   37.3600 O.co2     3 ASC3        0.0000 
     12 OD1         5.1350    5.5710   37.6850 O.co2     8 ASP3        0.0000 
     13 O           6.7840    3.4050   36.4300 O.2       1 ALC1        0.0000 
     14 O           7.6380    4.3660   37.0350 O.2      11 ALL1        0.0000 
     15 O           5.9300    2.4440   35.8250 O.2       6 ALP1        0.0000 
     16 O           6.7680    4.7445   38.3670 O.2       1 ALC1        0.0000 
     17 O           5.8980    5.1230   39.6990 O.2       6 ALP1        0.0000 
     18 O           6.3865    4.9685   37.3600 O.2       1 ALC1        0.0000 
     19 O           5.1350    5.5710   37.6850 O.2       6 ALP1        0.0000 
     20 CA         11.9375   10.6375   30.9010 C.3       5 GLC5        0.0000 
     21 CA         11.0310    9.9120   32.4970 C.3      15 GLL5        0.0000 
     22 CA         12.8440   11.3630   29.3050 C.3      10 GLP5        0.0000 
     23 O           9.1725    7.9520   32.1605 O.2       1 ALC1        0.0000 
     24 O           9.0310    8.8350   33.2190 O.2      11 ALL1        0.0000 
     25 O           9.3140    7.0690   31.1020 O.2       6 ALP1        0.0000 
     26 N          10.6190   12.0090   30.4265 N.am      2 SEC2        0.0000 
     27 N           9.5270   11.9030   31.3520 N.am     12 SEL2        0.0000 
     28 N          11.7110   12.1150   29.5010 N.am      7 SEP2        0.0000 
     29 O           6.9015    9.4300   31.8200 O.2       1 ALC1        0.0000 
     30 O           7.7140   10.5920   31.6080 O.2      11 ALL1        0.0000 
     31 O           6.0890    8.2680   32.0320 O.2       6 ALP1        0.0000 
     32 CA          6.3920   11.4050   28.5915 C.3       5 GLC5        0.0000 
     33 CA          6.9180   11.2240   30.5440 C.3      15 GLL5        0.0000 
     34 CA          5.8660   11.5860   26.6390 C.3      10 GLP5        0.0000 
     35 CA          5.8795    9.4740   30.0480 C.3       5 GLC5        0.0000 
     36 CA          4.8410    7.7240   29.5520 C.3      10 GLP5        0.0000 
     37 CA          8.1310    9.9075   29.5115 C.3       5 GLC5        0.0000 
     38 CA          9.3440    8.5910   28.4790 C.3      10 GLP5        0.0000 
     39 NZ          3.7355   13.0095   30.0480 N.4       4 LYC4        0.0000 
     40 NZ          5.1530   12.7650   30.1430 N.4      14 LYL4        0.0000 
     41 NZ          2.3180   13.2540   29.9530 N.4       9 LYP4        0.0000 
     42 N           5.8345   14.2975   30.2775 N.am      2 SEC2        0.0000 
     43 N           5.1530   12.7650   30.1430 N.am     12 SEL2        0.0000 
     44 N           6.5160   15.8300   30.4120 N.am      7 SEP2        0.0000 
     45 N           5.6135   12.6815   28.8405 N.am      2 SEC2        0.0000 
     46 N           6.0740   12.5980   27.5380 N.am      7 SEP2        0.0000 
     47 N           3.7355   13.0095   30.0480 N.am      2 SEC2        0.0000 
     48 N           2.3180   13.2540   29.9530 N.am      7 SEP2        0.0000 
     49 O          15.5780   11.4345   34.7925 O.2       1 ALC1        0.0000 
     50 O          14.7960   10.0960   34.2170 O.2      11 ALL1        0.0000 
     51 O          16.3600   12.7730   35.3680 O.2       6 ALP1        0.0000 
     52 CA         15.2950   11.4950   31.9190 C.3       5 GLC5        0.0000 
     53 CA         13.4320   12.1720   32.9550 C.3      15 GLL5        0.0000 
     54 CA         17.1580   10.8180   30.8830 C.3      10 GLP5        0.0000 
     55 CA         14.6850   13.0665   33.3330 C.3       5 GLC5        0.0000 
     56 CA         13.1260   11.8600   34.2810 C.3      15 GLL5        0.0000 
     57 CA         16.2440   14.2730   32.3850 C.3      10 GLP5        0.0000 
     58 CA         14.9805   12.0005   35.7670 C.3       5 GLC5        0.0000 
     59 CA         13.6590   10.6320   34.9240 C.3      15 GLL5        0.0000 
     60 CA         16.3020   13.3690   36.6100 C.3      10 GLP5        0.0000 
     61 CA         12.3460    8.3343   31.5145 C.3       5 GLC5        0.0000 
     62 CA         12.1110    8.8930   33.4650 C.3      15 GLL5        0.0000 
     63 CA         13.1210    7.2660   30.0480 C.3      10 GLP5        0.0000 
     64 CA         12.0950    7.3665   34.4390 C.3       5 GLC5        0.0000 
     65 CA         11.8710    5.4850   34.6330 C.3      10 GLP5        0.0000 
     66 CA         10.0339    5.8563   34.8208 C.3       5 GLC5        0.0000 
     67 CA          8.2600    6.9340   34.3430 C.3      15 GLL5        0.0000 
     68 CA         12.8635   14.9857   31.5158 C.3       5 GLC5        0.0000 
     69 CA         12.9020   13.3240   32.3780 C.3      15 GLL5        0.0000 
     70 CA         13.2380   16.2260   30.2820 C.3      10 GLP5        0.0000 
     71 CA         14.4328   13.8652   32.6394 C.3       5 GLC5        0.0000 
@<TRIPOS>BOND
@<TRIPOS>SUBSTRUCTURE
     1 ALC1       13 GROUP        1 X    ALC  0     ROOT ALC X 1
     2 SEC2        1 GROUP        1 X    SEC  0     **** SEC X 2
     3 ASC3        8 GROUP        1 X    ASC  0     **** ASC X 3
     4 LYC4       39 GROUP        1 X    LYC  0     **** LYC X 4
     5 GLC5       20 GROUP        1 X    GLC  0     **** GLC X 6
     6 ALP1       15 GROUP        1 Y    ALP  0     ROOT ALP Y 8
     7 SEP2        3 GROUP        1 Y    SEP  0     **** SEP Y 9
     8 ASP3       10 GROUP        1 Y    ASP  0     **** ASP Y 10
     9 LYP4       41 GROUP        1 Y    LYP  0     **** LYP Y 11
    10 GLP5       22 GROUP        1 Y    GLP  0     **** GLP Y 13
    11 ALL1       14 GROUP        1 Z    ALL  0     ROOT ALL Z 15
    12 SEL2        2 GROUP        1 Z    SEL  0     **** SEL Z 16
    13 ASL3        9 GROUP        1 Z    ASL  0     **** ASL Z 17
    14 LYL4       40 GROUP        1 Z    LYL  0     **** LYL Z 18
    15 GLL5       21 GROUP        1 Z    GLL  0     **** GLL Z 20
@<TRIPOS>SET

