#    Name: 2c4j_GSO_3_ligand
#    Modification time : Mon Mar 24 22:36:48 2014

@<TRIPOS>MOLECULE
2c4j_GSO_3_ligand
   53    53     1     0     0
SMALL
NO_CHARGES


@<TRIPOS>ATOM
      1 C           8.6930    3.8230   34.9310 C.2       1 GSO1219     0.0000 
      2 OT1         9.4270    3.0850   35.6150 O.co2     1 GSO1219     0.0000 
      3 OT2         8.6130    3.7740   33.6820 O.co2     1 GSO1219     0.0000 
      4 N           7.6380    4.3660   37.0350 N.4       1 GSO1219     0.0000 
      5 CA          7.8310    4.8180   35.6660 C.3       1 GSO1219     0.0000 
      6 CB          8.4360    6.2240   35.6820 C.3       1 GSO1219     0.0000 
      7 CB2        11.0310    9.9120   32.4970 C.3       1 GSO1219     0.0000 
      8 SG2        12.1110    8.8930   33.4650 S.3       1 GSO1219     0.0000 
      9 CG          8.2600    6.9340   34.3430 C.3       1 GSO1219     0.0000 
     10 CD          8.8400    8.3300   34.3540 C.2       1 GSO1219     0.0000 
     11 OE          9.1130    8.9810   35.4860 O.2       1 GSO1219     0.0000 
     12 N2          9.0310    8.8350   33.2190 N.am      1 GSO1219     0.0000 
     13 CA2         9.6130   10.1570   33.0310 C.3       1 GSO1219     0.0000 
     14 C2          8.8960   10.9060   31.9540 C.2       1 GSO1219     0.0000 
     15 O2          9.5270   11.9030   31.3520 O.2       1 GSO1219     0.0000 
     16 N3          7.7140   10.5920   31.6080 N.am      1 GSO1219     0.0000 
     17 CA3         6.9180   11.2240   30.5440 C.3       1 GSO1219     0.0000 
     18 C3          5.8030   12.1340   31.0140 C.2       1 GSO1219     0.0000 
     19 O31         5.1530   12.7650   30.1430 O.co2     1 GSO1219     0.0000 
     20 O32         5.5460   12.2270   32.2340 O.co2     1 GSO1219     0.0000 
     21 OF2        14.7960   10.0960   34.2170 O.3       1 GSO1219     0.0000 
     22 CD2        12.5270    9.6030   35.0250 C.3       1 GSO1219     0.0000 
     23 CG2        12.9020   13.3240   32.3780 C.ar      1 GSO1219     0.0000 
     24 CL1        13.4320   12.1720   32.9550 C.ar      1 GSO1219     0.0000 
     25 CL2        12.0760   14.1670   33.1210 C.ar      1 GSO1219     0.0000 
     26 CM1        13.1260   11.8600   34.2810 C.ar      1 GSO1219     0.0000 
     27 CM2        11.7710   13.8580   34.4440 C.ar      1 GSO1219     0.0000 
     28 CZ         12.2940   12.7030   35.0220 C.ar      1 GSO1219     0.0000 
     29 C22        13.6590   10.6320   34.9240 C.3       1 GSO1219     0.0000 
     30 H           6.8651    4.8759   35.1669 H         1 GSO1219     0.0000 
     31 H           9.5018    6.1513   35.9140 H         1 GSO1219     0.0000 
     32 H           7.9532    6.8113   36.4675 H         1 GSO1219     0.0000 
     33 H          11.0253    9.4103   31.5210 H         1 GSO1219     0.0000 
     34 H          11.6000   10.8441   32.3892 H         1 GSO1219     0.0000 
     35 H           7.1902    6.9846   34.1056 H         1 GSO1219     0.0000 
     36 H           8.7486    6.3415   33.5597 H         1 GSO1219     0.0000 
     37 H           8.7866    8.3454   32.3081 H         1 GSO1219     0.0000 
     38 H           9.6725   10.7060   33.9095 H         1 GSO1219     0.0000 
     39 H           7.1733    9.7909   32.0975 H         1 GSO1219     0.0000 
     40 H           6.4711   10.4374   29.8882 H         1 GSO1219     0.0000 
     41 H           7.5871   11.8137   29.8709 H         1 GSO1219     0.0000 
     42 H          12.7932    8.7526   35.6268 H         1 GSO1219     0.0000 
     43 H          11.6019   10.0369   35.3600 H         1 GSO1219     0.0000 
     44 H          13.1206   13.5546   31.3990 H         1 GSO1219     0.0000 
     45 H          14.0432   11.5562   32.4103 H         1 GSO1219     0.0000 
     46 H          11.6921   15.0179   32.6902 H         1 GSO1219     0.0000 
     47 H          11.1640   14.4776   34.9912 H         1 GSO1219     0.0000 
     48 H          12.0677   12.4688   35.9975 H         1 GSO1219     0.0000 
     49 H          13.9406   10.8845   35.9562 H         1 GSO1219     0.0000 
     50 H           7.1930    3.4712   37.0714 H         1 GSO1219     0.0000 
     51 H           8.5061    4.2818   37.5242 H         1 GSO1219     0.0000 
     52 H           7.0670    4.9988   37.5580 H         1 GSO1219     0.0000 
     53 H          15.5295   10.7590   34.3663 H         1 GSO1219     0.0000 
@<TRIPOS>BOND
     1    2    1 ar   
     2    3    1 ar   
     3    5    1 1    
     4    5    4 1    
     5   50    4 1    
     6   51    4 1    
     7   52    4 1    
     8    6    5 1    
     9   30    5 1    
    10    9    6 1    
    11   31    6 1    
    12   32    6 1    
    13    8    7 1    
    14   13    7 1    
    15   33    7 1    
    16   34    7 1    
    17   22    8 1    
    18   10    9 1    
    19   35    9 1    
    20   36    9 1    
    21   11   10 2    
    22   12   10 am   
    23   13   12 1    
    24   37   12 1    
    25   14   13 1    
    26   38   13 1    
    27   15   14 2    
    28   16   14 am   
    29   17   16 1    
    30   39   16 1    
    31   18   17 1    
    32   40   17 1    
    33   41   17 1    
    34   19   18 ar   
    35   20   18 ar   
    36   29   21 1    
    37   53   21 1    
    38   29   22 1    
    39   42   22 1    
    40   43   22 1    
    41   24   23 ar   
    42   25   23 ar   
    43   44   23 1    
    44   26   24 ar   
    45   45   24 1    
    46   27   25 ar   
    47   46   25 1    
    48   28   26 ar   
    49   29   26 1    
    50   28   27 ar   
    51   47   27 1    
    52   48   28 1    
    53   49   29 1    
@<TRIPOS>SUBSTRUCTURE
     1 GSO1219     1 GROUP   
@<TRIPOS>SET

