#    Name: 4ddr_MMV_1_INTS_M
#    Modification time : Tue Mar 25 09:37:05 2014

@<TRIPOS>MOLECULE
4ddr_MMV_1_INTS_M
   71     0     9     0     0
SMALL
NO_CHARGES


@<TRIPOS>ATOM
      1 CA         24.4965   13.1490   -2.4395 C.3       3 GLC5        0.0000 
      2 CA         26.5640   12.4010   -2.2950 C.3       9 GLL5        0.0000 
      3 CA         22.4290   13.8970   -2.5840 C.3       6 GLP5        0.0000 
      4 CA         25.5940   10.8960   -2.8725 C.3       3 GLC5        0.0000 
      5 CA         24.6240    9.3910   -3.4500 C.3       6 GLP5        0.0000 
      6 CA         25.0015   12.8170   -4.8170 C.3       3 GLC5        0.0000 
      7 CA         27.0830   12.3140   -4.6310 C.3       9 GLL5        0.0000 
      8 CA         22.9200   13.3200   -5.0030 C.3       6 GLP5        0.0000 
      9 CA         25.8535   10.8525   -4.0405 C.3       3 GLC5        0.0000 
     10 CA         27.9930   10.7665   -5.0445 C.3       3 GLC5        0.0000 
     11 CA         28.9030    9.2190   -5.4580 C.3       6 GLP5        0.0000 
     12 CA         27.1610   14.3275   -4.7320 C.3       3 GLC5        0.0000 
     13 CA         27.2390   16.3410   -4.8330 C.3       6 GLP5        0.0000 
     14 N          29.2555   12.5545   -5.3620 N.am      2 SEC2        0.0000 
     15 N          28.4050   12.5270   -4.3650 N.am      8 SEL2        0.0000 
     16 N          30.1060   12.5820   -6.3590 N.am      5 SEP2        0.0000 
     17 CA         28.9070   10.9570   -4.2620 C.3       3 GLC5        0.0000 
     18 CA         28.9110   12.6950   -3.0660 C.3       9 GLL5        0.0000 
     19 CA         28.0750   14.5180   -3.9495 C.3       3 GLC5        0.0000 
     20 O          24.4145   11.7085   -1.5750 O.2       1 ALC1        0.0000 
     21 O          25.7110   12.3370   -1.3230 O.2       7 ALL1        0.0000 
     22 O          23.1180   11.0800   -1.8270 O.2       4 ALP1        0.0000 
     23 O          27.5610   12.3630   -6.8725 O.2       1 ALC1        0.0000 
     24 O          26.6260   12.1600   -5.8920 O.2       7 ALL1        0.0000 
     25 O          28.4960   12.5660   -7.8530 O.2       4 ALP1        0.0000 
     26 CA         32.2070   12.1160   -2.6640 C.3       3 GLC5        0.0000 
     27 CA         30.3170   12.9050   -2.9120 C.3       9 GLL5        0.0000 
     28 CA         34.0970   11.3270   -2.4160 C.3       6 GLP5        0.0000 
     29 CA         31.0590   16.0490   -3.2810 C.3       3 GLC5        0.0000 
     30 CA         30.6960   14.3310   -3.4960 C.3       9 GLL5        0.0000 
     31 CA         31.4220   17.7670   -3.0660 C.3       6 GLP5        0.0000 
     32 CA         28.9675   15.3360   -4.1645 C.3       3 GLC5        0.0000 
     33 CA         27.8810   12.0630    0.4040 C.3       3 GLC5        0.0000 
     34 CA         28.3380   14.1600   -0.2020 C.3       9 GLL5        0.0000 
     35 CA         27.4240    9.9660    1.0100 C.3       6 GLP5        0.0000 
     36 CA         31.3515   15.0150    2.8115 C.3       3 GLC5        0.0000 
     37 CA         32.2940   13.6050    1.3780 C.3       9 GLL5        0.0000 
     38 CA         30.4090   16.4250    4.2450 C.3       6 GLP5        0.0000 
     39 CA         33.0995   15.4625    2.7415 C.3       3 GLC5        0.0000 
     40 CA         33.3180   14.4490    0.7490 C.3       9 GLL5        0.0000 
     41 CA         32.8810   16.4760    4.7340 C.3       6 GLP5        0.0000 
     42 CA         27.1608   15.4890   -0.0948 C.3       3 GLC5        0.0000 
     43 CA         28.4630   14.0980    1.3590 C.3       9 GLL5        0.0000 
     44 CA         25.9210   16.8490   -0.7680 C.3       6 GLP5        0.0000 
     45 CA         28.2615   13.2278    3.3098 C.3       3 GLC5        0.0000 
     46 CA         27.4000   12.7350    5.0590 C.3       6 GLP5        0.0000 
     47 CA         29.7660   15.0728    2.9028 C.3       3 GLC5        0.0000 
     48 CA         28.2615   11.9478    2.0393 C.3       3 GLC5        0.0000 
     49 CA         29.7830   13.3430    1.7620 C.3       9 GLL5        0.0000 
     50 CA         27.4000   10.1750    2.5180 C.3       6 GLP5        0.0000 
     51 CA         34.5050   15.8220    1.8320 C.3       3 GLC5        0.0000 
     52 CA         34.7120   14.0210    0.9150 C.3       9 GLL5        0.0000 
     53 CA         34.9950   17.4090    2.8320 C.3       6 GLP5        0.0000 
     54 CA         35.4770   10.7183    2.5938 C.3       3 GLC5        0.0000 
     55 CA         35.0650   12.8200    1.6610 C.3       9 GLL5        0.0000 
     56 CA         36.3850    9.0230    3.2260 C.3       6 GLP5        0.0000 
     57 CA         34.3700   12.0017    0.0473 C.3       3 GLC5        0.0000 
     58 CA         34.2000   10.4760   -1.1520 C.3       6 GLP5        0.0000 
     59 CA         33.0429   11.3010    0.6846 C.3       3 GLC5        0.0000 
     60 CA         34.0730   12.0070    2.2620 C.3       9 GLL5        0.0000 
     61 CA         32.8070   10.1000   -0.6390 C.3       6 GLP5        0.0000 
     62 CA         33.1180   12.0975    4.1087 C.3       3 GLC5        0.0000 
     63 CA         32.6750   12.3890    2.1310 C.3       9 GLL5        0.0000 
     64 CA         32.8620   11.9970    6.0210 C.3       6 GLP5        0.0000 
     65 CA         32.4580   10.6065    3.2348 C.3       3 GLC5        0.0000 
     66 CA         31.5420    9.0150    4.2730 C.3       6 GLP5        0.0000 
     67 CA         32.3070   17.3248   -1.1522 C.3       3 GLC5        0.0000 
     68 CA         32.9160   15.6760   -0.0200 C.3       9 GLL5        0.0000 
     69 CA         31.1490   18.5150   -1.9320 C.3       6 GLP5        0.0000 
     70 CA         34.2300   16.7717    1.2297 C.3       3 GLC5        0.0000 
     71 CA         34.0140   16.5930   -0.7250 C.3       9 GLL5        0.0000 
@<TRIPOS>BOND
@<TRIPOS>SUBSTRUCTURE
     1 ALC1       20 GROUP        1 X    ALC  0     ROOT ALC X 1
     2 SEC2       14 GROUP        1 X    SEC  0     **** SEC X 2
     3 GLC5        1 GROUP        1 X    GLC  0     **** GLC X 6
     4 ALP1       22 GROUP        1 Y    ALP  0     ROOT ALP Y 8
     5 SEP2       16 GROUP        1 Y    SEP  0     **** SEP Y 9
     6 GLP5        3 GROUP        1 Y    GLP  0     **** GLP Y 13
     7 ALL1       21 GROUP        1 Z    ALL  0     ROOT ALL Z 15
     8 SEL2       15 GROUP        1 Z    SEL  0     **** SEL Z 16
     9 GLL5        2 GROUP        1 Z    GLL  0     **** GLL Z 20
@<TRIPOS>SET

