#    Name: 4ddr_MMV_1_ligand
#    Modification time : Tue Mar 25 09:37:06 2014

@<TRIPOS>MOLECULE
4ddr_MMV_1_ligand
   49    50     1     0     0
SMALL
NO_CHARGES


@<TRIPOS>ATOM
      1 C1         26.5640   12.4010   -2.2950 C.ar      1 MMV202      0.0000 
      2 N2         26.1840   12.2520   -3.5770 N.ar      1 MMV202      0.0000 
      3 C3         27.0830   12.3140   -4.6310 C.ar      1 MMV202      0.0000 
      4 N4         28.4050   12.5270   -4.3650 N.ar      1 MMV202      0.0000 
      5 C5         28.9110   12.6950   -3.0660 C.ar      1 MMV202      0.0000 
      6 C6         27.9380   12.6340   -1.9730 C.ar      1 MMV202      0.0000 
      7 N7         25.7110   12.3370   -1.3230 N.pl3     1 MMV202      0.0000 
      8 N8         26.6260   12.1600   -5.8920 N.pl3     1 MMV202      0.0000 
      9 C9         30.3170   12.9050   -2.9120 C.3       1 MMV202      0.0000 
     10 C10        30.6960   14.3310   -3.4960 C.3       1 MMV202      0.0000 
     11 O11        28.2580   12.7760   -0.6330 O.3       1 MMV202      0.0000 
     12 C12        28.3380   14.1600   -0.2020 C.3       1 MMV202      0.0000 
     13 C13        28.4630   14.0980    1.3590 C.3       1 MMV202      0.0000 
     14 C14        29.7830   13.3430    1.7620 C.3       1 MMV202      0.0000 
     15 O15        30.9550   14.0500    1.1990 O.3       1 MMV202      0.0000 
     16 C16        32.2940   13.6050    1.3780 C.ar      1 MMV202      0.0000 
     17 C17        33.3180   14.4490    0.7490 C.ar      1 MMV202      0.0000 
     18 C18        34.7120   14.0210    0.9150 C.ar      1 MMV202      0.0000 
     19 C19        35.0650   12.8200    1.6610 C.ar      1 MMV202      0.0000 
     20 C20        34.0730   12.0070    2.2620 C.ar      1 MMV202      0.0000 
     21 C21        32.6750   12.3890    2.1310 C.ar      1 MMV202      0.0000 
     22 C22        32.9160   15.6760   -0.0200 C.3       1 MMV202      0.0000 
     23 C23        34.0140   16.5930   -0.7250 C.3       1 MMV202      0.0000 
     24 C24        34.6770   16.1070   -2.1030 C.2       1 MMV202      0.0000 
     25 O25        35.6160   16.8390   -2.5480 O.co2     1 MMV202      0.0000 
     26 O26        34.3060   15.0330   -2.6590 O.co2     1 MMV202      0.0000 
     27 H          25.1930   11.4849   -1.2475 H         1 MMV202      0.0000 
     28 H          25.6493   13.1456   -0.7379 H         1 MMV202      0.0000 
     29 H          25.6511   11.9579   -5.9851 H         1 MMV202      0.0000 
     30 H          27.3030   12.2617   -6.6209 H         1 MMV202      0.0000 
     31 H          30.9131   12.1795   -3.4614 H         1 MMV202      0.0000 
     32 H          30.6302   12.9063   -1.8702 H         1 MMV202      0.0000 
     33 H          27.4476   14.7088   -0.4329 H         1 MMV202      0.0000 
     34 H          29.2129   14.6515   -0.5765 H         1 MMV202      0.0000 
     35 H          27.6199   13.5628    1.7589 H         1 MMV202      0.0000 
     36 H          28.5019   15.0996    1.7494 H         1 MMV202      0.0000 
     37 H          29.7113   12.3314    1.3759 H         1 MMV202      0.0000 
     38 H          29.8246   13.3143    2.8460 H         1 MMV202      0.0000 
     39 H          35.4506   14.5824    0.4951 H         1 MMV202      0.0000 
     40 H          36.0546   12.5738    1.7424 H         1 MMV202      0.0000 
     41 H          34.3130   11.1757    2.7747 H         1 MMV202      0.0000 
     42 H          31.9525   11.8283    2.5524 H         1 MMV202      0.0000 
     43 H          32.3164   16.3625    0.6481 H         1 MMV202      0.0000 
     44 H          32.1789   15.3922   -0.8283 H         1 MMV202      0.0000 
     45 H          34.8377   16.7627    0.0028 H         1 MMV202      0.0000 
     46 H          33.5619   17.5933   -0.9040 H         1 MMV202      0.0000 
     47 H          31.6747   14.5185   -3.4122 H         1 MMV202      0.0000 
     48 H          30.4647   14.4086   -4.4658 H         1 MMV202      0.0000 
     49 H          30.2147   15.0671   -3.0201 H         1 MMV202      0.0000 
@<TRIPOS>BOND
     1    2    1 ar   
     2    6    1 ar   
     3    7    1 1    
     4    3    2 ar   
     5    4    3 ar   
     6    8    3 1    
     7    5    4 ar   
     8    6    5 ar   
     9    9    5 1    
    10   11    6 1    
    11   27    7 1    
    12   28    7 1    
    13   29    8 1    
    14   30    8 1    
    15   10    9 1    
    16   31    9 1    
    17   32    9 1    
    18   47   10 1    
    19   48   10 1    
    20   49   10 1    
    21   12   11 1    
    22   13   12 1    
    23   33   12 1    
    24   34   12 1    
    25   14   13 1    
    26   35   13 1    
    27   36   13 1    
    28   15   14 1    
    29   37   14 1    
    30   38   14 1    
    31   16   15 1    
    32   17   16 ar   
    33   21   16 ar   
    34   18   17 ar   
    35   22   17 1    
    36   19   18 ar   
    37   39   18 1    
    38   20   19 ar   
    39   40   19 1    
    40   21   20 ar   
    41   41   20 1    
    42   42   21 1    
    43   23   22 1    
    44   43   22 1    
    45   44   22 1    
    46   24   23 1    
    47   45   23 1    
    48   46   23 1    
    49   25   24 ar   
    50   26   24 ar   
@<TRIPOS>SUBSTRUCTURE
     1 MMV202      1 GROUP   
@<TRIPOS>SET

