#    Name: 4g3q_UD1_1_INTS_M
#    Modification time : Mon Mar 24 21:22:41 2014

@<TRIPOS>MOLECULE
4g3q_UD1_1_INTS_M
   96     0    15     0     0
SMALL
NO_CHARGES


@<TRIPOS>ATOM
      1 CA         15.9305   31.0990   24.1055 C.3       5 GLC5        0.0000 
      2 CA         14.7730   30.7190   22.4110 C.3      15 GLL5        0.0000 
      3 CA         17.0880   31.4790   25.8000 C.3      10 GLP5        0.0000 
      4 CA         15.4575   28.4355   23.7915 C.3       5 GLC5        0.0000 
      5 CA         15.4530   29.4120   21.9390 C.3      15 GLL5        0.0000 
      6 CA         15.4620   27.4590   25.6440 C.3      10 GLP5        0.0000 
      7 CA         17.9615   28.0595   20.7815 C.3       5 GLC5        0.0000 
      8 CA         16.1360   28.0340   20.0020 C.3      15 GLL5        0.0000 
      9 CA         19.7870   28.0850   21.5610 C.3      10 GLP5        0.0000 
     10 CA         12.3815   34.5170   23.9050 C.3       5 GLC5        0.0000 
     11 CA         11.0150   33.7340   22.6400 C.3      15 GLL5        0.0000 
     12 CA         13.7480   35.3000   25.1700 C.3      10 GLP5        0.0000 
     13 CA         10.3185   35.3050   23.1310 C.3       5 GLC5        0.0000 
     14 CA          9.6220   36.8760   23.6220 C.3      10 GLP5        0.0000 
     15 CA         11.2540   32.2210   23.9795 C.3       5 GLC5        0.0000 
     16 CA         11.4930   30.7080   25.3190 C.3      10 GLP5        0.0000 
     17 O          13.6025   33.1165   22.6550 O.2       1 ALC1        0.0000 
     18 O          12.8190   32.1710   22.0940 O.2      11 ALL1        0.0000 
     19 O          14.3860   34.0620   23.2160 O.2       6 ALP1        0.0000 
     20 N          16.0950   30.9500   24.1695 N.am      2 SEC2        0.0000 
     21 N          14.4810   30.6170   23.8520 N.am     12 SEL2        0.0000 
     22 N          17.7090   31.2830   24.4870 N.am      7 SEP2        0.0000 
     23 N          13.9340   29.3715   24.2010 N.am      2 SEC2        0.0000 
     24 N          13.3870   28.1260   24.5500 N.am      7 SEP2        0.0000 
     25 O          14.3000   31.7670   24.4625 O.2       1 ALC1        0.0000 
     26 O          14.4810   30.6170   23.8520 O.2      11 ALL1        0.0000 
     27 O          14.1190   32.9170   25.0730 O.2       6 ALP1        0.0000 
     28 N          17.2120   30.2845   23.5590 N.am      2 SEC2        0.0000 
     29 N          16.7150   29.2860   22.6310 N.am     12 SEL2        0.0000 
     30 O          16.8445   28.0075   22.9080 O.2       1 ALC1        0.0000 
     31 O          16.7150   29.2860   22.6310 O.2      11 ALL1        0.0000 
     32 O          16.9740   26.7290   23.1850 O.2       6 ALP1        0.0000 
     33 O          16.6905   26.7075   18.5505 O.2       1 ALC1        0.0000 
     34 O          16.4290   28.0300   18.5720 O.2      11 ALL1        0.0000 
     35 O          16.9520   25.3850   18.5290 O.2       6 ALP1        0.0000 
     36 N           9.4370   31.9865   21.4220 N.am      2 SEC2        0.0000 
     37 N          10.6900   31.5410   21.6690 N.am     12 SEL2        0.0000 
     38 N           8.1840   32.4320   21.1750 N.am      7 SEP2        0.0000 
     39 O           4.7795   33.9615   14.2445 O.2       1 ALC1        0.0000 
     40 O           6.0400   33.7350   14.6820 O.2      11 ALL1        0.0000 
     41 O           3.5190   34.1880   13.8070 O.2       6 ALP1        0.0000 
     42 CA          7.0610   35.5160   17.2980 C.3       5 GLC5        0.0000 
     43 CA          8.0090   34.6520   15.7480 C.3      15 GLL5        0.0000 
     44 CA          6.1130   36.3800   18.8480 C.3      10 GLP5        0.0000 
     45 N           6.2865   31.3930   12.4550 N.am      2 SEC2        0.0000 
     46 N           6.0900   31.6400   13.8240 N.am     12 SEL2        0.0000 
     47 N           6.4830   31.1460   11.0860 N.am      7 SEP2        0.0000 
     48 N           4.3240   35.4440   15.6790 N.am      2 SEC2        0.0000 
     49 N           5.9290   35.7370   15.6440 N.am     12 SEL2        0.0000 
     50 N           2.7190   35.1510   15.7140 N.am      7 SEP2        0.0000 
     51 N           5.5470   36.4080   16.8155 N.am      2 SEC2        0.0000 
     52 N           5.1650   37.0790   17.9870 N.am      7 SEP2        0.0000 
     53 CA          7.8325   29.7375   14.8945 C.3       5 GLC5        0.0000 
     54 CA          8.7650   31.2150   14.4000 C.3      15 GLL5        0.0000 
     55 CA          6.9000   28.2600   15.3890 C.3      10 GLP5        0.0000 
     56 CA          8.1595   30.0810   12.5755 C.3       5 GLC5        0.0000 
     57 CA          7.5540   28.9470   10.7510 C.3      10 GLP5        0.0000 
     58 N           8.7350   32.4490   11.9130 N.am      2 SEC2        0.0000 
     59 N           9.6610   31.3390   12.2360 N.am     12 SEL2        0.0000 
     60 N           7.8090   33.5590   11.5900 N.am      7 SEP2        0.0000 
     61 CA          8.7100   29.1820   15.4255 C.3       5 GLC5        0.0000 
     62 CA         10.5200   30.1040   15.4620 C.3      15 GLL5        0.0000 
     63 N          10.8170   27.5465   13.0750 N.am      2 SEC2        0.0000 
     64 N          10.8970   29.1660   13.2830 N.am     12 SEL2        0.0000 
     65 N          10.7370   25.9270   12.8670 N.am      7 SEP2        0.0000 
     66 O           9.7610   28.5495   13.1580 O.2       1 ALC1        0.0000 
     67 O          10.8970   29.1660   13.2830 O.2      11 ALL1        0.0000 
     68 O           8.6250   27.9330   13.0330 O.2       6 ALP1        0.0000 
     69 NZ         14.5585   32.0425   13.8475 N.4       3 LYC4        0.0000 
     70 NZ         13.9510   32.0490   15.4060 N.4      13 LYL4        0.0000 
     71 NZ         15.1660   32.0360   12.2890 N.4       8 LYP4        0.0000 
     72 Zn         14.7225   31.4010   15.5870 Zn        4 ZIC7        0.0000 
     73 Zn         13.9510   32.0490   15.4060 Zn       14 ZIL7        0.0000 
     74 Zn         15.4940   30.7530   15.7680 Zn        9 ZIP7        0.0000 
     75 Zn         15.6165   31.2215   16.6765 Zn        4 ZIC7        0.0000 
     76 Zn         15.7390   31.6900   17.5850 Zn       14 ZIL7        0.0000 
     77 N          16.9430   32.2725   17.0245 N.am      2 SEC2        0.0000 
     78 N          15.7390   31.6900   17.5850 N.am     12 SEL2        0.0000 
     79 N          18.1470   32.8550   16.4640 N.am      7 SEP2        0.0000 
     80 N          15.8495   34.8165   17.2395 N.am      2 SEC2        0.0000 
     81 N          15.3830   33.9910   18.6010 N.am     12 SEL2        0.0000 
     82 N          16.3160   35.6420   15.8780 N.am      7 SEP2        0.0000 
     83 N          14.7505   34.6680   19.6370 N.am      2 SEC2        0.0000 
     84 N          14.1180   35.3450   20.6730 N.am      7 SEP2        0.0000 
     85 CA         12.8025   30.7625   23.6728 C.3       5 GLC5        0.0000 
     86 CA         13.4510   30.9150   21.6420 C.3      15 GLL5        0.0000 
     87 CA          8.5110   34.3893   13.7275 C.3       5 GLC5        0.0000 
     88 CA          8.7290   33.4550   15.4300 C.3      15 GLL5        0.0000 
     89 CA          8.6530   34.7250   11.8660 C.3      10 GLP5        0.0000 
     90 CA          8.6355   33.0542   17.2180 C.3       5 GLC5        0.0000 
     91 CA          8.9020   32.0550   18.8470 C.3      10 GLP5        0.0000 
     92 CA          9.0415   33.0385   12.9287 C.3       5 GLC5        0.0000 
     93 CA          9.9392   31.2140   17.4288 C.3       5 GLC5        0.0000 
     94 CA         11.4258   28.5436   15.6865 C.3       5 GLC5        0.0000 
     95 CA         11.4330   30.6420   16.5590 C.3      15 GLL5        0.0000 
     96 CA         11.7470   26.6420   15.7180 C.3      10 GLP5        0.0000 
@<TRIPOS>BOND
@<TRIPOS>SUBSTRUCTURE
     1 ALC1       17 GROUP        1 X    ALC  0     ROOT ALC X 1
     2 SEC2       20 GROUP        1 X    SEC  0     **** SEC X 2
     3 LYC4       69 GROUP        1 X    LYC  0     **** LYC X 4
     4 ZIC7       72 GROUP        1 X    ZIC  0     **** ZIC X 5
     5 GLC5        1 GROUP        1 X    GLC  0     **** GLC X 6
     6 ALP1       19 GROUP        1 Y    ALP  0     ROOT ALP Y 8
     7 SEP2       22 GROUP        1 Y    SEP  0     **** SEP Y 9
     8 LYP4       71 GROUP        1 Y    LYP  0     **** LYP Y 11
     9 ZIP7       74 GROUP        1 Y    ZIP  0     **** ZIP Y 12
    10 GLP5        3 GROUP        1 Y    GLP  0     **** GLP Y 13
    11 ALL1       18 GROUP        1 Z    ALL  0     ROOT ALL Z 15
    12 SEL2       21 GROUP        1 Z    SEL  0     **** SEL Z 16
    13 LYL4       70 GROUP        1 Z    LYL  0     **** LYL Z 18
    14 ZIL7       73 GROUP        1 Z    ZIL  0     **** ZIL Z 19
    15 GLL5        2 GROUP        1 Z    GLL  0     **** GLL Z 20
@<TRIPOS>SET

