#    Name: 4g3q_UD1_1_ligand
#    Modification time : Mon Mar 24 21:22:41 2014

@<TRIPOS>MOLECULE
4g3q_UD1_1_ligand
   64    66     1     0     0
SMALL
NO_CHARGES


@<TRIPOS>ATOM
      1 C1'        13.7080   30.8990   20.0810 C.3       1 UD1506      0.0000 
      2 C2'        13.4510   30.9150   21.6420 C.3       1 UD1506      0.0000 
      3 C3'        14.7730   30.7190   22.4110 C.3       1 UD1506      0.0000 
      4 C4'        15.4530   29.4120   21.9390 C.3       1 UD1506      0.0000 
      5 C5'        15.6470   29.4510   20.4080 C.3       1 UD1506      0.0000 
      6 C6'        16.1360   28.0340   20.0020 C.3       1 UD1506      0.0000 
      7 C7'        11.4840   32.3780   22.0810 C.2       1 UD1506      0.0000 
      8 C8'        11.0150   33.7340   22.6400 C.3       1 UD1506      0.0000 
      9 N2'        12.8190   32.1710   22.0940 N.am      1 UD1506      0.0000 
     10 O1'        14.6360   31.9810   19.8630 O.3       1 UD1506      0.0000 
     11 O3'        14.4810   30.6170   23.8520 O.3       1 UD1506      0.0000 
     12 O4'        16.7150   29.2860   22.6310 O.3       1 UD1506      0.0000 
     13 O5'        14.4060   29.7070   19.7150 O.3       1 UD1506      0.0000 
     14 O6'        16.4290   28.0300   18.5720 O.3       1 UD1506      0.0000 
     15 O7'        10.6900   31.5410   21.6690 O.2       1 UD1506      0.0000 
     16 N1          8.0730   32.4670   14.7330 N.am      1 UD1506      0.0000 
     17 C2          6.6950   32.5810   14.4130 C.2       1 UD1506      0.0000 
     18 N3          6.0400   33.7350   14.6820 N.am      1 UD1506      0.0000 
     19 C4          6.6380   34.7260   15.3710 C.2       1 UD1506      0.0000 
     20 C5          8.0090   34.6520   15.7480 C.2       1 UD1506      0.0000 
     21 C6          8.7290   33.4550   15.4300 C.2       1 UD1506      0.0000 
     22 O2          6.0900   31.6400   13.8240 O.2       1 UD1506      0.0000 
     23 O4          5.9290   35.7370   15.6440 O.2       1 UD1506      0.0000 
     24 C1B         8.7650   31.2150   14.4000 C.3       1 UD1506      0.0000 
     25 C2B        10.0950   31.4890   13.5830 C.3       1 UD1506      0.0000 
     26 O2'         9.6610   31.3390   12.2360 O.3       1 UD1506      0.0000 
     27 C3B        11.0320   30.3930   14.0400 C.3       1 UD1506      0.0000 
     28 C4B        10.5200   30.1040   15.4620 C.3       1 UD1506      0.0000 
     29 O4B         9.2020   30.6790   15.6310 O.3       1 UD1506      0.0000 
     30 O3B        10.8970   29.1660   13.2830 O.3       1 UD1506      0.0000 
     31 C5B        11.4330   30.6420   16.5590 C.3       1 UD1506      0.0000 
     32 O5B        11.5110   32.0540   16.3710 O.3       1 UD1506      0.0000 
     33 PA         12.9370   32.7540   16.2440 P.3       1 UD1506      0.0000 
     34 O1A        12.7790   34.2100   15.9840 O.co2     1 UD1506      0.0000 
     35 O2A        13.9510   32.0490   15.4060 O.co2     1 UD1506      0.0000 
     36 O3A        13.3970   32.6610   17.7950 O.3       1 UD1506      0.0000 
     37 PB         14.8800   32.6120   18.4340 P.3       1 UD1506      0.0000 
     38 O1B        15.7390   31.6900   17.5850 O.co2     1 UD1506      0.0000 
     39 O2B        15.3830   33.9910   18.6010 O.co2     1 UD1506      0.0000 
     40 H          12.8128   31.0425   19.5952 H         1 UD1506      0.0000 
     41 H          12.8095   30.0709   21.8724 H         1 UD1506      0.0000 
     42 H          15.4181   31.5361   22.2063 H         1 UD1506      0.0000 
     43 H          14.7924   28.5983   22.1792 H         1 UD1506      0.0000 
     44 H          16.4086   30.1389   20.1697 H         1 UD1506      0.0000 
     45 H          15.3485   27.3287   20.2490 H         1 UD1506      0.0000 
     46 H          17.0200   27.8078   20.5902 H         1 UD1506      0.0000 
     47 H          13.4825   32.9060   22.4319 H         1 UD1506      0.0000 
     48 H           5.0540   33.8560   14.3482 H         1 UD1506      0.0000 
     49 H           8.4596   35.4106   16.2207 H         1 UD1506      0.0000 
     50 H           9.6933   33.3642   15.7220 H         1 UD1506      0.0000 
     51 H           8.1729   30.5564   13.8587 H         1 UD1506      0.0000 
     52 H          10.4229   32.4239   13.8426 H         1 UD1506      0.0000 
     53 H          12.0063   30.7505   14.1144 H         1 UD1506      0.0000 
     54 H          10.4570   29.0194   15.5791 H         1 UD1506      0.0000 
     55 H          12.4002   30.1629   16.4568 H         1 UD1506      0.0000 
     56 H          10.9974   30.3815   17.5171 H         1 UD1506      0.0000 
     57 H          11.2866   33.8561   23.5946 H         1 UD1506      0.0000 
     58 H          11.3992   34.5007   22.1256 H         1 UD1506      0.0000 
     59 H          10.0199   33.8263   22.6042 H         1 UD1506      0.0000 
     60 H          14.3745   31.5618   24.1619 H         1 UD1506      0.0000 
     61 H          16.8096   28.3087   22.8207 H         1 UD1506      0.0000 
     62 H          16.6145   27.0731   18.3486 H         1 UD1506      0.0000 
     63 H           9.7334   30.3594   12.0485 H         1 UD1506      0.0000 
     64 H          10.1600   28.6631   13.7347 H         1 UD1506      0.0000 
@<TRIPOS>BOND
     1    2    1 1    
     2   10    1 1    
     3   13    1 1    
     4   40    1 1    
     5    3    2 1    
     6    9    2 1    
     7   41    2 1    
     8    4    3 1    
     9   11    3 1    
    10   42    3 1    
    11    5    4 1    
    12   12    4 1    
    13   43    4 1    
    14    6    5 1    
    15   13    5 1    
    16   44    5 1    
    17   14    6 1    
    18   45    6 1    
    19   46    6 1    
    20    8    7 1    
    21    9    7 am   
    22   15    7 2    
    23   57    8 1    
    24   58    8 1    
    25   59    8 1    
    26   47    9 1    
    27   37   10 1    
    28   60   11 1    
    29   61   12 1    
    30   62   14 1    
    31   17   16 1    
    32   21   16 1    
    33   24   16 1    
    34   18   17 1    
    35   22   17 2    
    36   19   18 1    
    37   48   18 1    
    38   20   19 1    
    39   23   19 2    
    40   21   20 2    
    41   49   20 1    
    42   50   21 1    
    43   25   24 1    
    44   29   24 1    
    45   51   24 1    
    46   26   25 1    
    47   27   25 1    
    48   52   25 1    
    49   63   26 1    
    50   28   27 1    
    51   30   27 1    
    52   53   27 1    
    53   29   28 1    
    54   31   28 1    
    55   54   28 1    
    56   64   30 1    
    57   32   31 1    
    58   55   31 1    
    59   56   31 1    
    60   33   32 1    
    61   34   33 ar   
    62   35   33 ar   
    63   36   33 1    
    64   37   36 1    
    65   38   37 ar   
    66   39   37 ar   
@<TRIPOS>SUBSTRUCTURE
     1 UD1506      1 GROUP   
@<TRIPOS>SET

