#    Name: 1u33_LM2_1_INTS_M
#    Modification time : Tue Mar 25 06:06:10 2014

@<TRIPOS>MOLECULE
1u33_LM2_1_INTS_M
   73     0     9     0     0
SMALL
NO_CHARGES


@<TRIPOS>ATOM
      1 O           8.3905   17.7265   45.2960 O.2       1 ALC1        0.0000 
      2 O           9.2880   16.8530   44.8950 O.2       7 ALL1        0.0000 
      3 O           7.4930   18.6000   45.6970 O.2       4 ALP1        0.0000 
      4 O           8.0225   16.2470   45.9565 O.2       1 ALC1        0.0000 
      5 O           8.6360   15.7060   44.9990 O.2       7 ALL1        0.0000 
      6 O           7.4090   16.7880   46.9140 O.2       4 ALP1        0.0000 
      7 CA         13.1575   18.2795   44.5940 C.3       3 GLC5        0.0000 
      8 CA         11.1090   18.2140   43.9450 C.3       9 GLL5        0.0000 
      9 CA         15.2060   18.3450   45.2430 C.3       6 GLP5        0.0000 
     10 N          10.0725   19.7035   45.7200 N.am      2 SEC2        0.0000 
     11 N          10.3900   19.2630   44.3750 N.am      8 SEL2        0.0000 
     12 N           9.7550   20.1440   47.0650 N.am      5 SEP2        0.0000 
     13 O           9.7625   19.8015   43.4860 O.2       1 ALC1        0.0000 
     14 O          10.3900   19.2630   44.3750 O.2       7 ALL1        0.0000 
     15 O           9.1350   20.3400   42.5970 O.2       4 ALP1        0.0000 
     16 N          12.1785   20.7630   43.1520 N.am      2 SEC2        0.0000 
     17 N          12.3060   19.4680   42.3240 N.am      8 SEL2        0.0000 
     18 N          12.0510   22.0580   43.9800 N.am      5 SEP2        0.0000 
     19 O          11.4490   20.2555   41.7190 O.2       1 ALC1        0.0000 
     20 O          12.3060   19.4680   42.3240 O.2       7 ALL1        0.0000 
     21 O          10.5920   21.0430   41.1140 O.2       4 ALP1        0.0000 
     22 CA         14.6500   15.9710   43.2025 C.3       3 GLC5        0.0000 
     23 CA         12.9780   14.8440   43.0540 C.3       9 GLL5        0.0000 
     24 CA         16.3220   17.0980   43.3510 C.3       6 GLP5        0.0000 
     25 CA         13.6940   13.3070   42.4850 C.3       3 GLC5        0.0000 
     26 CA         14.4100   11.7700   41.9160 C.3       6 GLP5        0.0000 
     27 O          13.1530   15.3660   45.6070 O.2       1 ALC1        0.0000 
     28 O          13.4420   15.3890   44.2240 O.2       7 ALL1        0.0000 
     29 O          12.8640   15.3430   46.9900 O.2       4 ALP1        0.0000 
     30 CA         14.9565   17.3920   41.7615 C.3       3 GLC5        0.0000 
     31 CA         13.5910   17.6860   40.1720 C.3       9 GLL5        0.0000 
     32 CA         15.7430   17.5355   39.0720 C.3       3 GLC5        0.0000 
     33 CA         14.9820   15.6980   39.5370 C.3       9 GLL5        0.0000 
     34 CA         16.5040   19.3730   38.6070 C.3       6 GLP5        0.0000 
     35 CA         17.4015   16.2835   38.2730 C.3       3 GLC5        0.0000 
     36 CA         16.3540   15.1180   39.8180 C.3       9 GLL5        0.0000 
     37 CA         18.4490   17.4490   36.7280 C.3       6 GLP5        0.0000 
     38 CA         17.8710   14.3745   40.2780 C.3       3 GLC5        0.0000 
     39 CA         19.3880   13.6310   40.7380 C.3       6 GLP5        0.0000 
     40 CA         15.3820   13.4440   40.8670 C.3       3 GLC5        0.0000 
     41 N          11.7130   19.2545   37.3640 N.am      2 SEC2        0.0000 
     42 N          11.9500   18.5710   38.5590 N.am      8 SEL2        0.0000 
     43 N          11.4760   19.9380   36.1690 N.am      5 SEP2        0.0000 
     44 N          18.3570   15.0835   38.8590 N.am      2 SEC2        0.0000 
     45 N          17.3490   15.9470   39.3210 N.am      8 SEL2        0.0000 
     46 N          19.3650   14.2200   38.3970 N.am      5 SEP2        0.0000 
     47 O          17.8295   16.9635   39.8790 O.2       1 ALC1        0.0000 
     48 O          17.3490   15.9470   39.3210 O.2       7 ALL1        0.0000 
     49 O          18.3100   17.9800   40.4370 O.2       4 ALP1        0.0000 
     50 CA         17.2565   16.1040   36.5615 C.3       3 GLC5        0.0000 
     51 CA         16.0640   14.7590   36.3950 C.3       9 GLL5        0.0000 
     52 CA         17.4005   15.9455   34.5835 C.3       3 GLC5        0.0000 
     53 CA         15.8740   14.7870   34.8250 C.3       9 GLL5        0.0000 
     54 CA         18.9270   17.1040   34.3420 C.3       6 GLP5        0.0000 
     55 CA         18.0675    9.9395   37.8805 C.3       3 GLC5        0.0000 
     56 CA         16.9370   11.0050   36.8650 C.3       9 GLL5        0.0000 
     57 CA         19.1980    8.8740   38.8960 C.3       6 GLP5        0.0000 
     58 CA         13.9032   18.0282   43.1073 C.3       3 GLC5        0.0000 
     59 CA         12.4680   17.0690   42.0790 C.3       9 GLL5        0.0000 
     60 CA         15.7600   18.3530   43.9410 C.3       6 GLP5        0.0000 
     61 CA         11.2830   13.6515   42.8100 C.3       3 GLC5        0.0000 
     62 CA         11.8660   15.7440   42.4260 C.3       9 GLL5        0.0000 
     63 CA         10.1440   12.0090   42.8800 C.3       6 GLP5        0.0000 
     64 CA         13.3275   19.6337   39.3140 C.3       3 GLC5        0.0000 
     65 CA         13.2380   21.4620   39.2290 C.3       6 GLP5        0.0000 
     66 CA         14.9605   18.5892   39.0030 C.3       3 GLC5        0.0000 
     67 CA         13.2430   17.9250   38.6260 C.3       9 GLL5        0.0000 
     68 CA         15.2585   17.8405   38.2283 C.3       3 GLC5        0.0000 
     69 CA         14.7350   16.0160   37.9190 C.3       9 GLL5        0.0000 
     70 CA         15.9950   16.2530   41.5143 C.3       3 GLC5        0.0000 
     71 CA         15.8432   11.2393   38.2188 C.3       3 GLC5        0.0000 
     72 CA         16.0960   12.2360   36.4160 C.3       9 GLL5        0.0000 
     73 CA         15.1700   10.8580   39.7970 C.3       6 GLP5        0.0000 
@<TRIPOS>BOND
@<TRIPOS>SUBSTRUCTURE
     1 ALC1        1 GROUP        1 X    ALC  0     ROOT ALC X 1
     2 SEC2       10 GROUP        1 X    SEC  0     **** SEC X 2
     3 GLC5        7 GROUP        1 X    GLC  0     **** GLC X 6
     4 ALP1        3 GROUP        1 Y    ALP  0     ROOT ALP Y 8
     5 SEP2       12 GROUP        1 Y    SEP  0     **** SEP Y 9
     6 GLP5        9 GROUP        1 Y    GLP  0     **** GLP Y 13
     7 ALL1        2 GROUP        1 Z    ALL  0     ROOT ALL Z 15
     8 SEL2       11 GROUP        1 Z    SEL  0     **** SEL Z 16
     9 GLL5        8 GROUP        1 Z    GLL  0     **** GLL Z 20
@<TRIPOS>SET

