#    Name: 1u33_LM2_1_ligand
#    Modification time : Tue Mar 25 06:06:10 2014

@<TRIPOS>MOLECULE
1u33_LM2_1_ligand
   71    73     1     0     0
SMALL
NO_CHARGES


@<TRIPOS>ATOM
      1 CA1        10.3360   16.8890   44.0860 C.2       1 LM2500      0.0000 
      2 NA1         9.2880   16.8530   44.8950 N.pl3     1 LM2500      0.0000 
      3 OA7         8.6360   15.7060   44.9990 O.3       1 LM2500      0.0000 
      4 CA2        11.1090   18.2140   43.9450 C.3       1 LM2500      0.0000 
      5 OA2        10.3900   19.2630   44.3750 O.3       1 LM2500      0.0000 
      6 CA3        11.6250   18.3380   42.4680 C.3       1 LM2500      0.0000 
      7 OA3        12.3060   19.4680   42.3240 O.3       1 LM2500      0.0000 
      8 CA4        12.4680   17.0690   42.0790 C.3       1 LM2500      0.0000 
      9 OA4        12.5150   16.9670   40.7580 O.3       1 LM2500      0.0000 
     10 CA5        11.8660   15.7440   42.4260 C.3       1 LM2500      0.0000 
     11 NA5        10.7440   15.7130   43.3830 N.pl3     1 LM2500      0.0000 
     12 CA6        12.9780   14.8440   43.0540 C.3       1 LM2500      0.0000 
     13 OA6        13.4420   15.3890   44.2240 O.3       1 LM2500      0.0000 
     14 CB1        13.5910   17.6860   40.1720 C.3       1 LM2500      0.0000 
     15 CB2        13.2430   17.9250   38.6260 C.3       1 LM2500      0.0000 
     16 CB3        13.2910   16.6000   37.7800 C.3       1 LM2500      0.0000 
     17 CB4        14.7350   16.0160   37.9190 C.3       1 LM2500      0.0000 
     18 CB5        14.9820   15.6980   39.5370 C.3       1 LM2500      0.0000 
     19 CB6        16.3540   15.1180   39.8180 C.3       1 LM2500      0.0000 
     20 OB2        11.9500   18.5710   38.5590 O.3       1 LM2500      0.0000 
     21 OB3        12.9890   16.9230   36.4000 O.3       1 LM2500      0.0000 
     22 OB4        14.8150   14.8200   37.1620 O.3       1 LM2500      0.0000 
     23 OB5        14.8860   16.9700   40.2910 O.3       1 LM2500      0.0000 
     24 OB6        17.3490   15.9470   39.3210 O.3       1 LM2500      0.0000 
     25 CD1        16.0640   14.7590   36.3950 C.3       1 LM2500      0.0000 
     26 CD2        15.8740   14.7870   34.8250 C.3       1 LM2500      0.0000 
     27 CD3        15.0460   13.4970   34.4010 C.3       1 LM2500      0.0000 
     28 CD4        15.8670   12.2280   34.7950 C.3       1 LM2500      0.0000 
     29 CD5        16.0960   12.2360   36.4160 C.3       1 LM2500      0.0000 
     30 CD6        16.9370   11.0050   36.8650 C.3       1 LM2500      0.0000 
     31 OD2        15.1700   16.0020   34.4990 O.3       1 LM2500      0.0000 
     32 OD3        14.8680   13.4950   33.0070 O.3       1 LM2500      0.0000 
     33 OD4        15.1380   11.0070   34.4260 O.3       1 LM2500      0.0000 
     34 OD5        16.8100   13.5050   36.7820 O.3       1 LM2500      0.0000 
     35 OD6        18.2470   11.0200   36.2860 O.3       1 LM2500      0.0000 
     36 CD7        15.8470   10.1330   33.5070 C.3       1 LM2500      0.0000 
     37 H           8.9909   17.6894   45.4249 H         1 LM2500      0.0000 
     38 H          12.0408   18.0627   44.5531 H         1 LM2500      0.0000 
     39 H          10.7157   18.2945   41.8420 H         1 LM2500      0.0000 
     40 H          13.4335   17.1440   42.5241 H         1 LM2500      0.0000 
     41 H          11.5767   15.2182   41.5062 H         1 LM2500      0.0000 
     42 H          10.2639   14.8288   43.5320 H         1 LM2500      0.0000 
     43 H          13.7565   14.7384   42.2769 H         1 LM2500      0.0000 
     44 H          12.5225   13.8454   43.1823 H         1 LM2500      0.0000 
     45 H          13.6803   18.6804   40.5976 H         1 LM2500      0.0000 
     46 H          14.0190   18.5916   38.2470 H         1 LM2500      0.0000 
     47 H          12.6056   15.9189   38.2063 H         1 LM2500      0.0000 
     48 H          15.4296   16.7567   37.6563 H         1 LM2500      0.0000 
     49 H          14.2183   15.0262   39.8332 H         1 LM2500      0.0000 
     50 H          16.3820   14.1074   39.3676 H         1 LM2500      0.0000 
     51 H          16.4318   14.9738   40.9126 H         1 LM2500      0.0000 
     52 H          16.7035   15.6094   36.6491 H         1 LM2500      0.0000 
     53 H          16.8331   14.7294   34.3857 H         1 LM2500      0.0000 
     54 H          14.1443   13.4964   34.9502 H         1 LM2500      0.0000 
     55 H          16.8256   12.2781   34.3540 H         1 LM2500      0.0000 
     56 H          15.1355   12.2001   36.8632 H         1 LM2500      0.0000 
     57 H          16.3703   10.1067   36.5756 H         1 LM2500      0.0000 
     58 H          16.9739   11.0259   37.9651 H         1 LM2500      0.0000 
     59 H          16.0525   10.5915   32.6424 H         1 LM2500      0.0000 
     60 H          16.7176    9.8215   33.8878 H         1 LM2500      0.0000 
     61 H          15.3145    9.3159   33.2861 H         1 LM2500      0.0000 
     62 H           7.9942   15.8408   45.7540 H         1 LM2500      0.0000 
     63 H           9.6217   19.3284   43.7383 H         1 LM2500      0.0000 
     64 H          11.9470   19.8815   41.4872 H         1 LM2500      0.0000 
     65 H          12.8551   15.0071   44.9379 H         1 LM2500      0.0000 
     66 H          11.3904   18.1011   39.2416 H         1 LM2500      0.0000 
     67 H          12.0695   16.5617   36.2450 H         1 LM2500      0.0000 
     68 H          17.4786   16.6459   40.0243 H         1 LM2500      0.0000 
     69 H          14.5115   16.1266   35.2412 H         1 LM2500      0.0000 
     70 H          15.7585   13.7529   32.6321 H         1 LM2500      0.0000 
     71 H          18.6709   11.8592   36.6268 H         1 LM2500      0.0000 
@<TRIPOS>BOND
     1    2    1 1    
     2    4    1 1    
     3   11    1 2    
     4    3    2 1    
     5   37    2 1    
     6   62    3 1    
     7    5    4 1    
     8    6    4 1    
     9   38    4 1    
    10   63    5 1    
    11    7    6 1    
    12    8    6 1    
    13   39    6 1    
    14   64    7 1    
    15    9    8 1    
    16   10    8 1    
    17   40    8 1    
    18   14    9 1    
    19   11   10 1    
    20   12   10 1    
    21   41   10 1    
    22   42   11 1    
    23   13   12 1    
    24   43   12 1    
    25   44   12 1    
    26   65   13 1    
    27   15   14 1    
    28   23   14 1    
    29   45   14 1    
    30   16   15 1    
    31   20   15 1    
    32   46   15 1    
    33   17   16 1    
    34   21   16 1    
    35   47   16 1    
    36   18   17 1    
    37   22   17 1    
    38   48   17 1    
    39   19   18 1    
    40   23   18 1    
    41   49   18 1    
    42   24   19 1    
    43   50   19 1    
    44   51   19 1    
    45   66   20 1    
    46   67   21 1    
    47   25   22 1    
    48   68   24 1    
    49   26   25 1    
    50   34   25 1    
    51   52   25 1    
    52   27   26 1    
    53   31   26 1    
    54   53   26 1    
    55   28   27 1    
    56   32   27 1    
    57   54   27 1    
    58   29   28 1    
    59   33   28 1    
    60   55   28 1    
    61   30   29 1    
    62   34   29 1    
    63   56   29 1    
    64   35   30 1    
    65   57   30 1    
    66   58   30 1    
    67   69   31 1    
    68   70   32 1    
    69   36   33 1    
    70   71   35 1    
    71   59   36 1    
    72   60   36 1    
    73   61   36 1    
@<TRIPOS>SUBSTRUCTURE
     1 LM2500      1 GROUP   
@<TRIPOS>SET

