#    Name: 3fhx_PXL_1_INTS_M
#    Modification time : Tue Mar 25 04:09:20 2014

@<TRIPOS>MOLECULE
3fhx_PXL_1_INTS_M
   25     0     6     0     0
SMALL
NO_CHARGES


@<TRIPOS>ATOM
      1 CA         28.5340    3.5005   38.7420 C.3       2 GLC5        0.0000 
      2 CA         28.9840    4.8050   40.4600 C.3       6 GLL5        0.0000 
      3 CA         28.0840    2.1960   37.0240 C.3       4 GLP5        0.0000 
      4 CA         27.9030    9.1910   39.4500 C.3       2 GLC5        0.0000 
      5 CA         28.8690    7.2800   39.8150 C.3       6 GLL5        0.0000 
      6 CA         26.9370   11.1020   39.0850 C.3       4 GLP5        0.0000 
      7 CA         27.4430    7.1510   38.0950 C.3       2 GLC5        0.0000 
      8 CA         26.0170    7.0220   36.3750 C.3       4 GLP5        0.0000 
      9 CA         29.0530    7.7105   41.7860 C.3       2 GLC5        0.0000 
     10 CA         29.2370    8.1410   43.7570 C.3       4 GLP5        0.0000 
     11 CA         32.6365    7.2865   36.7600 C.3       2 GLC5        0.0000 
     12 CA         30.8310    6.9110   37.7080 C.3       6 GLL5        0.0000 
     13 CA         34.4420    7.6620   35.8120 C.3       4 GLP5        0.0000 
     14 N          33.1635    4.7540   37.0320 N.am      1 SEC2        0.0000 
     15 N          31.8450    4.1180   37.4270 N.am      5 SEL2        0.0000 
     16 N          34.4820    5.3900   36.6370 N.am      3 SEP2        0.0000 
     17 N          32.2165    6.4035   35.5130 N.am      1 SEC2        0.0000 
     18 N          31.7740    6.7650   36.6870 N.am      5 SEL2        0.0000 
     19 N          32.6590    6.0420   34.3390 N.am      3 SEP2        0.0000 
     20 CA         29.8580   11.4975   37.3920 C.3       2 GLC5        0.0000 
     21 CA         30.6510    9.4310   37.1260 C.3       6 GLL5        0.0000 
     22 CA         29.0650   13.5640   37.6580 C.3       4 GLP5        0.0000 
     23 CA         32.5465    8.5465   36.4690 C.3       2 GLC5        0.0000 
     24 CA         30.1125    5.8210   36.2310 C.3       2 GLC5        0.0000 
     25 CA         29.6010    5.3030   34.3410 C.3       4 GLP5        0.0000 
@<TRIPOS>BOND
@<TRIPOS>SUBSTRUCTURE
     1 SEC2       14 GROUP        1 X    SEC  0     ROOT SEC X 2
     2 GLC5        1 GROUP        1 X    GLC  0     **** GLC X 6
     3 SEP2       16 GROUP        1 Y    SEP  0     ROOT SEP Y 9
     4 GLP5        3 GROUP        1 Y    GLP  0     **** GLP Y 13
     5 SEL2       15 GROUP        1 Z    SEL  0     ROOT SEL Z 16
     6 GLL5        2 GROUP        1 Z    GLL  0     **** GLL Z 20
@<TRIPOS>SET

