#    Name: 3fhx_PXL_1_ligand
#    Modification time : Tue Mar 25 04:09:20 2014

@<TRIPOS>MOLECULE
3fhx_PXL_1_ligand
   21    21     1     0     0
SMALL
NO_CHARGES


@<TRIPOS>ATOM
      1 OP4        28.1110    3.9630   39.7420 O.3       1 PXL313      0.0000 
      2 C5A        28.9840    4.8050   40.4600 C.3       1 PXL313      0.0000 
      3 C5         29.4290    5.9770   39.5890 C.ar      1 PXL313      0.0000 
      4 C6         28.8690    7.2800   39.8150 C.ar      1 PXL313      0.0000 
      5 N1         29.2840    8.3750   39.0030 N.ar      1 PXL313      0.0000 
      6 C2         30.2480    8.2130   37.9620 C.ar      1 PXL313      0.0000 
      7 C3         30.8310    6.9110   37.7080 C.ar      1 PXL313      0.0000 
      8 C4         30.4170    5.7670   38.5340 C.ar      1 PXL313      0.0000 
      9 C4A        30.9940    4.3260   38.3290 C.2       1 PXL313      0.0000 
     10 O4A        31.8450    4.1180   37.4270 O.2       1 PXL313      0.0000 
     11 O3         31.7740    6.7650   36.6870 O.3       1 PXL313      0.0000 
     12 C2A        30.6510    9.4310   37.1260 C.3       1 PXL313      0.0000 
     13 H          29.8920    4.2763   40.7903 H         1 PXL313      0.0000 
     14 H          28.5082    5.2252   41.3601 H         1 PXL313      0.0000 
     15 H          28.1840    7.4146   40.5478 H         1 PXL313      0.0000 
     16 H          30.5935    3.6522   38.9949 H         1 PXL313      0.0000 
     17 H          31.0475   10.1546   37.6910 H         1 PXL313      0.0000 
     18 H          31.3307    9.1961   36.4312 H         1 PXL313      0.0000 
     19 H          29.8681    9.8286   36.6475 H         1 PXL313      0.0000 
     20 H          27.1953    4.3168   39.9326 H         1 PXL313      0.0000 
     21 H          32.0492    5.8043   36.7244 H         1 PXL313      0.0000 
@<TRIPOS>BOND
     1    2    1 1    
     2   20    1 1    
     3    3    2 1    
     4   13    2 1    
     5   14    2 1    
     6    4    3 ar   
     7    8    3 ar   
     8    5    4 ar   
     9   15    4 1    
    10    6    5 ar   
    11    7    6 ar   
    12   12    6 1    
    13    8    7 ar   
    14   11    7 1    
    15    9    8 1    
    16   10    9 2    
    17   16    9 1    
    18   21   11 1    
    19   17   12 1    
    20   18   12 1    
    21   19   12 1    
@<TRIPOS>SUBSTRUCTURE
     1 PXL313      1 GROUP   
@<TRIPOS>SET

