#    Name: 3tjz_GNP_1_INTS_M
#    Modification time : Mon Mar 24 20:12:58 2014

@<TRIPOS>MOLECULE
3tjz_GNP_1_INTS_M
   76     0    15     0     0
SMALL
NO_CHARGES


@<TRIPOS>ATOM
      1 Zn          7.2245  -59.2000   -0.4960 Zn        4 ZIC7        0.0000 
      2 Zn          8.3590  -59.3060   -0.7540 Zn       14 ZIL7        0.0000 
      3 Zn          6.0900  -59.0940   -0.2380 Zn        9 ZIP7        0.0000 
      4 N           9.1850  -59.2455    0.3850 N.am      2 SEC2        0.0000 
      5 N           8.3590  -59.3060   -0.7540 N.am     12 SEL2        0.0000 
      6 N          10.0110  -59.1850    1.5240 N.am      7 SEP2        0.0000 
      7 N           7.9055  -58.8145    0.3965 N.am      2 SEC2        0.0000 
      8 N           7.4520  -58.3230    1.5470 N.am      7 SEP2        0.0000 
      9 NZ          6.8235  -62.2820   -2.5045 N.4       3 LYC4        0.0000 
     10 NZ          7.9280  -61.7110   -1.5700 N.4      13 LYL4        0.0000 
     11 NZ          5.7190  -62.8530   -3.4390 N.4       8 LYP4        0.0000 
     12 N           7.7575  -62.9970   -1.0770 N.am      2 SEC2        0.0000 
     13 N           7.9280  -61.7110   -1.5700 N.am     12 SEL2        0.0000 
     14 N           7.5870  -64.2830   -0.5840 N.am      7 SEP2        0.0000 
     15 NZ          5.8935  -61.3755   -3.8680 N.4       3 LYC4        0.0000 
     16 NZ          6.0680  -59.8980   -4.2970 N.4      13 LYL4        0.0000 
     17 N           5.7625  -59.3515   -5.6695 N.am      2 SEC2        0.0000 
     18 N           6.0680  -59.8980   -4.2970 N.am     12 SEL2        0.0000 
     19 N           5.4570  -58.8050   -7.0420 N.am      7 SEP2        0.0000 
     20 N           4.8585  -59.2740   -4.5510 N.am      2 SEC2        0.0000 
     21 N           3.6490  -58.6500   -4.8050 N.am      7 SEP2        0.0000 
     22 N           5.8935  -61.3755   -3.8680 N.am      2 SEC2        0.0000 
     23 N           5.7190  -62.8530   -3.4390 N.am      7 SEP2        0.0000 
     24 Zn          6.3045  -58.6650   -1.3525 Zn        4 ZIC7        0.0000 
     25 Zn          6.5190  -58.2360   -2.4670 Zn       14 ZIL7        0.0000 
     26 N           5.0715  -57.6485   -2.3770 N.am      2 SEC2        0.0000 
     27 N           6.5190  -58.2360   -2.4670 N.am     12 SEL2        0.0000 
     28 N           3.6240  -57.0610   -2.2870 N.am      7 SEP2        0.0000 
     29 N           6.1905  -56.7720   -1.8790 N.am      2 SEC2        0.0000 
     30 N           5.8620  -55.3080   -1.2910 N.am      7 SEP2        0.0000 
     31 N           6.5095  -58.3855   -5.8375 N.am      2 SEC2        0.0000 
     32 N           7.5620  -57.9660   -4.6330 N.am     12 SEL2        0.0000 
     33 N           4.9075  -55.2055   -3.8975 N.am      2 SEC2        0.0000 
     34 N           6.0470  -55.9860   -4.5550 N.am     12 SEL2        0.0000 
     35 N           3.7680  -54.4250   -3.2400 N.am      7 SEP2        0.0000 
     36 N           5.7820  -54.5680   -4.9030 N.am      2 SEC2        0.0000 
     37 N           5.5170  -53.1500   -5.2510 N.am      7 SEP2        0.0000 
     38 N           6.9855  -55.7020   -2.1745 N.am      2 SEC2        0.0000 
     39 N           8.1090  -56.0960   -3.0580 N.am     12 SEL2        0.0000 
     40 N           8.9010  -54.9395   -3.0270 N.am      2 SEC2        0.0000 
     41 N           9.6930  -53.7830   -2.9960 N.am      7 SEP2        0.0000 
     42 N           9.0190  -54.7610   -4.2040 N.am      2 SEC2        0.0000 
     43 N           8.3450  -55.7390   -5.4120 N.am     12 SEL2        0.0000 
     44 CA          8.9575  -58.2205   -6.6745 C.3       5 GLC5        0.0000 
     45 CA          8.5280  -56.3090   -6.6940 C.3      15 GLL5        0.0000 
     46 CA          9.3870  -60.1320   -6.6550 C.3      10 GLP5        0.0000 
     47 CA          6.6075  -56.9585   -6.7285 C.3       5 GLC5        0.0000 
     48 CA          4.6870  -57.6080   -6.7630 C.3      10 GLP5        0.0000 
     49 N          11.6035  -53.9060   -8.7330 N.am      2 SEC2        0.0000 
     50 N          10.7810  -53.4580   -7.5670 N.am     12 SEL2        0.0000 
     51 N          12.4260  -54.3540   -9.8990 N.am      7 SEP2        0.0000 
     52 CA          7.7470  -55.7120   -9.9250 C.3       5 GLC5        0.0000 
     53 CA          8.2510  -53.9320   -8.7860 C.3      15 GLL5        0.0000 
     54 CA          7.2430  -57.4920  -11.0640 C.3      10 GLP5        0.0000 
     55 N           3.6830  -55.7950   -9.5410 N.am      2 SEC2        0.0000 
     56 N           4.6880  -54.4460   -9.1790 N.am     12 SEL2        0.0000 
     57 N           2.6780  -57.1440   -9.9030 N.am      7 SEP2        0.0000 
     58 CA          5.2890  -55.5485  -11.5980 C.3       5 GLC5        0.0000 
     59 CA          5.0740  -54.0360  -10.4580 C.3      15 GLL5        0.0000 
     60 CA          5.5040  -57.0610  -12.7380 C.3      10 GLP5        0.0000 
     61 N           2.9785  -55.4245  -12.7200 N.am      2 SEC2        0.0000 
     62 N           3.1260  -53.9690  -11.8760 N.am     12 SEL2        0.0000 
     63 N           2.8310  -56.8800  -13.5640 N.am      7 SEP2        0.0000 
     64 N           1.7800  -53.6085  -11.3210 N.am      2 SEC2        0.0000 
     65 N           0.4340  -53.2480  -10.7660 N.am      7 SEP2        0.0000 
     66 O           5.0635  -53.3275  -14.3280 O.2       1 ALC1        0.0000 
     67 O           5.1590  -53.4020  -12.6870 O.2      11 ALL1        0.0000 
     68 O           4.9680  -53.2530  -15.9690 O.2       6 ALP1        0.0000 
     69 O           6.0710  -53.0200  -14.8335 O.2       1 ALC1        0.0000 
     70 O           7.1740  -52.7870  -13.6980 O.2      11 ALL1        0.0000 
     71 O           6.1275  -51.9655  -14.5595 O.2       1 ALC1        0.0000 
     72 O           5.0810  -51.1440  -15.4210 O.2       6 ALP1        0.0000 
     73 CA          6.8305  -55.6480  -10.7705 C.3       5 GLC5        0.0000 
     74 CA          6.4180  -53.8040  -10.4770 C.3      15 GLL5        0.0000 
     75 CA          5.0990  -52.0920  -10.2882 C.3       5 GLC5        0.0000 
     76 CA          4.4520  -50.2640  -10.1090 C.3      10 GLP5        0.0000 
@<TRIPOS>BOND
@<TRIPOS>SUBSTRUCTURE
     1 ALC1       66 GROUP        1 X    ALC  0     ROOT ALC X 1
     2 SEC2        4 GROUP        1 X    SEC  0     **** SEC X 2
     3 LYC4        9 GROUP        1 X    LYC  0     **** LYC X 4
     4 ZIC7        1 GROUP        1 X    ZIC  0     **** ZIC X 5
     5 GLC5       44 GROUP        1 X    GLC  0     **** GLC X 6
     6 ALP1       68 GROUP        1 Y    ALP  0     ROOT ALP Y 8
     7 SEP2        6 GROUP        1 Y    SEP  0     **** SEP Y 9
     8 LYP4       11 GROUP        1 Y    LYP  0     **** LYP Y 11
     9 ZIP7        3 GROUP        1 Y    ZIP  0     **** ZIP Y 12
    10 GLP5       46 GROUP        1 Y    GLP  0     **** GLP Y 13
    11 ALL1       67 GROUP        1 Z    ALL  0     ROOT ALL Z 15
    12 SEL2        5 GROUP        1 Z    SEL  0     **** SEL Z 16
    13 LYL4       10 GROUP        1 Z    LYL  0     **** LYL Z 18
    14 ZIL7        2 GROUP        1 Z    ZIL  0     **** ZIL Z 19
    15 GLL5       45 GROUP        1 Z    GLL  0     **** GLL Z 20
@<TRIPOS>SET

