#    Name: 3tjz_GNP_1_ligand
#    Modification time : Mon Mar 24 20:12:58 2014

@<TRIPOS>MOLECULE
3tjz_GNP_1_ligand
   44    46     1     0     0
SMALL
NO_CHARGES


@<TRIPOS>ATOM
      1 PG          8.6800  -60.4210   -1.7380 P.3       1 GNP201      0.0000 
      2 O1G        10.1130  -60.8700   -1.8180 O.co2     1 GNP201      0.0000 
      3 O2G         8.3590  -59.3060   -0.7540 O.co2     1 GNP201      0.0000 
      4 O3G         7.9280  -61.7110   -1.5700 O.co2     1 GNP201      0.0000 
      5 N3B         8.3240  -59.8590   -3.1860 N.4       1 GNP201      0.0000 
      6 PB          7.0460  -59.0120   -3.6290 P.3       1 GNP201      0.0000 
      7 O1B         6.0680  -59.8980   -4.2970 O.co2     1 GNP201      0.0000 
      8 O2B         6.5190  -58.2360   -2.4670 O.co2     1 GNP201      0.0000 
      9 O3A         7.5620  -57.9660   -4.6330 O.3       1 GNP201      0.0000 
     10 PA          7.4530  -56.4460   -4.3530 P.3       1 GNP201      0.0000 
     11 O1A         6.0470  -55.9860   -4.5550 O.co2     1 GNP201      0.0000 
     12 O2A         8.1090  -56.0960   -3.0580 O.co2     1 GNP201      0.0000 
     13 O5'         8.3450  -55.7390   -5.4120 O.3       1 GNP201      0.0000 
     14 C5'         8.5280  -56.3090   -6.6940 C.3       1 GNP201      0.0000 
     15 C4'         9.4680  -55.4350   -7.4920 C.3       1 GNP201      0.0000 
     16 O4'         8.8800  -55.1970   -8.7940 O.3       1 GNP201      0.0000 
     17 C3'         9.6610  -54.0400   -6.9300 C.3       1 GNP201      0.0000 
     18 O3'        10.7810  -53.4580   -7.5670 O.3       1 GNP201      0.0000 
     19 C2'         8.3490  -53.3900   -7.3720 C.3       1 GNP201      0.0000 
     20 O2'         8.3630  -51.9820   -7.4060 O.3       1 GNP201      0.0000 
     21 C1'         8.2510  -53.9320   -8.7860 C.3       1 GNP201      0.0000 
     22 N9          6.8680  -54.0670   -9.2080 N.pl3     1 GNP201      0.0000 
     23 C8          5.7800  -54.4510   -8.4660 C.2       1 GNP201      0.0000 
     24 N7          4.6880  -54.4460   -9.1790 N.2       1 GNP201      0.0000 
     25 C5          5.0740  -54.0360  -10.4580 C.2       1 GNP201      0.0000 
     26 C6          4.3390  -53.8280  -11.6540 C.2       1 GNP201      0.0000 
     27 O6          3.1260  -53.9690  -11.8760 O.2       1 GNP201      0.0000 
     28 N1          5.1590  -53.4020  -12.6870 N.am      1 GNP201      0.0000 
     29 C2          6.5160  -53.1990  -12.5970 C.2       1 GNP201      0.0000 
     30 N2          7.1740  -52.7870  -13.6980 N.pl3     1 GNP201      0.0000 
     31 N3          7.2050  -53.3900  -11.4910 N.2       1 GNP201      0.0000 
     32 C4          6.4180  -53.8040  -10.4770 C.2       1 GNP201      0.0000 
     33 H           7.5841  -56.3848   -7.2468 H         1 GNP201      0.0000 
     34 H           8.9649  -57.3131   -6.6370 H         1 GNP201      0.0000 
     35 H          10.4162  -55.9028   -7.6046 H         1 GNP201      0.0000 
     36 H           9.6925  -54.0925   -5.8996 H         1 GNP201      0.0000 
     37 H           7.5606  -53.8236   -6.8146 H         1 GNP201      0.0000 
     38 H           8.7766  -53.2444   -9.4360 H         1 GNP201      0.0000 
     39 H           5.8533  -54.6949   -7.5087 H         1 GNP201      0.0000 
     40 H           4.6928  -53.2166  -13.6324 H         1 GNP201      0.0000 
     41 H           6.6429  -52.2486  -14.3523 H         1 GNP201      0.0000 
     42 H           8.1349  -53.0563  -13.7629 H         1 GNP201      0.0000 
     43 H          10.4636  -52.5635   -7.8820 H         1 GNP201      0.0000 
     44 H           7.6887  -51.7333   -8.1014 H         1 GNP201      0.0000 
@<TRIPOS>BOND
     1    2    1 ar   
     2    3    1 ar   
     3    4    1 ar   
     4    5    1 1    
     5    6    5 1    
     6    7    6 ar   
     7    8    6 ar   
     8    9    6 1    
     9   10    9 1    
    10   11   10 ar   
    11   12   10 ar   
    12   13   10 1    
    13   14   13 1    
    14   15   14 1    
    15   33   14 1    
    16   34   14 1    
    17   16   15 1    
    18   17   15 1    
    19   35   15 1    
    20   21   16 1    
    21   18   17 1    
    22   19   17 1    
    23   36   17 1    
    24   43   18 1    
    25   20   19 1    
    26   21   19 1    
    27   37   19 1    
    28   44   20 1    
    29   22   21 1    
    30   38   21 1    
    31   23   22 1    
    32   32   22 1    
    33   24   23 2    
    34   39   23 1    
    35   25   24 1    
    36   26   25 1    
    37   32   25 2    
    38   27   26 2    
    39   28   26 am   
    40   29   28 1    
    41   40   28 1    
    42   30   29 1    
    43   31   29 2    
    44   41   30 1    
    45   42   30 1    
    46   32   31 1    
@<TRIPOS>SUBSTRUCTURE
     1 GNP201      1 GROUP   
@<TRIPOS>SET

