#    Name: 4fcr_0TM_1_INTS_M
#    Modification time : Mon Mar 24 19:20:04 2014

@<TRIPOS>MOLECULE
4fcr_0TM_1_INTS_M
   66     0     9     0     0
SMALL
NO_CHARGES


@<TRIPOS>ATOM
      1 CA         36.3910   12.7190   24.8620 C.3       3 GLC5        0.0000 
      2 CA         36.8800   11.3040   23.5660 C.3       9 GLL5        0.0000 
      3 CA         35.9020   14.1340   26.1580 C.3       6 GLP5        0.0000 
      4 CA         35.9700   11.7175   22.0285 C.3       3 GLC5        0.0000 
      5 CA         35.0600   12.1310   20.4910 C.3       6 GLP5        0.0000 
      6 CA         38.3885   11.6505   22.5315 C.3       3 GLC5        0.0000 
      7 CA         39.8970   11.9970   21.4970 C.3       6 GLP5        0.0000 
      8 CA         33.5520   14.3570   25.3770 C.3       3 GLC5        0.0000 
      9 CA         32.0790   13.3370   24.5680 C.3       9 GLL5        0.0000 
     10 CA         35.0250   15.3770   26.1860 C.3       6 GLP5        0.0000 
     11 CA         32.9770   13.8110   22.9375 C.3       3 GLC5        0.0000 
     12 CA         33.8750   14.2850   21.3070 C.3       6 GLP5        0.0000 
     13 CA         31.5085   14.9750   25.4595 C.3       3 GLC5        0.0000 
     14 CA         30.9380   16.6130   26.3510 C.3       6 GLP5        0.0000 
     15 CA         30.7830   12.9940   19.9770 C.3       3 GLC5        0.0000 
     16 CA         30.2750   12.1150   21.9420 C.3       9 GLL5        0.0000 
     17 CA         31.2910   13.8730   18.0120 C.3       6 GLP5        0.0000 
     18 CA         32.0750   13.2000   21.6245 C.3       3 GLC5        0.0000 
     19 N          31.6740   10.9225   20.8025 N.am      2 SEC2        0.0000 
     20 N          31.0660   12.3440   21.1290 N.am      8 SEL2        0.0000 
     21 N          32.2820    9.5010   20.4760 N.am      5 SEP2        0.0000 
     22 CA         26.7175   10.6835   22.3655 C.3       3 GLC5        0.0000 
     23 CA         27.9580   12.1200   22.8970 C.3       9 GLL5        0.0000 
     24 CA         25.4770    9.2470   21.8340 C.3       6 GLP5        0.0000 
     25 O          25.9520   11.8325   23.9710 O.2       1 ALC1        0.0000 
     26 O          27.2600   11.7010   23.9620 O.2       7 ALL1        0.0000 
     27 O          24.6440   11.9640   23.9800 O.2       4 ALP1        0.0000 
     28 CA         26.8420   10.1975   23.2945 C.3       3 GLC5        0.0000 
     29 CA         28.2070   11.1480   24.7550 C.3       9 GLL5        0.0000 
     30 CA         27.1320    9.5315   25.3550 C.3       3 GLC5        0.0000 
     31 CA         26.0570    7.9150   25.9550 C.3       6 GLP5        0.0000 
     32 CA         30.2055   11.4640   27.3960 C.3       3 GLC5        0.0000 
     33 CA         29.1330   10.0330   26.6150 C.3       9 GLL5        0.0000 
     34 CA         31.2780   12.8950   28.1770 C.3       6 GLP5        0.0000 
     35 CA         27.5815   10.2960   29.4860 C.3       3 GLC5        0.0000 
     36 CA         28.6680    9.3340   28.1170 C.3       9 GLL5        0.0000 
     37 CA         26.4950   11.2580   30.8550 C.3       6 GLP5        0.0000 
     38 CA         30.3210    4.7715   28.0395 C.3       3 GLC5        0.0000 
     39 CA         31.9860    5.4220   26.9630 C.3       9 GLL5        0.0000 
     40 CA         28.6560    4.1210   29.1160 C.3       6 GLP5        0.0000 
     41 CA         34.6685   10.9720   22.0658 C.3       3 GLC5        0.0000 
     42 CA         33.9090    9.2400   23.6870 C.3       9 GLL5        0.0000 
     43 CA         31.0785    9.5118   22.5715 C.3       3 GLC5        0.0000 
     44 CA         32.5500    9.3130   24.1570 C.3       9 GLL5        0.0000 
     45 CA         29.9050    9.0760   20.8670 C.3       6 GLP5        0.0000 
     46 CA         34.2255   11.9202   22.2758 C.3       3 GLC5        0.0000 
     47 CA         34.0560   11.6540   23.8290 C.3       9 GLL5        0.0000 
     48 CA         31.8402   12.7230   26.3035 C.3       3 GLC5        0.0000 
     49 CA         32.7260   11.7650   24.2920 C.3       9 GLL5        0.0000 
     50 CA         34.3966   12.1923   25.4609 C.3       3 GLC5        0.0000 
     51 CA         35.2550   12.9920   26.9200 C.3       6 GLP5        0.0000 
     52 CA         31.2777   11.7538   26.4010 C.3       3 GLC5        0.0000 
     53 CA         31.9540   10.5820   24.3950 C.3       9 GLL5        0.0000 
     54 CA         29.9760   10.0035   22.6868 C.3       3 GLC5        0.0000 
     55 CA         30.6010   10.6430   24.8550 C.3       9 GLL5        0.0000 
     56 CA         29.3851   10.5581   21.7710 C.3       3 GLC5        0.0000 
     57 CA         29.2700   11.8060   22.9640 C.3       9 GLL5        0.0000 
     58 CA         28.8971   13.9716   22.4595 C.3       3 GLC5        0.0000 
     59 CA         28.9290   15.9030   22.2440 C.3       6 GLP5        0.0000 
     60 CA         28.1377   13.0891   25.0020 C.3       3 GLC5        0.0000 
     61 CA         27.8370   14.6960   26.0120 C.3       6 GLP5        0.0000 
     62 CA         27.4787    8.7993   26.6605 C.3       3 GLC5        0.0000 
     63 CA         28.0100    7.8667   29.1932 C.3       3 GLC5        0.0000 
     64 CA         26.6210    6.8900   30.0280 C.3       6 GLP5        0.0000 
     65 CA         30.2235    9.9802   29.3753 C.3       3 GLC5        0.0000 
     66 CA         31.0480   11.1170   30.3920 C.3       6 GLP5        0.0000 
@<TRIPOS>BOND
@<TRIPOS>SUBSTRUCTURE
     1 ALC1       25 GROUP        1 X    ALC  0     ROOT ALC X 1
     2 SEC2       19 GROUP        1 X    SEC  0     **** SEC X 2
     3 GLC5        1 GROUP        1 X    GLC  0     **** GLC X 6
     4 ALP1       27 GROUP        1 Y    ALP  0     ROOT ALP Y 8
     5 SEP2       21 GROUP        1 Y    SEP  0     **** SEP Y 9
     6 GLP5        3 GROUP        1 Y    GLP  0     **** GLP Y 13
     7 ALL1       26 GROUP        1 Z    ALL  0     ROOT ALL Z 15
     8 SEL2       20 GROUP        1 Z    SEL  0     **** SEL Z 16
     9 GLL5        2 GROUP        1 Z    GLL  0     **** GLL Z 20
@<TRIPOS>SET

