#    Name: 4fcr_0TM_1_ligand
#    Modification time : Mon Mar 24 19:20:04 2014

@<TRIPOS>MOLECULE
4fcr_0TM_1_ligand
   47    49     1     0     0
SMALL
NO_CHARGES


@<TRIPOS>ATOM
      1 C14        33.7080    6.8120   23.3140 C.3       1 0TM301      0.0000 
      2 O1         34.5290    8.0390   23.4290 O.3       1 0TM301      0.0000 
      3 C5         33.9090    9.2400   23.6870 C.ar      1 0TM301      0.0000 
      4 C4         32.5500    9.3130   24.1570 C.ar      1 0TM301      0.0000 
      5 C6         34.6450   10.3860   23.5940 C.ar      1 0TM301      0.0000 
      6 O2         35.9770   10.2050   23.1870 O.3       1 0TM301      0.0000 
      7 C17        36.8800   11.3040   23.5660 C.3       1 0TM301      0.0000 
      8 C1         34.0560   11.6540   23.8290 C.ar      1 0TM301      0.0000 
      9 C2         32.7260   11.7650   24.2920 C.ar      1 0TM301      0.0000 
     10 CL         32.0790   13.3370   24.5680 Cl        1 0TM301      0.0000 
     11 C3         31.9540   10.5820   24.3950 C.ar      1 0TM301      0.0000 
     12 C7         30.6010   10.6430   24.8550 C.ar      1 0TM301      0.0000 
     13 N1         30.3680   10.0530   26.0640 N.ar      1 0TM301      0.0000 
     14 C9         29.4930   11.2190   24.1580 C.ar      1 0TM301      0.0000 
     15 C12        29.2700   11.8060   22.9640 C.2       1 0TM301      0.0000 
     16 C13        30.2750   12.1150   21.9420 C.1       1 0TM301      0.0000 
     17 N4         31.0660   12.3440   21.1290 N.1       1 0TM301      0.0000 
     18 C11        27.9580   12.1200   22.8970 C.2       1 0TM301      0.0000 
     19 N3         27.2600   11.7010   23.9620 N.pl3     1 0TM301      0.0000 
     20 C10        28.2070   11.1480   24.7550 C.ar      1 0TM301      0.0000 
     21 N2         28.0580   10.5280   25.8990 N.ar      1 0TM301      0.0000 
     22 C8         29.1330   10.0330   26.6150 C.ar      1 0TM301      0.0000 
     23 S          28.6680    9.3340   28.1170 S.3       1 0TM301      0.0000 
     24 C15        30.1300    8.3530   28.6000 C.3       1 0TM301      0.0000 
     25 C16        30.4430    7.1670   27.6730 C.2       1 0TM301      0.0000 
     26 O3         29.6090    6.8190   26.8410 O.2       1 0TM301      0.0000 
     27 N5         31.6430    6.5510   27.8330 N.am      1 0TM301      0.0000 
     28 C18        32.6120    6.9750   28.8670 C.3       1 0TM301      0.0000 
     29 C19        31.9860    5.4220   26.9630 C.3       1 0TM301      0.0000 
     30 H          32.0276    8.4600   24.3150 H         1 0TM301      0.0000 
     31 H          34.6071   12.5045   23.6592 H         1 0TM301      0.0000 
     32 H          27.5542   12.6142   22.1298 H         1 0TM301      0.0000 
     33 H          26.3427   11.7700   24.1251 H         1 0TM301      0.0000 
     34 H          29.8793    8.0534   29.6066 H         1 0TM301      0.0000 
     35 H          30.9093    9.1003   28.6150 H         1 0TM301      0.0000 
     36 H          34.2692    6.0059   23.1261 H         1 0TM301      0.0000 
     37 H          33.1992    6.6255   24.1544 H         1 0TM301      0.0000 
     38 H          33.0379    6.8814   22.5750 H         1 0TM301      0.0000 
     39 H          37.8166   11.1384   23.2572 H         1 0TM301      0.0000 
     40 H          36.5907   12.1756   23.1703 H         1 0TM301      0.0000 
     41 H          36.9162   11.4298   24.5574 H         1 0TM301      0.0000 
     42 H          33.4418    6.4172   28.8494 H         1 0TM301      0.0000 
     43 H          32.8954    7.9259   28.7428 H         1 0TM301      0.0000 
     44 H          32.2287    6.9013   29.7877 H         1 0TM301      0.0000 
     45 H          32.8899    5.0507   27.1753 H         1 0TM301      0.0000 
     46 H          31.3320    4.6710   27.0539 H         1 0TM301      0.0000 
     47 H          31.9968    5.6862   25.9986 H         1 0TM301      0.0000 
@<TRIPOS>BOND
     1    2    1 1    
     2   36    1 1    
     3   37    1 1    
     4   38    1 1    
     5    3    2 1    
     6    4    3 ar   
     7    5    3 ar   
     8   11    4 ar   
     9   30    4 1    
    10    6    5 1    
    11    8    5 ar   
    12    7    6 1    
    13   39    7 1    
    14   40    7 1    
    15   41    7 1    
    16    9    8 ar   
    17   31    8 1    
    18   10    9 1    
    19   11    9 ar   
    20   12   11 1    
    21   13   12 ar   
    22   14   12 ar   
    23   22   13 ar   
    24   15   14 1    
    25   20   14 ar   
    26   16   15 1    
    27   18   15 2    
    28   17   16 3    
    29   19   18 1    
    30   32   18 1    
    31   20   19 1    
    32   33   19 1    
    33   21   20 ar   
    34   22   21 ar   
    35   23   22 1    
    36   24   23 1    
    37   25   24 1    
    38   34   24 1    
    39   35   24 1    
    40   26   25 2    
    41   27   25 am   
    42   28   27 1    
    43   29   27 1    
    44   42   28 1    
    45   43   28 1    
    46   44   28 1    
    47   45   29 1    
    48   46   29 1    
    49   47   29 1    
@<TRIPOS>SUBSTRUCTURE
     1 0TM301      1 GROUP   
@<TRIPOS>SET

