#    Name: 3t3f_N5P_1_INTS_M
#    Modification time : Mon Mar 24 19:04:19 2014

@<TRIPOS>MOLECULE
3t3f_N5P_1_INTS_M
   57     0    15     0     0
SMALL
NO_CHARGES


@<TRIPOS>ATOM
      1 N          21.1505  -22.0500   -9.0530 N.am      2 SEC2        0.0000 
      2 N          20.4330  -20.6900   -8.9710 N.am     12 SEL2        0.0000 
      3 N          21.8680  -23.4100   -9.1350 N.am      7 SEP2        0.0000 
      4 CA         18.0015  -21.2515  -12.3865 C.3       5 GLC5        0.0000 
      5 CA         18.6650  -20.5730  -10.3900 C.3      15 GLL5        0.0000 
      6 CA         17.3380  -21.9300  -14.3830 C.3      10 GLP5        0.0000 
      7 O          18.4580  -23.0195  -10.2010 O.2       1 ALC1        0.0000 
      8 O          18.7110  -21.7700  -11.0790 O.2      11 ALL1        0.0000 
      9 O          18.2050  -24.2690   -9.3230 O.2       6 ALP1        0.0000 
     10 NZ         20.1085  -14.6625  -10.6000 N.4       3 LYC4        0.0000 
     11 NZ         20.8350  -15.9010  -10.5090 N.4      13 LYL4        0.0000 
     12 NZ         19.3820  -13.4240  -10.6910 N.4       8 LYP4        0.0000 
     13 N          20.1085  -14.6625  -10.6000 N.am      2 SEC2        0.0000 
     14 N          20.8350  -15.9010  -10.5090 N.am     12 SEL2        0.0000 
     15 N          19.3820  -13.4240  -10.6910 N.am      7 SEP2        0.0000 
     16 NZ         19.8755  -14.8200  -11.8300 N.4       3 LYC4        0.0000 
     17 NZ         20.3690  -16.2160  -12.9690 N.4      13 LYL4        0.0000 
     18 Zn         21.2910  -16.3540  -13.4090 Zn        4 ZIC7        0.0000 
     19 Zn         20.3690  -16.2160  -12.9690 Zn       14 ZIL7        0.0000 
     20 Zn         22.2130  -16.4920  -13.8490 Zn        9 ZIP7        0.0000 
     21 Zn         19.6890  -16.3700  -13.7545 Zn        4 ZIC7        0.0000 
     22 Zn         19.0090  -16.5240  -14.5400 Zn        9 ZIP7        0.0000 
     23 N          15.3525  -16.2725  -10.6000 N.am      2 SEC2        0.0000 
     24 N          16.2550  -17.2560  -11.2430 N.am     12 SEL2        0.0000 
     25 N          14.4500  -15.2890   -9.9570 N.am      7 SEP2        0.0000 
     26 Zn         18.3535  -17.0680  -13.8925 Zn        4 ZIC7        0.0000 
     27 Zn         17.6980  -17.6120  -13.2450 Zn       14 ZIL7        0.0000 
     28 N          15.7745  -16.1145  -13.7660 N.am      2 SEC2        0.0000 
     29 N          16.6050  -15.2840  -12.8640 N.am     12 SEL2        0.0000 
     30 N          14.9440  -16.9450  -14.6680 N.am      7 SEP2        0.0000 
     31 NZ         19.0070  -14.0905  -12.4985 N.4       3 LYC4        0.0000 
     32 NZ         18.6320  -14.7570  -14.3060 N.4      13 LYL4        0.0000 
     33 Zn         18.8205  -15.6405  -14.4230 Zn        4 ZIC7        0.0000 
     34 Zn         18.6320  -14.7570  -14.3060 Zn       14 ZIL7        0.0000 
     35 NZ         17.2650  -11.9240  -12.4645 N.4       3 LYC4        0.0000 
     36 NZ         17.9080  -13.0780  -12.6490 N.4      13 LYL4        0.0000 
     37 NZ         15.3200  -10.6600  -12.5090 N.4       8 LYP4        0.0000 
     38 NZ         18.6450  -13.2510  -11.6700 N.4       3 LYC4        0.0000 
     39 N          17.2650  -11.9240  -12.4645 N.am      2 SEC2        0.0000 
     40 N          17.9080  -13.0780  -12.6490 N.am     12 SEL2        0.0000 
     41 N          16.6220  -10.7700  -12.2800 N.am      7 SEP2        0.0000 
     42 N          18.6450  -13.2510  -11.6700 N.am      2 SEC2        0.0000 
     43 NZ         15.5970  -12.5690  -13.8520 N.4       3 LYC4        0.0000 
     44 NZ         16.5240  -13.4880  -14.6010 N.4      13 LYL4        0.0000 
     45 N          15.5970  -12.5690  -13.8520 N.am      2 SEC2        0.0000 
     46 N          16.5240  -13.4880  -14.6010 N.am     12 SEL2        0.0000 
     47 N          14.6700  -11.6500  -13.1030 N.am      7 SEP2        0.0000 
     48 CA         16.8432  -19.0970   -4.0110 C.3       5 GLC5        0.0000 
     49 CA         19.1170  -18.7320   -3.7050 C.3      15 GLL5        0.0000 
     50 CA         14.8620  -18.9010   -4.6260 C.3      10 GLP5        0.0000 
     51 CA         16.6212  -19.9730   -4.5628 C.3       5 GLC5        0.0000 
     52 CA         18.2350  -21.0210   -3.8220 C.3      15 GLL5        0.0000 
     53 CA         17.3272  -22.1258  -10.1293 C.3       5 GLC5        0.0000 
     54 CA         18.0980  -20.6800   -9.0190 C.3      15 GLL5        0.0000 
     55 CA         16.2730  -23.6250  -10.5540 C.3      10 GLP5        0.0000 
     56 CA         17.3646  -19.3964   -8.8159 C.3       5 GLC5        0.0000 
     57 CA         16.0430  -18.1390   -8.1450 C.3      10 GLP5        0.0000 
@<TRIPOS>BOND
@<TRIPOS>SUBSTRUCTURE
     1 ALC1        7 GROUP        1 X    ALC  0     ROOT ALC X 1
     2 SEC2        1 GROUP        1 X    SEC  0     **** SEC X 2
     3 LYC4       10 GROUP        1 X    LYC  0     **** LYC X 4
     4 ZIC7       18 GROUP        1 X    ZIC  0     **** ZIC X 5
     5 GLC5        4 GROUP        1 X    GLC  0     **** GLC X 6
     6 ALP1        9 GROUP        1 Y    ALP  0     ROOT ALP Y 8
     7 SEP2        3 GROUP        1 Y    SEP  0     **** SEP Y 9
     8 LYP4       12 GROUP        1 Y    LYP  0     **** LYP Y 11
     9 ZIP7       20 GROUP        1 Y    ZIP  0     **** ZIP Y 12
    10 GLP5        6 GROUP        1 Y    GLP  0     **** GLP Y 13
    11 ALL1        8 GROUP        1 Z    ALL  0     ROOT ALL Z 15
    12 SEL2        2 GROUP        1 Z    SEL  0     **** SEL Z 16
    13 LYL4       11 GROUP        1 Z    LYL  0     **** LYL Z 18
    14 ZIL7       19 GROUP        1 Z    ZIL  0     **** ZIL Z 19
    15 GLL5        5 GROUP        1 Z    GLL  0     **** GLL Z 20
@<TRIPOS>SET

