#    Name: 3t3f_N5P_1_ligand
#    Modification time : Mon Mar 24 19:04:19 2014

@<TRIPOS>MOLECULE
3t3f_N5P_1_ligand
   45    47     1     0     0
SMALL
NO_CHARGES


@<TRIPOS>ATOM
      1 OR2        17.5970  -20.7600   -1.2170 O.2       1 N5P836      0.0000 
      2 NRO        18.2210  -19.8290   -1.6890 N.pl3     1 N5P836      0.0000 
      3 OR1        18.5660  -18.8870   -0.9970 O.2       1 N5P836      0.0000 
      4 CZ3        18.5320  -19.8540   -3.0870 C.ar      1 N5P836      0.0000 
      5 CE3        19.1170  -18.7320   -3.7050 C.ar      1 N5P836      0.0000 
      6 CD2        19.4010  -18.7950   -5.0620 C.ar      1 N5P836      0.0000 
      7 CH2        18.2350  -21.0210   -3.8220 C.ar      1 N5P836      0.0000 
      8 CZ2        18.5260  -21.0690   -5.1770 C.ar      1 N5P836      0.0000 
      9 CE2        19.0900  -19.9810   -5.7620 C.ar      1 N5P836      0.0000 
     10 NE1        19.4550  -19.7760   -7.0900 N.pl3     1 N5P836      0.0000 
     11 CD1        19.9910  -18.5120   -7.2230 C.2       1 N5P836      0.0000 
     12 CG         19.9770  -17.8600   -6.0120 C.2       1 N5P836      0.0000 
     13 C1'        19.3170  -20.7890   -8.1480 C.3       1 N5P836      0.0000 
     14 O4'        20.4330  -20.6900   -8.9710 O.3       1 N5P836      0.0000 
     15 C4'        20.0470  -20.1160  -10.1720 C.3       1 N5P836      0.0000 
     16 C3'        18.6650  -20.5730  -10.3900 C.3       1 N5P836      0.0000 
     17 O3'        18.7110  -21.7700  -11.0790 O.3       1 N5P836      0.0000 
     18 C2'        18.0980  -20.6800   -9.0190 C.3       1 N5P836      0.0000 
     19 C5'        20.0890  -18.6180  -10.0680 C.3       1 N5P836      0.0000 
     20 O5'        19.9250  -18.1280  -11.3530 O.3       1 N5P836      0.0000 
     21 PA         19.8980  -16.5700  -11.5430 P.3       1 N5P836      0.0000 
     22 O1A        20.8350  -15.9010  -10.5090 O.co2     1 N5P836      0.0000 
     23 O2A        20.3690  -16.2160  -12.9690 O.co2     1 N5P836      0.0000 
     24 O3A        18.4500  -16.0690  -11.3000 O.3       1 N5P836      0.0000 
     25 PB         17.2540  -16.5580  -12.1920 P.3       1 N5P836      0.0000 
     26 O1B        16.2550  -17.2560  -11.2430 O.co2     1 N5P836      0.0000 
     27 O2B        17.6980  -17.6120  -13.2450 O.co2     1 N5P836      0.0000 
     28 O3B        16.6050  -15.2840  -12.8640 O.3       1 N5P836      0.0000 
     29 PG         17.4270  -14.1570  -13.5970 P.3       1 N5P836      0.0000 
     30 O3G        18.6320  -14.7570  -14.3060 O.co2     1 N5P836      0.0000 
     31 O2G        17.9080  -13.0780  -12.6490 O.co2     1 N5P836      0.0000 
     32 O1G        16.5240  -13.4880  -14.6010 O.co2     1 N5P836      0.0000 
     33 H          19.3230  -17.8992   -3.1613 H         1 N5P836      0.0000 
     34 H          17.8079  -21.8206   -3.3487 H         1 N5P836      0.0000 
     35 H          18.3143  -21.9159   -5.7152 H         1 N5P836      0.0000 
     36 H          20.3274  -18.1400   -8.0492 H         1 N5P836      0.0000 
     37 H          20.2633  -17.0064   -5.7998 H         1 N5P836      0.0000 
     38 H          19.3063  -21.7872   -7.6804 H         1 N5P836      0.0000 
     39 H          20.6576  -20.4362  -10.9866 H         1 N5P836      0.0000 
     40 H          18.1431  -19.7944  -10.9186 H         1 N5P836      0.0000 
     41 H          17.5530  -19.7981   -8.7709 H         1 N5P836      0.0000 
     42 H          17.5072  -21.5626   -8.9276 H         1 N5P836      0.0000 
     43 H          21.0477  -18.3375   -9.6278 H         1 N5P836      0.0000 
     44 H          19.2919  -18.3047   -9.3912 H         1 N5P836      0.0000 
     45 H          18.5673  -22.4743  -10.3838 H         1 N5P836      0.0000 
@<TRIPOS>BOND
     1    2    1 2    
     2    3    2 2    
     3    4    2 1    
     4    5    4 ar   
     5    7    4 ar   
     6    6    5 ar   
     7   33    5 1    
     8    9    6 ar   
     9   12    6 1    
    10    8    7 ar   
    11   34    7 1    
    12    9    8 ar   
    13   35    8 1    
    14   10    9 1    
    15   11   10 1    
    16   13   10 1    
    17   12   11 2    
    18   36   11 1    
    19   37   12 1    
    20   14   13 1    
    21   18   13 1    
    22   38   13 1    
    23   15   14 1    
    24   16   15 1    
    25   19   15 1    
    26   39   15 1    
    27   17   16 1    
    28   18   16 1    
    29   40   16 1    
    30   45   17 1    
    31   41   18 1    
    32   42   18 1    
    33   20   19 1    
    34   43   19 1    
    35   44   19 1    
    36   21   20 1    
    37   22   21 ar   
    38   23   21 ar   
    39   24   21 1    
    40   25   24 1    
    41   26   25 ar   
    42   27   25 ar   
    43   28   25 1    
    44   29   28 1    
    45   30   29 ar   
    46   31   29 ar   
    47   32   29 ar   
@<TRIPOS>SUBSTRUCTURE
     1 N5P836      1 GROUP   
@<TRIPOS>SET

