#    Name: 4gkt_0O1_1_INTS_M
#    Modification time : Mon Mar 24 22:25:28 2014

@<TRIPOS>MOLECULE
4gkt_0O1_1_INTS_M
   72     0    12     0     0
SMALL
NO_CHARGES


@<TRIPOS>ATOM
      1 CA         12.3960   12.6575   17.9920 C.3       4 GLC5        0.0000 
      2 CA         12.5790   14.7090   17.9380 C.3      12 GLL5        0.0000 
      3 CA         12.2130   10.6060   18.0460 C.3       8 GLP5        0.0000 
      4 CA         11.7850   14.3435   19.8410 C.3       4 GLC5        0.0000 
      5 CA         10.9910   13.9780   21.7440 C.3       8 GLP5        0.0000 
      6 OD1        14.8885   13.1845   17.3740 O.co2     3 ASC3        0.0000 
      7 OD1        13.9280   14.7050   17.3550 O.co2    11 ASL3        0.0000 
      8 OD1        15.8490   11.6640   17.3930 O.co2     7 ASP3        0.0000 
      9 OD1        14.1940   13.6050   16.6360 O.co2     3 ASC3        0.0000 
     10 OD1        14.4600   12.5050   15.9170 O.co2     7 ASP3        0.0000 
     11 CA         16.6235   14.2250   19.3850 C.3       4 GLC5        0.0000 
     12 CA         14.9590   14.9030   18.3880 C.3      12 GLL5        0.0000 
     13 CA         18.2880   13.5470   20.3820 C.3       8 GLP5        0.0000 
     14 CA         16.5120   14.6500   17.1300 C.3       4 GLC5        0.0000 
     15 CA         18.0650   14.3970   15.8720 C.3       8 GLP5        0.0000 
     16 CA         14.8370   18.2490   19.3695 C.3       4 GLC5        0.0000 
     17 CA         14.8110   16.3240   18.9830 C.3      12 GLL5        0.0000 
     18 CA         14.8630   20.1740   19.7560 C.3       8 GLP5        0.0000 
     19 O          17.0190   17.1810   25.0770 O.2       1 ALC1        0.0000 
     20 O          16.8340   17.0230   23.7280 O.2       9 ALL1        0.0000 
     21 O          17.2040   17.3390   26.4260 O.2       5 ALP1        0.0000 
     22 CA         15.6750   18.4960   19.9025 C.3       4 GLC5        0.0000 
     23 CA         17.0920   17.3240   18.7620 C.3      12 GLL5        0.0000 
     24 CA         14.2580   19.6680   21.0430 C.3       8 GLP5        0.0000 
     25 CA         17.5785   15.8605   17.3170 C.3       4 GLC5        0.0000 
     26 CA         16.9605   19.6890   16.0525 C.3       4 GLC5        0.0000 
     27 CA         17.8990   18.2680   14.7490 C.3      12 GLL5        0.0000 
     28 CA         16.0220   21.1100   17.3560 C.3       8 GLP5        0.0000 
     29 CA         17.9820   16.3325   15.3105 C.3       4 GLC5        0.0000 
     30 N          19.4100   17.9025   24.8320 N.am      2 SEC2        0.0000 
     31 N          18.9590   17.7440   23.3840 N.am     10 SEL2        0.0000 
     32 N          19.8610   18.0610   26.2800 N.am      6 SEP2        0.0000 
     33 N          20.3370   17.7655   23.1470 N.am      2 SEC2        0.0000 
     34 N          21.7150   17.7870   22.9100 N.am      6 SEP2        0.0000 
     35 O          13.7585   15.8810   22.7730 O.2       1 ALC1        0.0000 
     36 O          14.6640   16.2710   24.1250 O.2       9 ALL1        0.0000 
     37 O          12.8530   15.4910   21.4210 O.2       5 ALP1        0.0000 
     38 O          13.6670   15.4185   23.7375 O.2       1 ALC1        0.0000 
     39 O          12.6700   14.5660   23.3500 O.2       5 ALP1        0.0000 
     40 O          14.8500   16.7955   25.4530 O.2       1 ALC1        0.0000 
     41 O          15.0360   17.3200   26.7810 O.2       5 ALP1        0.0000 
     42 CA         10.5420   14.3340   19.6390 C.3       4 GLC5        0.0000 
     43 CA         10.0930   14.6900   17.5340 C.3      12 GLL5        0.0000 
     44 CA         17.2405   15.2503   20.3475 C.3       4 GLC5        0.0000 
     45 CA         16.3430   16.9720   21.0070 C.3      12 GLL5        0.0000 
     46 CA         15.5798   18.4151   20.9657 C.3       4 GLC5        0.0000 
     47 CA         16.0430   16.9350   19.6190 C.3      12 GLL5        0.0000 
     48 CA         18.2032   15.5550   20.7040 C.3       4 GLC5        0.0000 
     49 CA         18.6270   17.7550   20.5880 C.3      12 GLL5        0.0000 
     50 CA         18.6626   19.2695   21.0795 C.3       4 GLC5        0.0000 
     51 CA         17.6100   17.3710   21.4640 C.3      12 GLL5        0.0000 
     52 CA         19.0990   20.8940   22.0360 C.3       8 GLP5        0.0000 
     53 CA         18.0005   15.5363   19.6865 C.3       4 GLC5        0.0000 
     54 CA         18.3340   17.7270   19.2200 C.3      12 GLL5        0.0000 
     55 CA         20.1973   18.0275   14.8353 C.3       4 GLC5        0.0000 
     56 CA         22.1700   17.4050   15.4980 C.3       8 GLP5        0.0000 
     57 CA         17.6455   15.7980   10.7677 C.3       4 GLC5        0.0000 
     58 CA         17.2060   17.6290   10.3430 C.3      12 GLL5        0.0000 
     59 CA         17.7100   13.8860   10.6130 C.3       8 GLP5        0.0000 
     60 CA         15.0466   17.6007   10.2500 C.3       4 GLC5        0.0000 
     61 CA         13.4400   16.8390   10.1100 C.3       8 GLP5        0.0000 
     62 CA          8.0723   15.0998   17.9387 C.3       4 GLC5        0.0000 
     63 CA          9.1700   15.2870   16.4930 C.3      12 GLL5        0.0000 
     64 CA          6.5130   15.2110   18.8640 C.3       8 GLP5        0.0000 
     65 CA         11.4192   15.9418   13.8715 C.3       4 GLC5        0.0000 
     66 CA         10.0420   16.3000   15.7470 C.3      12 GLL5        0.0000 
     67 CA         12.0750   15.7930   11.8870 C.3       8 GLP5        0.0000 
     68 CA          9.9595   13.2300   17.5494 C.3       4 GLC5        0.0000 
     69 CA          9.9420   11.4840   18.2540 C.3       8 GLP5        0.0000 
     70 CA          9.9871   14.2396   15.0117 C.3       4 GLC5        0.0000 
     71 CA         11.4750   14.6400   16.8590 C.3      12 GLL5        0.0000 
     72 CA          9.6040   12.9460   13.6730 C.3       8 GLP5        0.0000 
@<TRIPOS>BOND
@<TRIPOS>SUBSTRUCTURE
     1 ALC1       19 GROUP        1 X    ALC  0     ROOT ALC X 1
     2 SEC2       30 GROUP        1 X    SEC  0     **** SEC X 2
     3 ASC3        6 GROUP        1 X    ASC  0     **** ASC X 3
     4 GLC5        1 GROUP        1 X    GLC  0     **** GLC X 6
     5 ALP1       21 GROUP        1 Y    ALP  0     ROOT ALP Y 8
     6 SEP2       32 GROUP        1 Y    SEP  0     **** SEP Y 9
     7 ASP3        8 GROUP        1 Y    ASP  0     **** ASP Y 10
     8 GLP5        3 GROUP        1 Y    GLP  0     **** GLP Y 13
     9 ALL1       20 GROUP        1 Z    ALL  0     ROOT ALL Z 15
    10 SEL2       31 GROUP        1 Z    SEL  0     **** SEL Z 16
    11 ASL3        7 GROUP        1 Z    ASL  0     **** ASL Z 17
    12 GLL5        2 GROUP        1 Z    GLL  0     **** GLL Z 20
@<TRIPOS>SET

