#    Name: 4gkt_0O1_1_ligand
#    Modification time : Mon Mar 24 22:25:28 2014

@<TRIPOS>MOLECULE
4gkt_0O1_1_ligand
   63    67     1     0     0
SMALL
NO_CHARGES


@<TRIPOS>ATOM
      1 C1         12.5790   14.7090   17.9380 C.3       1 0O1403      0.0000 
      2 N1         13.9280   14.7050   17.3550 N.4       1 0O1403      0.0000 
      3 C2         14.9590   14.9030   18.3880 C.3       1 0O1403      0.0000 
      4 C3         14.8110   16.3240   18.9830 C.3       1 0O1403      0.0000 
      5 C4         16.0430   16.9350   19.6190 C.ar      1 0O1403      0.0000 
      6 C5         16.3430   16.9720   21.0070 C.ar      1 0O1403      0.0000 
      7 N2         15.3560   16.5850   21.9500 N.2       1 0O1403      0.0000 
      8 C6         15.6270   16.6260   23.2210 C.2       1 0O1403      0.0000 
      9 N3         16.8340   17.0230   23.7280 N.am      1 0O1403      0.0000 
     10 C7         17.8810   17.4040   22.9050 C.2       1 0O1403      0.0000 
     11 C8         17.6100   17.3710   21.4640 C.ar      1 0O1403      0.0000 
     12 C9         18.6270   17.7550   20.5880 C.ar      1 0O1403      0.0000 
     13 C10        18.3340   17.7270   19.2200 C.ar      1 0O1403      0.0000 
     14 C11        17.0920   17.3240   18.7620 C.ar      1 0O1403      0.0000 
     15 N4         17.1590   17.4190   17.3900 N.pl3     1 0O1403      0.0000 
     16 C12        18.4260   17.8690   17.0890 C.2       1 0O1403      0.0000 
     17 N5         19.1440   18.0590   18.1670 N.2       1 0O1403      0.0000 
     18 N6         18.8620   18.0810   15.8200 N.pl3     1 0O1403      0.0000 
     19 C13        17.8990   18.2680   14.7490 C.3       1 0O1403      0.0000 
     20 O1         18.9590   17.7440   23.3840 O.2       1 0O1403      0.0000 
     21 C14        11.4750   14.6400   16.8590 C.3       1 0O1403      0.0000 
     22 N7         14.6640   16.2710   24.1250 N.pl3     1 0O1403      0.0000 
     23 C15        18.5500   19.0320   13.5960 C.3       1 0O1403      0.0000 
     24 C16        17.7200   18.8760   12.3370 C.ar      1 0O1403      0.0000 
     25 C17        15.9820   19.6390   10.8550 C.ar      1 0O1403      0.0000 
     26 C18        16.7330   19.8000   12.0140 C.ar      1 0O1403      0.0000 
     27 C19        16.2190   18.5530   10.0190 C.ar      1 0O1403      0.0000 
     28 C20        17.9560   17.7910   11.5020 C.ar      1 0O1403      0.0000 
     29 C21        17.2060   17.6290   10.3430 C.ar      1 0O1403      0.0000 
     30 C22        10.0930   14.6900   17.5340 C.3       1 0O1403      0.0000 
     31 C23        11.4850   15.8810   15.9650 C.3       1 0O1403      0.0000 
     32 C24         9.1700   15.2870   16.4930 C.3       1 0O1403      0.0000 
     33 C25        10.0420   16.3000   15.7470 C.3       1 0O1403      0.0000 
     34 H          12.4128   15.6207   18.5301 H         1 0O1403      0.0000 
     35 H          12.4430   13.8509   18.6123 H         1 0O1403      0.0000 
     36 H          15.9557   14.8166   17.9666 H         1 0O1403      0.0000 
     37 H          14.8455   14.1864   19.1955 H         1 0O1403      0.0000 
     38 H          13.9871   16.2964   19.7344 H         1 0O1403      0.0000 
     39 H          14.4453   16.9979   18.1730 H         1 0O1403      0.0000 
     40 H          16.9774   17.0419   24.7632 H         1 0O1403      0.0000 
     41 H          19.5311   18.0395   20.9239 H         1 0O1403      0.0000 
     42 H          16.4727   17.2160   16.7763 H         1 0O1403      0.0000 
     43 H          19.8544   18.1161   15.5768 H         1 0O1403      0.0000 
     44 H          17.0336   18.8413   15.0912 H         1 0O1403      0.0000 
     45 H          17.5446   17.3084   14.3640 H         1 0O1403      0.0000 
     46 H          11.5514   13.7767   16.2843 H         1 0O1403      0.0000 
     47 H          14.7236   16.7042   25.0244 H         1 0O1403      0.0000 
     48 H          13.9848   15.6095   23.8073 H         1 0O1403      0.0000 
     49 H          19.5482   18.6382   13.4265 H         1 0O1403      0.0000 
     50 H          18.6193   20.0836   13.8598 H         1 0O1403      0.0000 
     51 H          15.2520   20.3221   10.6159 H         1 0O1403      0.0000 
     52 H          16.5581   20.6030   12.6324 H         1 0O1403      0.0000 
     53 H          15.6642   18.4337    9.1616 H         1 0O1403      0.0000 
     54 H          18.6862   17.1069   11.7414 H         1 0O1403      0.0000 
     55 H          17.3811   16.8258    9.7251 H         1 0O1403      0.0000 
     56 H          10.1427   15.3229   18.3894 H         1 0O1403      0.0000 
     57 H           9.7844   13.6995   17.7761 H         1 0O1403      0.0000 
     58 H          11.9406   15.6372   15.0212 H         1 0O1403      0.0000 
     59 H          12.0239   16.6714   16.4577 H         1 0O1403      0.0000 
     60 H           8.3627   15.7937   16.9657 H         1 0O1403      0.0000 
     61 H           8.8437   14.5335   15.8166 H         1 0O1403      0.0000 
     62 H           9.8072   16.2699   14.7007 H         1 0O1403      0.0000 
     63 H           9.8802   17.2786   16.1557 H         1 0O1403      0.0000 
@<TRIPOS>BOND
     1    2    1 1    
     2   21    1 1    
     3   34    1 1    
     4   35    1 1    
     5    3    2 1    
     6    4    3 1    
     7   36    3 1    
     8   37    3 1    
     9    5    4 1    
    10   38    4 1    
    11   39    4 1    
    12    6    5 ar   
    13   14    5 ar   
    14    7    6 1    
    15   11    6 ar   
    16    8    7 2    
    17    9    8 1    
    18   22    8 1    
    19   10    9 am   
    20   40    9 1    
    21   11   10 1    
    22   20   10 2    
    23   12   11 ar   
    24   13   12 ar   
    25   41   12 1    
    26   14   13 ar   
    27   17   13 1    
    28   15   14 1    
    29   16   15 1    
    30   42   15 1    
    31   17   16 2    
    32   18   16 1    
    33   19   18 1    
    34   43   18 1    
    35   23   19 1    
    36   44   19 1    
    37   45   19 1    
    38   30   21 1    
    39   31   21 1    
    40   46   21 1    
    41   47   22 1    
    42   48   22 1    
    43   24   23 1    
    44   49   23 1    
    45   50   23 1    
    46   26   24 ar   
    47   28   24 ar   
    48   26   25 ar   
    49   27   25 ar   
    50   51   25 1    
    51   52   26 1    
    52   29   27 ar   
    53   53   27 1    
    54   29   28 ar   
    55   54   28 1    
    56   55   29 1    
    57   32   30 1    
    58   56   30 1    
    59   57   30 1    
    60   33   31 1    
    61   58   31 1    
    62   59   31 1    
    63   33   32 1    
    64   60   32 1    
    65   61   32 1    
    66   62   33 1    
    67   63   33 1    
@<TRIPOS>SUBSTRUCTURE
     1 0O1403      1 GROUP   
@<TRIPOS>SET

