#    Name: 3fmm_XI2_1_INTS_M
#    Modification time : Tue Mar 25 06:05:54 2014

@<TRIPOS>MOLECULE
3fmm_XI2_1_INTS_M
   82     0     9     0     0
SMALL
NO_CHARGES


@<TRIPOS>ATOM
      1 CA         13.5255   12.2760   29.5395 C.3       3 GLC5        0.0000 
      2 CA         14.1420   10.5140   30.5890 C.3       9 GLL5        0.0000 
      3 CA         12.9090   14.0380   28.4900 C.3       6 GLP5        0.0000 
      4 CA         12.5875   10.4315   29.9160 C.3       3 GLC5        0.0000 
      5 CA         11.0330   10.3490   29.2430 C.3       6 GLP5        0.0000 
      6 CA         13.6725    9.0210   31.6730 C.3       3 GLC5        0.0000 
      7 CA         13.2030    7.5280   32.7570 C.3       6 GLP5        0.0000 
      8 CA         15.1390    9.1220   29.8455 C.3       3 GLC5        0.0000 
      9 CA         16.1360    7.7300   29.1020 C.3       6 GLP5        0.0000 
     10 CA         15.0340   12.3460   28.1640 C.3       3 GLC5        0.0000 
     11 CA         16.0010   11.7600   29.7690 C.3       9 GLL5        0.0000 
     12 CA         14.0670   12.9320   26.5590 C.3       6 GLP5        0.0000 
     13 CA         14.6695    9.0490   32.3135 C.3       3 GLC5        0.0000 
     14 CA         16.1360   10.5700   31.8700 C.3       9 GLL5        0.0000 
     15 CA         19.3715   10.6595   34.3120 C.3       3 GLC5        0.0000 
     16 CA         18.1460   10.6420   33.1170 C.3       9 GLL5        0.0000 
     17 CA         20.5970   10.6770   35.5070 C.3       6 GLP5        0.0000 
     18 CA         17.0780    9.5910   34.6950 C.3       3 GLC5        0.0000 
     19 CA         16.0100    8.5400   36.2730 C.3       6 GLP5        0.0000 
     20 CA         20.4980   11.0170   33.3575 C.3       3 GLC5        0.0000 
     21 CA         20.3990   11.3570   31.2080 C.3       9 GLL5        0.0000 
     22 CA         19.9485    9.4190   32.2510 C.3       3 GLC5        0.0000 
     23 CA         19.4980    7.4810   33.2940 C.3       6 GLP5        0.0000 
     24 CA         20.6435   11.8275   29.5045 C.3       3 GLC5        0.0000 
     25 CA         20.8880   12.2980   27.8010 C.3       6 GLP5        0.0000 
     26 CA         19.3135    8.7105   30.2390 C.3       3 GLC5        0.0000 
     27 CA         21.1820    9.1860   30.7500 C.3       9 GLL5        0.0000 
     28 CA         17.4450    8.2350   29.7280 C.3       6 GLP5        0.0000 
     29 CA         21.0350   10.7420   29.2755 C.3       3 GLC5        0.0000 
     30 O          20.5505    6.8155   30.0105 O.2       1 ALC1        0.0000 
     31 O          21.2740    7.8930   30.3940 O.2       7 ALL1        0.0000 
     32 O          19.8270    5.7380   29.6270 O.2       4 ALP1        0.0000 
     33 N          22.9415    6.1400   30.2445 N.am      2 SEC2        0.0000 
     34 N          22.6000    7.4420   30.5570 N.am      8 SEL2        0.0000 
     35 N          23.2830    4.8380   29.9320 N.am      5 SEP2        0.0000 
     36 CA         23.2030   12.5645   32.5430 C.3       3 GLC5        0.0000 
     37 CA         22.7120   10.9350   31.6030 C.3       9 GLL5        0.0000 
     38 CA         23.6940   14.1940   33.4830 C.3       6 GLP5        0.0000 
     39 CA         21.6545   10.8060   33.5550 C.3       3 GLC5        0.0000 
     40 CA         21.8000   11.6165   29.7020 C.3       3 GLC5        0.0000 
     41 O          25.1835    7.0500   31.0185 O.2       1 ALC1        0.0000 
     42 O          24.6290    8.3490   31.2840 O.2       7 ALL1        0.0000 
     43 O          25.7380    5.7510   30.7530 O.2       4 ALP1        0.0000 
     44 CA         26.1885   11.6185   30.4910 C.3       3 GLC5        0.0000 
     45 CA         25.7930    9.9100   29.8450 C.3       9 GLL5        0.0000 
     46 CA         26.5840   13.3270   31.1370 C.3       6 GLP5        0.0000 
     47 CA         27.4910   10.8755   28.7745 C.3       3 GLC5        0.0000 
     48 CA         29.1890   11.8410   27.7040 C.3       6 GLP5        0.0000 
     49 CA         25.2095    9.4305   28.0095 C.3       3 GLC5        0.0000 
     50 CA         24.6260    8.9510   26.1740 C.3       6 GLP5        0.0000 
     51 CA         24.5815   11.1680   28.6560 C.3       3 GLC5        0.0000 
     52 CA         23.3700   12.4260   27.4670 C.3       6 GLP5        0.0000 
     53 CA         28.3020    8.1025   30.6265 C.3       3 GLC5        0.0000 
     54 CA         26.9610    8.8900   31.8300 C.3       9 GLL5        0.0000 
     55 CA         29.6430    7.3150   29.4230 C.3       6 GLP5        0.0000 
     56 CA         25.6670    7.8440   35.6100 C.3       3 GLC5        0.0000 
     57 CA         26.2140    7.1010   33.7900 C.3       9 GLL5        0.0000 
     58 CA         25.1200    8.5870   37.4300 C.3       6 GLP5        0.0000 
     59 CA         24.5495    6.1525   33.8455 C.3       3 GLC5        0.0000 
     60 CA         22.8850    5.2040   33.9010 C.3       6 GLP5        0.0000 
     61 CA         15.9560   11.8598   32.9880 C.3       3 GLC5        0.0000 
     62 CA         15.4080   10.9470   30.7400 C.3       9 GLL5        0.0000 
     63 CA         16.1400   12.9610   34.6710 C.3       6 GLP5        0.0000 
     64 CA         16.5748    9.7942   29.9913 C.3       3 GLC5        0.0000 
     65 CA         16.8960   11.2993   28.1112 C.3       3 GLC5        0.0000 
     66 CA         17.1330   10.6200   26.3700 C.3       6 GLP5        0.0000 
     67 CA         17.0745   13.4618   31.8525 C.3       3 GLC5        0.0000 
     68 CA         17.3170   12.1970   29.9360 C.3       9 GLL5        0.0000 
     69 CA         16.4680   14.9160   33.2040 C.3       6 GLP5        0.0000 
     70 CA         17.5630   10.1212   30.1145 C.3       3 GLC5        0.0000 
     71 CA         18.0450   11.8180   31.0660 C.3       9 GLL5        0.0000 
     72 CA         19.2845   12.1527   29.1510 C.3       3 GLC5        0.0000 
     73 CA         13.8863   11.3786   31.9446 C.3       3 GLC5        0.0000 
     74 CA         12.3170   12.1070   32.6220 C.3       6 GLP5        0.0000 
     75 CA         18.6483    9.1527   32.9330 C.3       3 GLC5        0.0000 
     76 CA         17.4510   11.0070   32.0270 C.3       9 GLL5        0.0000 
     77 CA         16.9693   11.8927   33.6215 C.3       3 GLC5        0.0000 
     78 CA         17.4574    9.4751   31.1304 C.3       3 GLC5        0.0000 
     79 CA         20.6750    8.4433   32.1290 C.3       3 GLC5        0.0000 
     80 CA         26.8382   10.8475   31.7575 C.3       3 GLC5        0.0000 
     81 CA         25.6260    9.4040   31.2740 C.3       9 GLL5        0.0000 
     82 CA         27.3830   12.5480   31.9630 C.3       6 GLP5        0.0000 
@<TRIPOS>BOND
@<TRIPOS>SUBSTRUCTURE
     1 ALC1       30 GROUP        1 X    ALC  0     ROOT ALC X 1
     2 SEC2       33 GROUP        1 X    SEC  0     **** SEC X 2
     3 GLC5        1 GROUP        1 X    GLC  0     **** GLC X 6
     4 ALP1       32 GROUP        1 Y    ALP  0     ROOT ALP Y 8
     5 SEP2       35 GROUP        1 Y    SEP  0     **** SEP Y 9
     6 GLP5        3 GROUP        1 Y    GLP  0     **** GLP Y 13
     7 ALL1       31 GROUP        1 Z    ALL  0     ROOT ALL Z 15
     8 SEL2       34 GROUP        1 Z    SEL  0     **** SEL Z 16
     9 GLL5        2 GROUP        1 Z    GLL  0     **** GLL Z 20
@<TRIPOS>SET

