#    Name: 3fmm_XI2_1_ligand
#    Modification time : Tue Mar 25 06:05:54 2014

@<TRIPOS>MOLECULE
3fmm_XI2_1_ligand
   41    43     1     0     0
SMALL
NO_CHARGES


@<TRIPOS>ATOM
      1 F26        14.1420   10.5140   30.5890 F         1 XI2361      0.0000 
      2 C22        15.4080   10.9470   30.7400 C.ar      1 XI2361      0.0000 
      3 C21        16.0010   11.7600   29.7690 C.ar      1 XI2361      0.0000 
      4 C20        17.3170   12.1970   29.9360 C.ar      1 XI2361      0.0000 
      5 C23        16.1360   10.5700   31.8700 C.ar      1 XI2361      0.0000 
      6 C24        17.4510   11.0070   32.0270 C.ar      1 XI2361      0.0000 
      7 F25        18.1460   10.6420   33.1170 F         1 XI2361      0.0000 
      8 C19        18.0450   11.8180   31.0660 C.ar      1 XI2361      0.0000 
      9 O18        19.3450   12.2470   31.2330 O.3       1 XI2361      0.0000 
     10 C3         20.3990   11.3570   31.2080 C.ar      1 XI2361      0.0000 
     11 N2         21.6430   11.7580   31.6010 N.ar      1 XI2361      0.0000 
     12 N4         20.1710   10.0880   30.7900 N.ar      1 XI2361      0.0000 
     13 C6         21.1820    9.1860   30.7500 C.ar      1 XI2361      0.0000 
     14 N7         21.2740    7.8930   30.3940 N.pl3     1 XI2361      0.0000 
     15 N8         22.6000    7.4420   30.5570 N.2       1 XI2361      0.0000 
     16 C9         23.3060    8.4900   31.0160 C.2       1 XI2361      0.0000 
     17 C5         22.5220    9.6250   31.1780 C.ar      1 XI2361      0.0000 
     18 C1         22.7120   10.9350   31.6030 C.ar      1 XI2361      0.0000 
     19 N10        24.6290    8.3490   31.2840 N.pl3     1 XI2361      0.0000 
     20 C11        25.6260    9.4040   31.2740 C.3       1 XI2361      0.0000 
     21 C13        25.7930    9.9100   29.8450 C.3       1 XI2361      0.0000 
     22 C12        26.9610    8.8900   31.8300 C.3       1 XI2361      0.0000 
     23 S14        26.9570    8.5530   33.4720 S.o2      1 XI2361      0.0000 
     24 O15        28.3160    8.4550   33.9260 O.2       1 XI2361      0.0000 
     25 O16        26.2880    9.5800   34.2200 O.2       1 XI2361      0.0000 
     26 C17        26.2140    7.1010   33.7900 C.3       1 XI2361      0.0000 
     27 H          15.4700   12.0344   28.9361 H         1 XI2361      0.0000 
     28 H          17.7509   12.7992   29.2253 H         1 XI2361      0.0000 
     29 H          15.7038    9.9726   32.5832 H         1 XI2361      0.0000 
     30 H          20.5619    7.3267   30.0711 H         1 XI2361      0.0000 
     31 H          23.6367   11.2448   31.9026 H         1 XI2361      0.0000 
     32 H          25.0096    7.3798   31.5306 H         1 XI2361      0.0000 
     33 H          25.3009   10.2338   31.8878 H         1 XI2361      0.0000 
     34 H          27.7545    9.6250   31.6851 H         1 XI2361      0.0000 
     35 H          27.2562    7.9595   31.3420 H         1 XI2361      0.0000 
     36 H          26.4695   10.6442   29.7877 H         1 XI2361      0.0000 
     37 H          26.0951    9.1842   29.2269 H         1 XI2361      0.0000 
     38 H          24.9364   10.2712   29.4764 H         1 XI2361      0.0000 
     39 H          26.6719    6.3407   33.3292 H         1 XI2361      0.0000 
     40 H          26.2107    6.8918   34.7679 H         1 XI2361      0.0000 
     41 H          25.2613    7.0969   33.4861 H         1 XI2361      0.0000 
@<TRIPOS>BOND
     1    2    1 1    
     2    3    2 ar   
     3    5    2 ar   
     4    4    3 ar   
     5   27    3 1    
     6    8    4 ar   
     7   28    4 1    
     8    6    5 ar   
     9   29    5 1    
    10    7    6 1    
    11    8    6 ar   
    12    9    8 1    
    13   10    9 1    
    14   11   10 ar   
    15   12   10 ar   
    16   18   11 ar   
    17   13   12 ar   
    18   14   13 1    
    19   17   13 ar   
    20   15   14 1    
    21   30   14 1    
    22   16   15 2    
    23   17   16 1    
    24   19   16 1    
    25   18   17 ar   
    26   31   18 1    
    27   20   19 1    
    28   32   19 1    
    29   21   20 1    
    30   22   20 1    
    31   33   20 1    
    32   36   21 1    
    33   37   21 1    
    34   38   21 1    
    35   23   22 1    
    36   34   22 1    
    37   35   22 1    
    38   24   23 2    
    39   25   23 2    
    40   26   23 1    
    41   39   26 1    
    42   40   26 1    
    43   41   26 1    
@<TRIPOS>SUBSTRUCTURE
     1 XI2361      1 GROUP   
@<TRIPOS>SET

