#    Name: 4c8g_C5P_1_INTS_M
#    Modification time : Tue Mar 25 09:06:22 2014

@<TRIPOS>MOLECULE
4c8g_C5P_1_INTS_M
   46     0    12     0     0
SMALL
NO_CHARGES


@<TRIPOS>ATOM
      1 NZ          9.8485   11.3070   38.4070 N.4       3 LYC4        0.0000 
      2 NZ          9.1020   10.1550   39.6080 N.4      11 LYL4        0.0000 
      3 NZ         10.5950   12.4590   37.2060 N.4       7 LYP4        0.0000 
      4 N           8.5485    9.0185   39.0075 N.am      2 SEC2        0.0000 
      5 N           9.1020   10.1550   39.6080 N.am     10 SEL2        0.0000 
      6 N           7.9950    7.8820   38.4070 N.am      6 SEP2        0.0000 
      7 N           7.6965    9.9420   39.9010 N.am      2 SEC2        0.0000 
      8 N           6.2910    9.7290   40.1940 N.am      6 SEP2        0.0000 
      9 NZ         10.7790   12.1590   38.6675 N.4       3 LYC4        0.0000 
     10 NZ         10.9630   11.8590   40.1290 N.4      11 LYL4        0.0000 
     11 N          10.7790   12.1590   38.6675 N.am      2 SEC2        0.0000 
     12 N          10.9630   11.8590   40.1290 N.am     10 SEL2        0.0000 
     13 N          10.5950   12.4590   37.2060 N.am      6 SEP2        0.0000 
     14 N          16.0180    9.7535   40.1360 N.am      2 SEC2        0.0000 
     15 N          14.6430    9.1620   39.6610 N.am     10 SEL2        0.0000 
     16 N          17.3930   10.3450   40.6110 N.am      6 SEP2        0.0000 
     17 O          16.2825    7.4805   40.0445 O.2       1 ALC1        0.0000 
     18 O          15.1180    7.2300   40.9940 O.2       9 ALL1        0.0000 
     19 O          17.4470    7.7310   39.0950 O.2       5 ALP1        0.0000 
     20 O          15.6755    6.7970   39.4505 O.2       1 ALC1        0.0000 
     21 O          16.2330    6.3640   37.9070 O.2       5 ALP1        0.0000 
     22 N          11.2580    2.1260   41.4395 N.am      2 SEC2        0.0000 
     23 N          10.8610    3.4800   41.0410 N.am     10 SEL2        0.0000 
     24 N          11.6550    0.7720   41.8380 N.am      6 SEP2        0.0000 
     25 N          12.3170    2.3105   41.8135 N.am      2 SEC2        0.0000 
     26 N          12.9790    3.8490   41.7890 N.am     10 SEL2        0.0000 
     27 N          13.6765    2.4980   41.7980 N.am      2 SEC2        0.0000 
     28 N          14.3740    1.1470   41.8070 N.am      6 SEP2        0.0000 
     29 O           7.5730    3.7975   39.6090 O.2       1 ALC1        0.0000 
     30 O           8.6630    3.2390   40.2780 O.2       9 ALL1        0.0000 
     31 O           6.4830    4.3560   38.9400 O.2       5 ALP1        0.0000 
     32 O           8.4950    2.0320   41.0270 O.2       1 ALC1        0.0000 
     33 O           8.3270    0.8250   41.7760 O.2       5 ALP1        0.0000 
     34 CA         15.2982    9.2000   41.4535 C.3       4 GLC5        0.0000 
     35 CA         13.5660    8.4690   40.2530 C.3      12 GLL5        0.0000 
     36 CA         17.1800    9.7740   41.9360 C.3       8 GLP5        0.0000 
     37 CA         13.1155    5.3380   39.3495 C.3       4 GLC5        0.0000 
     38 CA         13.9340    7.0230   40.3400 C.3      12 GLL5        0.0000 
     39 CA         12.7260    3.9380   37.7860 C.3       8 GLP5        0.0000 
     40 CA         11.4695    4.8735   39.1088 C.3       4 GLC5        0.0000 
     41 CA         10.7490    6.2190   40.5970 C.3      12 GLL5        0.0000 
     42 CA         10.0635    6.6600   38.6557 C.3       4 GLC5        0.0000 
     43 CA          9.9140    7.5110   36.8800 C.3       8 GLP5        0.0000 
     44 CA          8.6195    6.6890   40.7728 C.3       4 GLC5        0.0000 
     45 CA          9.6770    5.3990   40.2660 C.3      12 GLL5        0.0000 
     46 CA          7.0260    7.5690   41.1140 C.3       8 GLP5        0.0000 
@<TRIPOS>BOND
@<TRIPOS>SUBSTRUCTURE
     1 ALC1       17 GROUP        1 X    ALC  0     ROOT ALC X 1
     2 SEC2        4 GROUP        1 X    SEC  0     **** SEC X 2
     3 LYC4        1 GROUP        1 X    LYC  0     **** LYC X 4
     4 GLC5       34 GROUP        1 X    GLC  0     **** GLC X 6
     5 ALP1       19 GROUP        1 Y    ALP  0     ROOT ALP Y 8
     6 SEP2        6 GROUP        1 Y    SEP  0     **** SEP Y 9
     7 LYP4        3 GROUP        1 Y    LYP  0     **** LYP Y 11
     8 GLP5       36 GROUP        1 Y    GLP  0     **** GLP Y 13
     9 ALL1       18 GROUP        1 Z    ALL  0     ROOT ALL Z 15
    10 SEL2        5 GROUP        1 Z    SEL  0     **** SEL Z 16
    11 LYL4        2 GROUP        1 Z    LYL  0     **** LYL Z 18
    12 GLL5       35 GROUP        1 Z    GLL  0     **** GLL Z 20
@<TRIPOS>SET

