#    Name: 4c8g_C5P_1_ligand
#    Modification time : Tue Mar 25 09:06:22 2014

@<TRIPOS>MOLECULE
4c8g_C5P_1_ligand
   33    34     1     0     0
SMALL
NO_CHARGES


@<TRIPOS>ATOM
      1 O3P         9.4150   11.0570   41.9590 O.co2     1 C5P1163     0.0000 
      2 P          10.0360   10.7560   40.6280 P.3       1 C5P1163     0.0000 
      3 O1P         9.1020   10.1550   39.6080 O.co2     1 C5P1163     0.0000 
      4 O2P        10.9630   11.8590   40.1290 O.co2     1 C5P1163     0.0000 
      5 O5'        11.1080    9.5810   40.9000 O.3       1 C5P1163     0.0000 
      6 C5'        12.2920    9.9410   41.6290 C.3       1 C5P1163     0.0000 
      7 C4'        13.2670    8.7830   41.6890 C.3       1 C5P1163     0.0000 
      8 O4'        12.6290    7.6010   42.2040 O.3       1 C5P1163     0.0000 
      9 C3'        13.5660    8.4690   40.2530 C.3       1 C5P1163     0.0000 
     10 O3'        14.6430    9.1620   39.6610 O.3       1 C5P1163     0.0000 
     11 C2'        13.9340    7.0230   40.3400 C.3       1 C5P1163     0.0000 
     12 O2'        15.1180    7.2300   40.9940 O.3       1 C5P1163     0.0000 
     13 C1'        13.0760    6.4530   41.4860 C.3       1 C5P1163     0.0000 
     14 N1         11.8780    5.6820   41.0910 N.am      1 C5P1163     0.0000 
     15 C2         11.9180    4.3020   41.3220 C.2       1 C5P1163     0.0000 
     16 N3         10.8610    3.4800   41.0410 N.2       1 C5P1163     0.0000 
     17 C4          9.7310    4.0290   40.5240 C.2       1 C5P1163     0.0000 
     18 C5          9.6770    5.3990   40.2660 C.2       1 C5P1163     0.0000 
     19 C6         10.7490    6.2190   40.5970 C.2       1 C5P1163     0.0000 
     20 O2         12.9790    3.8490   41.7890 O.2       1 C5P1163     0.0000 
     21 N4          8.6630    3.2390   40.2780 N.pl3     1 C5P1163     0.0000 
     22 H          12.0496   10.2373   42.6621 H         1 C5P1163     0.0000 
     23 H          12.8050   10.7955   41.1595 H         1 C5P1163     0.0000 
     24 H          14.1320    9.0472   42.1827 H         1 C5P1163     0.0000 
     25 H          12.6546    8.5230   39.6919 H         1 C5P1163     0.0000 
     26 H          13.9157    6.5395   39.5341 H         1 C5P1163     0.0000 
     27 H          13.7181    5.8650   42.1217 H         1 C5P1163     0.0000 
     28 H           8.8366    5.8027   39.8276 H         1 C5P1163     0.0000 
     29 H          10.6579    7.2415   40.4555 H         1 C5P1163     0.0000 
     30 H           7.8428    3.7006   39.9401 H         1 C5P1163     0.0000 
     31 H           8.7875    2.2628   40.4557 H         1 C5P1163     0.0000 
     32 H          14.5643    8.9745   38.6819 H         1 C5P1163     0.0000 
     33 H          15.7822    7.4230   40.2718 H         1 C5P1163     0.0000 
@<TRIPOS>BOND
     1    2    1 ar   
     2    3    2 ar   
     3    4    2 ar   
     4    5    2 1    
     5    6    5 1    
     6    7    6 1    
     7   22    6 1    
     8   23    6 1    
     9    8    7 1    
    10    9    7 1    
    11   24    7 1    
    12   13    8 1    
    13   10    9 1    
    14   11    9 1    
    15   25    9 1    
    16   32   10 1    
    17   12   11 1    
    18   13   11 1    
    19   26   11 1    
    20   33   12 1    
    21   14   13 1    
    22   27   13 1    
    23   15   14 am   
    24   19   14 1    
    25   16   15 1    
    26   20   15 2    
    27   17   16 2    
    28   18   17 1    
    29   21   17 1    
    30   19   18 2    
    31   28   18 1    
    32   29   19 1    
    33   30   21 1    
    34   31   21 1    
@<TRIPOS>SUBSTRUCTURE
     1 C5P1163     1 GROUP   
@<TRIPOS>SET

