#    Name: 3K8O_4_CAVITY_N1_ALL.mol2
#    Modification time : Tue Mar 11 06:30:24 2014

@<TRIPOS>MOLECULE
3K8O_4_CAVITY_N1_ALL.mol2
   55     0     6     0     0
SMALL
NO_CHARGES


@<TRIPOS>ATOM
      1 OG         39.6287   26.2459  -34.5222 O.2       1 SER1        0.0000 
      2 N          40.8905   26.1043  -35.3209 N.2       2 ALA2        0.0000 
      3 OG         42.1523   25.9627  -36.1196 O.2       1 SER1        0.0000 
      4 O          36.8535   25.0567  -33.0616 O.2       2 ALA2        0.0000 
      5 O          38.1152   24.9151  -33.8602 O.2       2 ALA2        0.0000 
      6 DU         39.3770   24.7735  -34.6589 H         6 CUB7        0.0000 
      7 O          40.6388   24.6319  -35.4575 O.2       2 ALA2        0.0000 
      8 O          41.9006   24.4903  -36.2562 O.2       2 ALA2        0.0000 
      9 O          36.6017   23.5843  -33.1982 O.2       2 ALA2        0.0000 
     10 DU         37.8635   23.4427  -33.9969 H         6 CUB7        0.0000 
     11 DU         39.1253   23.3011  -34.7955 H         6 CUB7        0.0000 
     12 O          40.3871   23.1595  -35.5942 O.2       2 ALA2        0.0000 
     13 O          41.6489   23.0179  -36.3928 O.2       2 ALA2        0.0000 
     14 CZ         37.6118   21.9703  -34.1335 C.ar      4 PHE5        0.0000 
     15 DU         38.8736   21.8287  -34.9322 H         6 CUB7        0.0000 
     16 CA         40.1354   21.6871  -35.7308 C.3       5 GLY6        0.0000 
     17 CZ         38.6219   20.3563  -35.0688 C.ar      4 PHE5        0.0000 
     18 N          39.8836   20.2147  -35.8675 N.2       2 ALA2        0.0000 
     19 O          38.3701   18.8839  -35.2054 O.2       2 ALA2        0.0000 
     20 N          39.6319   18.7423  -36.0041 N.2       2 ALA2        0.0000 
     21 CA         40.9192   24.2756  -32.1342 C.3       5 GLY6        0.0000 
     22 N          42.1809   24.1340  -32.9329 N.2       2 ALA2        0.0000 
     23 CA         40.6674   22.8032  -32.2709 C.3       5 GLY6        0.0000 
     24 CA         40.4157   21.3308  -32.4075 C.3       5 GLY6        0.0000 
     25 OG         41.6616   25.8553  -34.0586 O.2       1 SER1        0.0000 
     26 OG         42.9234   25.7137  -34.8572 O.2       1 SER1        0.0000 
     27 O          38.8863   24.6661  -32.5979 O.2       2 ALA2        0.0000 
     28 OG         40.1481   24.5245  -33.3966 O.2       1 SER1        0.0000 
     29 N          41.4099   24.3829  -34.1952 N.2       2 ALA2        0.0000 
     30 N          42.6716   24.2413  -34.9939 N.2       2 ALA2        0.0000 
     31 CA         38.6346   23.1937  -32.7345 C.3       5 GLY6        0.0000 
     32 N          39.8964   23.0521  -33.5332 N.2       2 ALA2        0.0000 
     33 N          41.1581   22.9105  -34.3319 N.2       2 ALA2        0.0000 
     34 CA         38.3829   21.7213  -32.8712 C.3       5 GLY6        0.0000 
     35 N          39.6446   21.5797  -33.6698 N.2       2 ALA2        0.0000 
     36 N          40.9064   21.4381  -34.4685 N.2       2 ALA2        0.0000 
     37 CA         38.1312   20.2489  -33.0078 C.3       5 GLY6        0.0000 
     38 N          39.3929   20.1073  -33.8065 N.2       2 ALA2        0.0000 
     39 CA         40.6547   19.9657  -34.6051 C.3       5 GLY6        0.0000 
     40 N          39.1412   18.6349  -33.9431 N.2       2 ALA2        0.0000 
     41 CA         40.1194   26.3533  -36.5832 C.3       5 GLY6        0.0000 
     42 CZ         37.3442   25.1640  -35.1225 C.ar      4 PHE5        0.0000 
     43 CA         38.6059   25.0225  -35.9212 C.3       5 GLY6        0.0000 
     44 CA         39.8677   24.8809  -36.7199 C.3       5 GLY6        0.0000 
     45 CZ         35.8307   23.8332  -34.4605 C.ar      4 PHE5        0.0000 
     46 CA         37.0924   23.6916  -35.2592 C.3       5 GLY6        0.0000 
     47 CA         38.3542   23.5501  -36.0578 C.3       5 GLY6        0.0000 
     48 CA         39.6160   23.4085  -36.8565 C.3       5 GLY6        0.0000 
     49 CZ         36.8407   22.2192  -35.3958 C.ar      4 PHE5        0.0000 
     50 CA         38.1025   22.0776  -36.1945 C.3       5 GLY6        0.0000 
     51 CA         39.3643   21.9361  -36.9931 C.3       5 GLY6        0.0000 
     52 CZ         37.8508   20.6052  -36.3311 C.ar      4 PHE5        0.0000 
     53 CA         39.1126   20.4637  -37.1298 C.3       5 GLY6        0.0000 
     54 NZ         37.5991   19.1328  -36.4678 N.2       3 LYS4        0.0000 
     55 N          38.8609   18.9913  -37.2664 N.2       2 ALA2        0.0000 
@<TRIPOS>BOND
@<TRIPOS>SUBSTRUCTURE
     1 SER1        1 GROUP   
     2 ALA2        2 GROUP   
     3 LYS4       54 GROUP   
     4 PHE5       14 GROUP   
     5 GLY6       16 GROUP   
     6 CUB7        6 GROUP   
@<TRIPOS>SET

