#    Name: 3k8o_229_4_INTS_M
#    Modification time : Mon Mar 24 18:54:28 2014

@<TRIPOS>MOLECULE
3k8o_229_4_INTS_M
   55     0     9     0     0
SMALL
NO_CHARGES


@<TRIPOS>ATOM
      1 O          37.0850   24.4160  -31.5520 O.2       1 ALC1        0.0000 
      2 O          37.5720   23.7180  -32.6480 O.2       7 ALL1        0.0000 
      3 O          36.5980   25.1140  -30.4560 O.2       4 ALP1        0.0000 
      4 CA         35.5080   25.1390  -34.4800 C.3       3 GLC5        0.0000 
      5 CA         36.9020   24.2060  -33.8190 C.3       9 GLL5        0.0000 
      6 CA         34.1140   26.0720  -35.1410 C.3       6 GLP5        0.0000 
      7 CA         35.6465   22.7070  -33.6120 C.3       3 GLC5        0.0000 
      8 CA         34.3910   21.2080  -33.4050 C.3       6 GLP5        0.0000 
      9 CA         36.1545   24.7590  -31.8045 C.3       3 GLC5        0.0000 
     10 CA         35.4070   25.3120  -29.7900 C.3       6 GLP5        0.0000 
     11 CA         36.4955   26.0235  -34.9240 C.3       3 GLC5        0.0000 
     12 CA         37.8780   25.0150  -34.6650 C.3       9 GLL5        0.0000 
     13 CA         35.1130   27.0320  -35.1830 C.3       6 GLP5        0.0000 
     14 CA         37.8535   26.5230  -36.1660 C.3       3 GLC5        0.0000 
     15 CA         37.8290   28.0310  -37.6670 C.3       6 GLP5        0.0000 
     16 O          38.1740   27.3880  -34.6220 O.2       1 ALC1        0.0000 
     17 O          38.4250   26.0670  -33.8760 O.2       7 ALL1        0.0000 
     18 O          37.9230   28.7090  -35.3680 O.2       4 ALP1        0.0000 
     19 CA         40.6930   27.0650  -36.3350 C.3       3 GLC5        0.0000 
     20 CA         39.9610   25.2940  -35.7890 C.3       9 GLL5        0.0000 
     21 CA         41.4250   28.8360  -36.8810 C.3       6 GLP5        0.0000 
     22 CA         38.8950   26.6625  -36.7280 C.3       3 GLC5        0.0000 
     23 CA         39.8505   25.1345  -37.6465 C.3       3 GLC5        0.0000 
     24 CA         39.7400   24.9750  -39.5040 C.3       6 GLP5        0.0000 
     25 N          41.3110   24.0770  -37.7800 N.am      2 SEC2        0.0000 
     26 N          41.0090   24.7330  -36.5890 N.am      8 SEL2        0.0000 
     27 N          41.6130   23.4210  -38.9710 N.am      5 SEP2        0.0000 
     28 CA         41.8880   22.2935  -32.6330 C.3       3 GLC5        0.0000 
     29 CA         40.7050   22.4690  -34.3620 C.3       9 GLL5        0.0000 
     30 CA         43.0710   22.1180  -30.9040 C.3       6 GLP5        0.0000 
     31 CA         41.3745   21.7900  -36.3600 C.3       3 GLC5        0.0000 
     32 CA         42.0440   21.1110  -38.3580 C.3       6 GLP5        0.0000 
     33 CA         40.6385   20.7810  -36.8335 C.3       3 GLC5        0.0000 
     34 CA         39.2330   20.4510  -35.3090 C.3       9 GLL5        0.0000 
     35 O          36.9485   17.9580  -37.7945 O.2       1 ALC1        0.0000 
     36 O          37.7670   18.7950  -36.9090 O.2       7 ALL1        0.0000 
     37 O          36.1300   17.1210  -38.6800 O.2       4 ALP1        0.0000 
     38 CA         41.4700   21.2160  -32.0270 C.3       3 GLC5        0.0000 
     39 CA         39.8690   20.3140  -33.1500 C.3       9 GLL5        0.0000 
     40 CA         38.7490   20.4725  -31.6240 C.3       3 GLC5        0.0000 
     41 CA         37.6290   20.6310  -30.0980 C.3       6 GLP5        0.0000 
     42 O          39.0895   18.1750  -32.5835 O.2       1 ALC1        0.0000 
     43 O          39.1260   19.2110  -33.4510 O.2       7 ALL1        0.0000 
     44 O          39.0530   17.1390  -31.7160 O.2       4 ALP1        0.0000 
     45 CA         39.7620   17.6490  -34.6940 C.3       3 GLC5        0.0000 
     46 CA         38.7200   19.2240  -34.7280 C.3       9 GLL5        0.0000 
     47 CA         40.8040   16.0740  -34.6600 C.3       6 GLP5        0.0000 
     48 N          37.3275   16.6270  -33.8060 N.am      2 SEC2        0.0000 
     49 N          37.4270   17.2880  -35.2740 N.am      8 SEL2        0.0000 
     50 N          37.2280   15.9660  -32.3380 N.am      5 SEP2        0.0000 
     51 CA         37.8222   24.5810  -36.7490 C.3       3 GLC5        0.0000 
     52 CA         39.0630   24.2230  -35.1870 C.3       9 GLL5        0.0000 
     53 CA         37.1740   24.5430  -38.5720 C.3       6 GLP5        0.0000 
     54 CA         41.4382   19.8536  -34.3390 C.3       3 GLC5        0.0000 
     55 CA         43.2050   18.9520  -34.1580 C.3       6 GLP5        0.0000 
@<TRIPOS>BOND
@<TRIPOS>SUBSTRUCTURE
     1 ALC1        1 GROUP        1 X    ALC  0     ROOT ALC X 1
     2 SEC2       25 GROUP        1 X    SEC  0     **** SEC X 2
     3 GLC5        4 GROUP        1 X    GLC  0     **** GLC X 6
     4 ALP1        3 GROUP        1 Y    ALP  0     ROOT ALP Y 8
     5 SEP2       27 GROUP        1 Y    SEP  0     **** SEP Y 9
     6 GLP5        6 GROUP        1 Y    GLP  0     **** GLP Y 13
     7 ALL1        2 GROUP        1 Z    ALL  0     ROOT ALL Z 15
     8 SEL2       26 GROUP        1 Z    SEL  0     **** SEL Z 16
     9 GLL5        5 GROUP        1 Z    GLL  0     **** GLL Z 20
@<TRIPOS>SET

