#    Name: 3k8o_229_4_ligand
#    Modification time : Mon Mar 24 18:54:28 2014

@<TRIPOS>MOLECULE
3k8o_229_4_ligand
   34    35     1     0     0
SMALL
NO_CHARGES


@<TRIPOS>ATOM
      1 O4         37.5720   23.7180  -32.6480 O.3       1 2299004     0.0000 
      2 C11        36.9020   24.2060  -33.8190 C.3       1 2299004     0.0000 
      3 C6         37.8780   25.0150  -34.6650 C.3       1 2299004     0.0000 
      4 O3         38.4250   26.0670  -33.8760 O.3       1 2299004     0.0000 
      5 C8         39.0630   24.2230  -35.1870 C.3       1 2299004     0.0000 
      6 C3         39.9610   25.2940  -35.7890 C.3       1 2299004     0.0000 
      7 O2         41.0090   24.7330  -36.5890 O.3       1 2299004     0.0000 
      8 N2         39.7120   23.4900  -34.1050 N.4       1 2299004     0.0000 
      9 C10        40.7050   22.4690  -34.3620 C.3       1 2299004     0.0000 
     10 C4         39.9960   21.1410  -34.2620 C.2       1 2299004     0.0000 
     11 C1         39.2330   20.4510  -35.3090 C.2       1 2299004     0.0000 
     12 N4         39.0100   20.7860  -36.5870 N.2       1 2299004     0.0000 
     13 C7         38.2890   19.9550  -37.3540 C.2       1 2299004     0.0000 
     14 N3         37.7670   18.7950  -36.9090 N.am      1 2299004     0.0000 
     15 C9         39.8690   20.3140  -33.1500 C.2       1 2299004     0.0000 
     16 N1         39.1260   19.2110  -33.4510 N.pl3     1 2299004     0.0000 
     17 C2         38.7200   19.2240  -34.7280 C.2       1 2299004     0.0000 
     18 C5         37.9340   18.3650  -35.6470 C.2       1 2299004     0.0000 
     19 O1         37.4270   17.2880  -35.2740 O.2       1 2299004     0.0000 
     20 H          36.0602   24.8562  -33.5598 H         1 2299004     0.0000 
     21 H          36.5198   23.3859  -34.4355 H         1 2299004     0.0000 
     22 H          37.3473   25.4304  -35.5131 H         1 2299004     0.0000 
     23 H          38.7207   23.5894  -35.9688 H         1 2299004     0.0000 
     24 H          40.3703   25.8970  -34.9569 H         1 2299004     0.0000 
     25 H          39.3223   25.9737  -36.3836 H         1 2299004     0.0000 
     26 H          41.4990   22.4975  -33.6259 H         1 2299004     0.0000 
     27 H          41.1234   22.5677  -35.3562 H         1 2299004     0.0000 
     28 H          38.1177   20.2247  -38.3730 H         1 2299004     0.0000 
     29 H          37.2032   18.2001  -37.5818 H         1 2299004     0.0000 
     30 H          40.2616   20.5094  -32.2849 H         1 2299004     0.0000 
     31 H          38.9203   18.4998  -32.8011 H         1 2299004     0.0000 
     32 H          37.0943   24.1446  -31.8800 H         1 2299004     0.0000 
     33 H          38.2115   26.9049  -34.3783 H         1 2299004     0.0000 
     34 H          41.5924   24.2409  -35.9429 H         1 2299004     0.0000 
@<TRIPOS>BOND
     1    2    1 1    
     2   32    1 1    
     3    3    2 1    
     4   20    2 1    
     5   21    2 1    
     6    4    3 1    
     7    5    3 1    
     8   22    3 1    
     9   33    4 1    
    10    6    5 1    
    11    8    5 1    
    12   23    5 1    
    13    7    6 1    
    14   24    6 1    
    15   25    6 1    
    16   34    7 1    
    17    9    8 1    
    18   10    9 1    
    19   26    9 1    
    20   27    9 1    
    21   11   10 1    
    22   15   10 2    
    23   12   11 1    
    24   17   11 2    
    25   13   12 2    
    26   14   13 1    
    27   28   13 1    
    28   18   14 am   
    29   29   14 1    
    30   16   15 1    
    31   30   15 1    
    32   17   16 1    
    33   31   16 1    
    34   18   17 1    
    35   19   18 2    
@<TRIPOS>SUBSTRUCTURE
     1 2299004     1 GROUP   
@<TRIPOS>SET

