#    Name: 3two_NDP_1_INTS_M
#    Modification time : Mon Mar 24 21:06:59 2014

@<TRIPOS>MOLECULE
3two_NDP_1_INTS_M
  110     0    12     0     0
SMALL
NO_CHARGES


@<TRIPOS>ATOM
      1 N          30.3370    9.1520   42.4180 N.am      2 SEC2        0.0000 
      2 N          31.3210    9.9320   41.8950 N.am     10 SEL2        0.0000 
      3 N          29.3530    8.3720   42.9410 N.am      6 SEP2        0.0000 
      4 CA         35.0025   11.1345   45.0610 C.3       4 GLC5        0.0000 
      5 CA         33.1210   10.8590   44.9470 C.3      12 GLL5        0.0000 
      6 CA         36.8840   11.4100   45.1750 C.3       8 GLP5        0.0000 
      7 CA         32.0075   10.9450   47.9210 C.3       4 GLC5        0.0000 
      8 CA         32.2790   11.5340   46.0220 C.3      12 GLL5        0.0000 
      9 CA         31.7360   10.3560   49.8200 C.3       8 GLP5        0.0000 
     10 CA         34.4140   11.3020   46.3490 C.3       4 GLC5        0.0000 
     11 CA         36.5490   11.0700   46.6760 C.3       8 GLP5        0.0000 
     12 CA         32.2110   11.8510   48.6950 C.3       4 GLC5        0.0000 
     13 CA         32.6860   13.3460   47.5700 C.3      12 GLL5        0.0000 
     14 N          37.2610   14.6785   48.8390 N.am      2 SEC2        0.0000 
     15 N          35.8620   14.5230   48.7440 N.am     10 SEL2        0.0000 
     16 N          38.6600   14.8340   48.9340 N.am      6 SEP2        0.0000 
     17 O          37.7730   14.8385   50.2830 O.2       1 ALC1        0.0000 
     18 O          36.8860   14.8430   51.6320 O.2       9 ALL1        0.0000 
     19 O          38.6600   14.8340   48.9340 O.2       5 ALP1        0.0000 
     20 CA         32.6495   11.9795   50.8575 C.3       4 GLC5        0.0000 
     21 CA         33.5630   13.6030   51.8950 C.3      12 GLL5        0.0000 
     22 CA         31.5470   14.0235   52.1665 C.3       4 GLC5        0.0000 
     23 CA         29.5310   14.4440   52.4380 C.3       8 GLP5        0.0000 
     24 CA         33.4735   15.4085   51.5470 C.3       4 GLC5        0.0000 
     25 CA         33.3840   17.2140   51.1990 C.3       8 GLP5        0.0000 
     26 CA         34.6125   12.0355   51.6205 C.3       4 GLC5        0.0000 
     27 CA         35.6620   10.4680   51.3460 C.3       8 GLP5        0.0000 
     28 CA         32.8685   12.0770   49.7190 C.3       4 GLC5        0.0000 
     29 CA         34.0010   13.7980   49.6180 C.3      12 GLL5        0.0000 
     30 CA         33.6925   15.5060   50.4085 C.3       4 GLC5        0.0000 
     31 CA         34.8315   12.1330   50.4820 C.3       4 GLC5        0.0000 
     32 N          31.2375    6.3700   43.5225 N.am      2 SEC2        0.0000 
     33 N          32.3260    7.1360   43.3580 N.am     10 SEL2        0.0000 
     34 N          30.1490    5.6040   43.6870 N.am      6 SEP2        0.0000 
     35 NZ         32.2390    6.9370   40.2175 N.4       3 LYC4        0.0000 
     36 NZ         33.3960    7.1400   40.9100 N.4      11 LYL4        0.0000 
     37 NZ         30.9620    5.5810   38.8460 N.4       7 LYP4        0.0000 
     38 N          34.2940    7.4615   39.7695 N.am      2 SEC2        0.0000 
     39 N          33.3960    7.1400   40.9100 N.am     10 SEL2        0.0000 
     40 N          35.1920    7.7830   38.6290 N.am      6 SEP2        0.0000 
     41 N          32.2390    6.9370   40.2175 N.am      2 SEC2        0.0000 
     42 N          31.0820    6.7340   39.5250 N.am      6 SEP2        0.0000 
     43 CA         35.7475    8.2885   42.3005 C.3       4 GLC5        0.0000 
     44 CA         35.3490    7.4520   44.1620 C.3      12 GLL5        0.0000 
     45 CA         36.1460    9.1250   40.4390 C.3       8 GLP5        0.0000 
     46 CA         34.4095    6.8150   46.0650 C.3       4 GLC5        0.0000 
     47 CA         33.4700    6.1780   47.9680 C.3       8 GLP5        0.0000 
     48 N          39.7245    8.2945   43.1505 N.am      2 SEC2        0.0000 
     49 N          39.0450    7.4300   44.0930 N.am     10 SEL2        0.0000 
     50 N          40.4040    9.1590   42.2080 N.am      6 SEP2        0.0000 
     51 N          39.7455    6.7820   45.1725 N.am      2 SEC2        0.0000 
     52 N          40.4460    6.1340   46.2520 N.am      6 SEP2        0.0000 
     53 CA         38.4395    5.9655   40.4855 C.3       4 GLC5        0.0000 
     54 CA         37.8390    5.9470   42.5600 C.3      12 GLL5        0.0000 
     55 CA         39.0400    5.9840   38.4110 C.3       8 GLP5        0.0000 
     56 N          38.8275    4.9060   40.8560 N.am      2 SEC2        0.0000 
     57 N          39.0810    5.7860   41.8660 N.am     10 SEL2        0.0000 
     58 N          38.5740    4.0260   39.8460 N.am      6 SEP2        0.0000 
     59 CA         35.8075    3.8580   44.1140 C.3       4 GLC5        0.0000 
     60 CA         37.7210    4.8940   43.6490 C.3      12 GLL5        0.0000 
     61 CA         33.8940    2.8220   44.5790 C.3       8 GLP5        0.0000 
     62 CA         38.1020    5.1765   45.5605 C.3       4 GLC5        0.0000 
     63 CA         38.4830    5.4590   47.4720 C.3       8 GLP5        0.0000 
     64 CA         40.0195    2.6245   43.9370 C.3       4 GLC5        0.0000 
     65 CA         38.0040    2.4410   43.7110 C.3      12 GLL5        0.0000 
     66 CA         42.0350    2.8080   44.1630 C.3       8 GLP5        0.0000 
     67 CA         37.6715    3.9180   40.2820 C.3       4 GLC5        0.0000 
     68 CA         36.4080    3.3950   42.0510 C.3      12 GLL5        0.0000 
     69 CA         38.9350    4.4410   38.5130 C.3       8 GLP5        0.0000 
     70 NZ         33.6040   17.4780   47.1765 N.4       3 LYC4        0.0000 
     71 NZ         32.0680   17.2990   47.5440 N.4      11 LYL4        0.0000 
     72 NZ         35.3770   17.7970   48.1060 N.4       7 LYP4        0.0000 
     73 N          33.2315   17.4375   48.2690 N.am      2 SEC2        0.0000 
     74 N          32.0680   17.2990   47.5440 N.am     10 SEL2        0.0000 
     75 N          34.3950   17.5760   48.9940 N.am      6 SEP2        0.0000 
     76 N          33.6040   17.4780   47.1765 N.am      2 SEC2        0.0000 
     77 N          35.1400   17.6570   46.8090 N.am      6 SEP2        0.0000 
     78 NZ         34.2755   17.1220   46.1500 N.4       3 LYC4        0.0000 
     79 NZ         33.4110   16.5870   45.4910 N.4      11 LYL4        0.0000 
     80 N          34.2755   17.1220   46.1500 N.am      2 SEC2        0.0000 
     81 N          33.4110   16.5870   45.4910 N.am     10 SEL2        0.0000 
     82 CA         30.6242   11.0591   45.0311 C.3       4 GLC5        0.0000 
     83 CA         29.0480   10.0860   44.6120 C.3       8 GLP5        0.0000 
     84 CA         35.0185   16.0312   50.5123 C.3       4 GLC5        0.0000 
     85 CA         35.2720   14.2620   49.9080 C.3      12 GLL5        0.0000 
     86 CA         34.5690   17.7340   50.4470 C.3       8 GLP5        0.0000 
     87 CA         36.5735   12.9318   50.4393 C.3       4 GLC5        0.0000 
     88 CA         37.6790   11.5350   50.3010 C.3       8 GLP5        0.0000 
     89 CA         37.8795    6.2470   45.6933 C.3       4 GLC5        0.0000 
     90 CA         36.7590    6.8620   44.4230 C.3      12 GLL5        0.0000 
     91 CA         36.9810    7.8512   41.7110 C.3       4 GLC5        0.0000 
     92 CA         37.7930    7.2080   43.4060 C.3      12 GLL5        0.0000 
     93 CA         39.2630    7.4708   42.0535 C.3       4 GLC5        0.0000 
     94 CA         40.7100    8.3640   41.1240 C.3       8 GLP5        0.0000 
     95 CA         37.5093    8.8528   44.3271 C.3       4 GLC5        0.0000 
     96 CA         38.0950   10.5230   44.8050 C.3       8 GLP5        0.0000 
     97 CA         36.3550    0.6332   44.1217 C.3       4 GLC5        0.0000 
     98 CA         34.8310   -0.5390   44.7540 C.3       8 GLP5        0.0000 
     99 CA         35.8865    2.3137   44.0343 C.3       4 GLC5        0.0000 
    100 CA         37.7540    1.1700   43.2680 C.3      12 GLL5        0.0000 
    101 CA         37.6163   -0.6290   41.7265 C.3       4 GLC5        0.0000 
    102 CA         37.9500   -2.3450   40.7170 C.3       8 GLP5        0.0000 
    103 CA         35.5975    0.8720   40.5497 C.3       4 GLC5        0.0000 
    104 CA         36.8110    1.0040   42.2040 C.3      12 GLL5        0.0000 
    105 CA         34.7210    0.1900   39.1870 C.3       8 GLP5        0.0000 
    106 CA         35.6525    0.5075   43.3332 C.3       4 GLC5        0.0000 
    107 CA         36.1370    2.1040   41.6210 C.3      12 GLL5        0.0000 
    108 CA         35.7707    3.6033   40.3210 C.3       4 GLC5        0.0000 
    109 CA         35.2690    4.4570   38.8060 C.3       8 GLP5        0.0000 
    110 CA         35.1675    2.6482   43.2804 C.3       4 GLC5        0.0000 
@<TRIPOS>BOND
@<TRIPOS>SUBSTRUCTURE
     1 ALC1       17 GROUP        1 X    ALC  0     ROOT ALC X 1
     2 SEC2        1 GROUP        1 X    SEC  0     **** SEC X 2
     3 LYC4       35 GROUP        1 X    LYC  0     **** LYC X 4
     4 GLC5        4 GROUP        1 X    GLC  0     **** GLC X 6
     5 ALP1       19 GROUP        1 Y    ALP  0     ROOT ALP Y 8
     6 SEP2        3 GROUP        1 Y    SEP  0     **** SEP Y 9
     7 LYP4       37 GROUP        1 Y    LYP  0     **** LYP Y 11
     8 GLP5        6 GROUP        1 Y    GLP  0     **** GLP Y 13
     9 ALL1       18 GROUP        1 Z    ALL  0     ROOT ALL Z 15
    10 SEL2        2 GROUP        1 Z    SEL  0     **** SEL Z 16
    11 LYL4       36 GROUP        1 Z    LYL  0     **** LYL Z 18
    12 GLL5        5 GROUP        1 Z    GLL  0     **** GLL Z 20
@<TRIPOS>SET

