#    Name: 3two_NDP_1_ligand
#    Modification time : Mon Mar 24 21:06:59 2014

@<TRIPOS>MOLECULE
3two_NDP_1_ligand
   74    78     1     0     0
SMALL
NO_CHARGES


@<TRIPOS>ATOM
      1 PA         32.7740   10.3230   42.2290 P.3       1 NDP601      0.0000 
      2 O1A        33.4260   11.6620   42.2240 O.co2     1 NDP601      0.0000 
      3 O2A        31.3210    9.9320   41.8950 O.co2     1 NDP601      0.0000 
      4 O5B        32.2990   10.4740   43.7560 O.3       1 NDP601      0.0000 
      5 C5B        33.1210   10.8590   44.9470 C.3       1 NDP601      0.0000 
      6 C4B        32.2790   11.5340   46.0220 C.3       1 NDP601      0.0000 
      7 O4B        33.0940   11.9780   47.1880 O.3       1 NDP601      0.0000 
      8 C3B        31.7010   12.8680   45.4160 C.3       1 NDP601      0.0000 
      9 O3B        30.2810   12.9680   45.6860 O.3       1 NDP601      0.0000 
     10 C2B        32.4300   14.0020   46.2010 C.3       1 NDP601      0.0000 
     11 O2B        31.5440   15.0890   46.3910 O.3       1 NDP601      0.0000 
     12 C1B        32.6860   13.3460   47.5700 C.3       1 NDP601      0.0000 
     13 N9A        33.8550   13.8260   48.2960 N.pl3     1 NDP601      0.0000 
     14 C8A        35.0160   14.2460   47.7460 C.2       1 NDP601      0.0000 
     15 N7A        35.8620   14.5230   48.7440 N.2       1 NDP601      0.0000 
     16 C5A        35.2720   14.2620   49.9080 C.ar      1 NDP601      0.0000 
     17 C6A        35.6640   14.3950   51.2470 C.ar      1 NDP601      0.0000 
     18 N6A        36.8860   14.8430   51.6320 N.pl3     1 NDP601      0.0000 
     19 N1A        34.8000   14.0330   52.1890 N.ar      1 NDP601      0.0000 
     20 C2A        33.5630   13.6030   51.8950 C.ar      1 NDP601      0.0000 
     21 N3A        33.1610   13.4900   50.6330 N.ar      1 NDP601      0.0000 
     22 C4A        34.0010   13.7980   49.6180 C.ar      1 NDP601      0.0000 
     23 O3         33.7330    9.1220   42.6190 O.3       1 NDP601      0.0000 
     24 PN         33.4350    7.5690   42.3980 P.3       1 NDP601      0.0000 
     25 O1N        32.3260    7.1360   43.3580 O.co2     1 NDP601      0.0000 
     26 O2N        33.3960    7.1400   40.9100 O.co2     1 NDP601      0.0000 
     27 O5D        34.8050    6.9120   42.9070 O.3       1 NDP601      0.0000 
     28 C5D        35.3490    7.4520   44.1620 C.3       1 NDP601      0.0000 
     29 C4D        36.7590    6.8620   44.4230 C.3       1 NDP601      0.0000 
     30 O4D        36.6070    5.4310   44.3800 O.3       1 NDP601      0.0000 
     31 C3D        37.7930    7.2080   43.4060 C.3       1 NDP601      0.0000 
     32 O3D        39.0450    7.4300   44.0930 O.3       1 NDP601      0.0000 
     33 C2D        37.8390    5.9470   42.5600 C.3       1 NDP601      0.0000 
     34 O2D        39.0810    5.7860   41.8660 O.3       1 NDP601      0.0000 
     35 C1D        37.7210    4.8940   43.6490 C.3       1 NDP601      0.0000 
     36 N1N        37.3650    3.5500   43.0990 N.pl3     1 NDP601      0.0000 
     37 C2N        38.0040    2.4410   43.7110 C.2       1 NDP601      0.0000 
     38 C3N        37.7540    1.1700   43.2680 C.2       1 NDP601      0.0000 
     39 C7N        38.3770   -0.0190   43.9880 C.2       1 NDP601      0.0000 
     40 O7N        38.8570    0.0730   45.1350 O.2       1 NDP601      0.0000 
     41 N7N        38.1800   -1.1580   43.4020 N.am      1 NDP601      0.0000 
     42 C4N        36.8110    1.0040   42.2040 C.3       1 NDP601      0.0000 
     43 C5N        36.1370    2.1040   41.6210 C.2       1 NDP601      0.0000 
     44 C6N        36.4080    3.3950   42.0510 C.2       1 NDP601      0.0000 
     45 P2B        31.9720   16.6040   46.2330 P.3       1 NDP601      0.0000 
     46 O1X        30.8890   17.1690   45.2220 O.co2     1 NDP601      0.0000 
     47 O2X        32.0680   17.2990   47.5440 O.co2     1 NDP601      0.0000 
     48 O3X        33.4110   16.5870   45.4910 O.co2     1 NDP601      0.0000 
     49 H          33.9197   11.5458   44.6411 H         1 NDP601      0.0000 
     50 H          33.5933    9.9671   45.3767 H         1 NDP601      0.0000 
     51 H          31.4725   10.9398   46.3137 H         1 NDP601      0.0000 
     52 H          31.9593   12.9273   44.4160 H         1 NDP601      0.0000 
     53 H          33.3236   14.2123   45.7449 H         1 NDP601      0.0000 
     54 H          31.8236   13.3051   48.1319 H         1 NDP601      0.0000 
     55 H          35.1938   14.3282   46.8030 H         1 NDP601      0.0000 
     56 H          37.5160   15.0902   50.8958 H         1 NDP601      0.0000 
     57 H          37.0483   14.8863   52.6178 H         1 NDP601      0.0000 
     58 H          32.9062   13.3531   52.6789 H         1 NDP601      0.0000 
     59 H          34.7153    7.1909   45.0084 H         1 NDP601      0.0000 
     60 H          35.4437    8.5360   44.1139 H         1 NDP601      0.0000 
     61 H          37.0772    7.1611   45.4006 H         1 NDP601      0.0000 
     62 H          37.4704    8.0091   42.8302 H         1 NDP601      0.0000 
     63 H          36.9834    5.9014   41.9632 H         1 NDP601      0.0000 
     64 H          38.5868    4.8881   44.2209 H         1 NDP601      0.0000 
     65 H          38.6543    2.6157   44.4894 H         1 NDP601      0.0000 
     66 H          37.6620   -1.1292   42.5471 H         1 NDP601      0.0000 
     67 H          38.5642   -1.9602   43.8590 H         1 NDP601      0.0000 
     68 H          36.0206    0.2241   42.5441 H         1 NDP601      0.0000 
     69 H          37.3270    0.3966   41.3594 H         1 NDP601      0.0000 
     70 H          35.4488    1.9331   40.8797 H         1 NDP601      0.0000 
     71 H          35.9592    4.2004   41.6533 H         1 NDP601      0.0000 
     72 H          30.1644   13.8552   46.1325 H         1 NDP601      0.0000 
     73 H          39.7341    6.9759   43.5282 H         1 NDP601      0.0000 
     74 H          39.0698    6.4842   41.1502 H         1 NDP601      0.0000 
@<TRIPOS>BOND
     1    2    1 ar   
     2    3    1 ar   
     3    4    1 1    
     4   23    1 1    
     5    5    4 1    
     6    6    5 1    
     7   49    5 1    
     8   50    5 1    
     9    7    6 1    
    10    8    6 1    
    11   51    6 1    
    12   12    7 1    
    13    9    8 1    
    14   10    8 1    
    15   52    8 1    
    16   72    9 1    
    17   11   10 1    
    18   12   10 1    
    19   53   10 1    
    20   45   11 1    
    21   13   12 1    
    22   54   12 1    
    23   14   13 1    
    24   22   13 1    
    25   15   14 2    
    26   55   14 1    
    27   16   15 1    
    28   17   16 ar   
    29   22   16 ar   
    30   18   17 1    
    31   19   17 ar   
    32   56   18 1    
    33   57   18 1    
    34   20   19 ar   
    35   21   20 ar   
    36   58   20 1    
    37   22   21 ar   
    38   24   23 1    
    39   25   24 ar   
    40   26   24 ar   
    41   27   24 1    
    42   28   27 1    
    43   29   28 1    
    44   59   28 1    
    45   60   28 1    
    46   30   29 1    
    47   31   29 1    
    48   61   29 1    
    49   35   30 1    
    50   32   31 1    
    51   33   31 1    
    52   62   31 1    
    53   73   32 1    
    54   34   33 1    
    55   35   33 1    
    56   63   33 1    
    57   74   34 1    
    58   36   35 1    
    59   64   35 1    
    60   37   36 1    
    61   44   36 1    
    62   38   37 2    
    63   65   37 1    
    64   39   38 1    
    65   42   38 1    
    66   40   39 2    
    67   41   39 am   
    68   66   41 1    
    69   67   41 1    
    70   43   42 1    
    71   68   42 1    
    72   69   42 1    
    73   44   43 2    
    74   70   43 1    
    75   71   44 1    
    76   46   45 ar   
    77   47   45 ar   
    78   48   45 ar   
@<TRIPOS>SUBSTRUCTURE
     1 NDP601      1 GROUP   
@<TRIPOS>SET

