#    Name: 3uoj_0C5_1_INTS_M
#    Modification time : Mon Mar 24 23:09:06 2014

@<TRIPOS>MOLECULE
3uoj_0C5_1_INTS_M
   68     0     9     0     0
SMALL
NO_CHARGES


@<TRIPOS>ATOM
      1 CA         -6.0185   31.6745   11.7300 C.3       3 GLC5        0.0000 
      2 CA         -7.9260   32.3440   11.0460 C.3       9 GLL5        0.0000 
      3 CA         -4.1110   31.0050   12.4140 C.3       6 GLP5        0.0000 
      4 O          -8.6750   30.4420   13.6715 O.2       1 ALC1        0.0000 
      5 O          -8.4120   30.3630   12.4630 O.2       7 ALL1        0.0000 
      6 O          -8.9380   30.5210   14.8800 O.2       4 ALP1        0.0000 
      7 CA         -9.4120   29.5310   10.3440 C.3       3 GLC5        0.0000 
      8 CA         -7.8700   29.3670   11.5820 C.3       9 GLL5        0.0000 
      9 CA        -10.9540   29.6950    9.1060 C.3       6 GLP5        0.0000 
     10 CA         -7.4370   28.9395   13.4935 C.3       3 GLC5        0.0000 
     11 CA         -7.0040   28.5120   15.4050 C.3       6 GLP5        0.0000 
     12 CA         -6.1280   28.9540   12.0470 C.3       3 GLC5        0.0000 
     13 CA         -4.3860   28.5410   12.5120 C.3       6 GLP5        0.0000 
     14 CA         -4.1070   34.4470    6.1990 C.3       3 GLC5        0.0000 
     15 CA         -4.5790   33.2630    7.9440 C.3       9 GLL5        0.0000 
     16 CA         -3.6350   35.6310    4.4540 C.3       6 GLP5        0.0000 
     17 CA         -1.8850   28.6175    9.8540 C.3       3 GLC5        0.0000 
     18 CA         -2.7810   30.0820    8.8960 C.3       9 GLL5        0.0000 
     19 CA         -0.9890   27.1530   10.8120 C.3       6 GLP5        0.0000 
     20 CA         -6.4960   25.6075    8.9240 C.3       3 GLC5        0.0000 
     21 CA         -6.8690   27.4710    9.9720 C.3       9 GLL5        0.0000 
     22 CA         -6.1230   23.7440    7.8760 C.3       6 GLP5        0.0000 
     23 CA         -9.0900   26.4110   12.3720 C.3       3 GLC5        0.0000 
     24 CA         -7.7430   27.1200   10.9950 C.3       9 GLL5        0.0000 
     25 CA        -10.4370   25.7020   13.7490 C.3       6 GLP5        0.0000 
     26 N          -8.6575   27.8000   13.2130 N.am      2 SEC2        0.0000 
     27 N          -8.2300   28.0940   11.7870 N.am      8 SEL2        0.0000 
     28 N          -9.0850   27.5060   14.6390 N.am      5 SEP2        0.0000 
     29 N         -11.2505   36.1965   10.8055 N.am      2 SEC2        0.0000 
     30 N         -10.1320   36.4840   12.1120 N.am      8 SEL2        0.0000 
     31 N         -12.3690   35.9090    9.4990 N.am      5 SEP2        0.0000 
     32 CA        -10.6902   33.0433   10.8890 C.3       3 GLC5        0.0000 
     33 CA         -9.0550   34.4370   11.5480 C.3       9 GLL5        0.0000 
     34 CA        -11.9890   31.9480    9.7070 C.3       6 GLP5        0.0000 
     35 CA         -8.0403   33.8667   13.2340 C.3       3 GLC5        0.0000 
     36 CA         -9.7280   33.8400   12.5940 C.3       9 GLL5        0.0000 
     37 CA         -6.6890   33.5950   14.3970 C.3       6 GLP5        0.0000 
     38 CA        -10.5160   32.0337   11.0953 C.3       3 GLC5        0.0000 
     39 CA         -9.4860   32.4970   12.8650 C.3       9 GLL5        0.0000 
     40 CA         -7.8660   32.8573   13.4403 C.3       3 GLC5        0.0000 
     41 CA         -9.1472   32.4050    9.4188 C.3       3 GLC5        0.0000 
     42 CA        -10.2510   31.7940    7.9290 C.3       6 GLP5        0.0000 
     43 CA         -7.3662   33.3055   12.6527 C.3       3 GLC5        0.0000 
     44 CA         -8.0008   28.0643    8.2750 C.3       3 GLC5        0.0000 
     45 CA         -6.4960   28.8120    9.7760 C.3       9 GLL5        0.0000 
     46 CA         -9.3190   27.9870    6.6760 C.3       6 GLP5        0.0000 
     47 CA         -6.4217   29.5815    6.8175 C.3       3 GLC5        0.0000 
     48 CA         -5.2060   30.5850    8.4220 C.3       9 GLL5        0.0000 
     49 CA         -7.1330   28.1310    5.3860 C.3       6 GLP5        0.0000 
     50 CA         -4.9608   30.8495    6.7655 C.3       3 GLC5        0.0000 
     51 CA         -4.2110   30.6670    5.2820 C.3       6 GLP5        0.0000 
     52 CA         -8.1535   31.9695    7.9438 C.3       3 GLC5        0.0000 
     53 CA         -6.2150   31.4790    8.0760 C.3       9 GLL5        0.0000 
     54 CA         -4.7245   31.8520    6.5873 C.3       3 GLC5        0.0000 
     55 CA         -5.8970   32.8110    7.8410 C.3       9 GLL5        0.0000 
     56 CA         -6.5297   33.2185    6.3701 C.3       3 GLC5        0.0000 
     57 CA         -7.7420   33.7330    4.7890 C.3       6 GLP5        0.0000 
     58 CA         -3.6745   33.4585    9.7568 C.3       3 GLC5        0.0000 
     59 CA         -3.2740   34.1000   11.3950 C.3       6 GLP5        0.0000 
     60 CA         -3.7125   32.1278   10.1570 C.3       3 GLC5        0.0000 
     61 CA         -3.5710   32.3710    8.2930 C.3       9 GLL5        0.0000 
     62 CA         -3.8882   30.7255   10.5495 C.3       3 GLC5        0.0000 
     63 CA         -3.7339   30.7797    6.9674 C.3       3 GLC5        0.0000 
     64 CA         -8.8225   26.5108    9.9132 C.3       3 GLC5        0.0000 
     65 CA        -10.3390   25.7260    9.3430 C.3       6 GLP5        0.0000 
     66 CA         -5.8640   26.2048   11.1007 C.3       3 GLC5        0.0000 
     67 CA         -4.4220   25.1140   11.7180 C.3       6 GLP5        0.0000 
     68 CA         -5.7994   28.0859   11.4733 C.3       3 GLC5        0.0000 
@<TRIPOS>BOND
@<TRIPOS>SUBSTRUCTURE
     1 ALC1        4 GROUP        1 X    ALC  0     ROOT ALC X 1
     2 SEC2       26 GROUP        1 X    SEC  0     **** SEC X 2
     3 GLC5        1 GROUP        1 X    GLC  0     **** GLC X 6
     4 ALP1        6 GROUP        1 Y    ALP  0     ROOT ALP Y 8
     5 SEP2       28 GROUP        1 Y    SEP  0     **** SEP Y 9
     6 GLP5        3 GROUP        1 Y    GLP  0     **** GLP Y 13
     7 ALL1        5 GROUP        1 Z    ALL  0     ROOT ALL Z 15
     8 SEL2       27 GROUP        1 Z    SEL  0     **** SEL Z 16
     9 GLL5        2 GROUP        1 Z    GLL  0     **** GLL Z 20
@<TRIPOS>SET

