#    Name: 3uoj_0C5_1_ligand
#    Modification time : Mon Mar 24 23:09:06 2014

@<TRIPOS>MOLECULE
3uoj_0C5_1_ligand
   37    39     1     0     0
SMALL
NO_CHARGES


@<TRIPOS>ATOM
      1 O01        -8.8780   36.4680   10.2830 O.co2     1 0C51        0.0000 
      2 C02        -9.3420   35.8660   11.2810 C.2       1 0C51        0.0000 
      3 C03        -9.0550   34.4370   11.5480 C.ar      1 0C51        0.0000 
      4 C04        -9.7280   33.8400   12.5940 C.ar      1 0C51        0.0000 
      5 C05        -9.4860   32.4970   12.8650 C.ar      1 0C51        0.0000 
      6 C06        -8.1610   33.6880   10.7710 C.ar      1 0C51        0.0000 
      7 C07        -7.9260   32.3440   11.0460 C.ar      1 0C51        0.0000 
      8 C08        -8.6000   31.7420   12.1020 C.ar      1 0C51        0.0000 
      9 N09        -8.4120   30.3630   12.4630 N.pl3     1 0C51        0.0000 
     10 C10        -7.8700   29.3670   11.5820 C.ar      1 0C51        0.0000 
     11 N11        -7.0240   29.7280   10.6110 N.ar      1 0C51        0.0000 
     12 C12        -6.4960   28.8120    9.7760 C.ar      1 0C51        0.0000 
     13 N13        -5.5350   29.2030    8.6640 N.pl3     1 0C51        0.0000 
     14 C14        -5.2060   30.5850    8.4220 C.ar      1 0C51        0.0000 
     15 C15        -6.2150   31.4790    8.0760 C.ar      1 0C51        0.0000 
     16 C16        -5.8970   32.8110    7.8410 C.ar      1 0C51        0.0000 
     17 C17        -4.5790   33.2630    7.9440 C.ar      1 0C51        0.0000 
     18 C18        -3.5710   32.3710    8.2930 C.ar      1 0C51        0.0000 
     19 C19        -3.8940   31.0350    8.5260 C.ar      1 0C51        0.0000 
     20 C20        -2.7810   30.0820    8.8960 C.1       1 0C51        0.0000 
     21 N21        -1.9690   29.4190    9.1570 N.1       1 0C51        0.0000 
     22 C22        -6.8690   27.4710    9.9720 C.ar      1 0C51        0.0000 
     23 C23        -7.7430   27.1200   10.9950 C.ar      1 0C51        0.0000 
     24 N24        -8.2300   28.0940   11.7870 N.ar      1 0C51        0.0000 
     25 O25       -10.1320   36.4840   12.1120 O.co2     1 0C51        0.0000 
     26 H         -10.3919   34.3690   13.1615 H         1 0C51        0.0000 
     27 H          -9.9813   32.0439   13.6606 H         1 0C51        0.0000 
     28 H          -7.6715   34.1437    9.9838 H         1 0C51        0.0000 
     29 H          -7.2666   31.8077   10.4786 H         1 0C51        0.0000 
     30 H          -8.6867   30.0685   13.4249 H         1 0C51        0.0000 
     31 H          -5.1419   28.4623    8.1092 H         1 0C51        0.0000 
     32 H          -7.1841   31.1565    7.9955 H         1 0C51        0.0000 
     33 H          -6.6433   33.4793    7.5863 H         1 0C51        0.0000 
     34 H          -4.3593   34.2474    7.7627 H         1 0C51        0.0000 
     35 H          -2.6032   32.6898    8.3782 H         1 0C51        0.0000 
     36 H          -6.4872   26.7454    9.3476 H         1 0C51        0.0000 
     37 H          -7.9984   26.1354   11.1266 H         1 0C51        0.0000 
@<TRIPOS>BOND
     1    2    1 ar   
     2    3    2 1    
     3   25    2 ar   
     4    4    3 ar   
     5    6    3 ar   
     6    5    4 ar   
     7   26    4 1    
     8    8    5 ar   
     9   27    5 1    
    10    7    6 ar   
    11   28    6 1    
    12    8    7 ar   
    13   29    7 1    
    14    9    8 1    
    15   10    9 1    
    16   30    9 1    
    17   11   10 ar   
    18   24   10 ar   
    19   12   11 ar   
    20   13   12 1    
    21   22   12 ar   
    22   14   13 1    
    23   31   13 1    
    24   15   14 ar   
    25   19   14 ar   
    26   16   15 ar   
    27   32   15 1    
    28   17   16 ar   
    29   33   16 1    
    30   18   17 ar   
    31   34   17 1    
    32   19   18 ar   
    33   35   18 1    
    34   20   19 1    
    35   21   20 3    
    36   23   22 ar   
    37   36   22 1    
    38   24   23 ar   
    39   37   23 1    
@<TRIPOS>SUBSTRUCTURE
     1 0C51        1 GROUP   
@<TRIPOS>SET

