#    Name: 3JYP_1_CAVITY_N1_6.mol2
#    Modification time : Tue Mar 11 05:13:52 2014

@<TRIPOS>MOLECULE
3JYP_1_CAVITY_N1_6.mol2
   74     0     7     0     0
SMALL
NO_CHARGES


@<TRIPOS>ATOM
      1 N          26.6265   53.0929    0.5977 N.2       2 ALA2        0.0000 
      2 DU         25.7370   54.2831    0.3924 H         7 CUB7        0.0000 
      3 N          26.1657   53.1058    2.6684 N.2       2 ALA2        0.0000 
      4 CA         25.2762   54.2960    2.4630 C.3       6 GLY6        0.0000 
      5 CA         24.3867   55.4862    2.2577 C.3       6 GLY6        0.0000 
      6 N          25.5737   52.4538    1.4541 N.2       2 ALA2        0.0000 
      7 DU         24.6842   53.6441    1.2487 H         7 CUB7        0.0000 
      8 DU         23.7947   54.8343    1.0434 H         7 CUB7        0.0000 
      9 DU         22.9052   56.0245    0.8380 H         7 CUB7        0.0000 
     10 CZ         24.0923   52.9921    0.0344 C.ar      5 PHE5        0.0000 
     11 DU         23.2027   54.1824   -0.1709 H         7 CUB7        0.0000 
     12 DU         22.3132   55.3726   -0.3763 H         7 CUB7        0.0000 
     13 DU         21.7213   54.7207   -1.5906 H         7 CUB7        0.0000 
     14 DU         20.8318   55.9109   -1.7959 H         7 CUB7        0.0000 
     15 OG         21.1293   54.0687   -2.8049 O.2       1 SER1        0.0000 
     16 CA         25.7049   53.1186    4.7390 C.3       6 GLY6        0.0000 
     17 CA         24.8154   54.3089    4.5337 C.3       6 GLY6        0.0000 
     18 CA         23.0364   56.6893    4.1230 C.3       6 GLY6        0.0000 
     19 N          26.0025   51.2765    3.7300 N.2       2 ALA2        0.0000 
     20 N          25.1130   52.4667    3.5247 N.2       2 ALA2        0.0000 
     21 CA         24.2235   53.6569    3.3193 C.3       6 GLY6        0.0000 
     22 CA         23.3339   54.8471    3.1140 C.3       6 GLY6        0.0000 
     23 CA         22.4444   56.0374    2.9087 C.3       6 GLY6        0.0000 
     24 OG         21.5549   57.2276    2.7033 O.2       1 SER1        0.0000 
     25 CZ         25.4105   50.6246    2.5157 C.ar      5 PHE5        0.0000 
     26 CZ         24.5210   51.8148    2.3104 C.ar      5 PHE5        0.0000 
     27 CZ         23.6315   53.0050    2.1050 C.ar      5 PHE5        0.0000 
     28 DU         22.7420   54.1952    1.8997 H         7 CUB7        0.0000 
     29 DU         21.8525   55.3854    1.6943 H         7 CUB7        0.0000 
     30 OG         20.9630   56.5757    1.4890 O.2       1 SER1        0.0000 
     31 CZ         23.0395   52.3531    0.8907 C.ar      5 PHE5        0.0000 
     32 CZ         22.1500   53.5433    0.6854 C.ar      5 PHE5        0.0000 
     33 DU         21.2605   54.7335    0.4800 H         7 CUB7        0.0000 
     34 OG         20.3710   55.9237    0.2747 O.2       1 SER1        0.0000 
     35 OG         21.5580   52.8914   -0.5289 O.2       1 SER1        0.0000 
     36 DU         20.6685   54.0816   -0.7343 H         7 CUB7        0.0000 
     37 DU         19.7790   55.2718   -0.9396 H         7 CUB7        0.0000 
     38 OG         20.0765   53.4297   -1.9486 O.2       1 SER1        0.0000 
     39 CA         23.7627   53.6698    5.3900 C.3       6 GLY6        0.0000 
     40 NZ         22.8732   54.8600    5.1846 N.2       4 LYS4        0.0000 
     41 CA         24.9497   50.6375    4.5863 C.3       6 GLY6        0.0000 
     42 CA         24.0602   51.8277    4.3810 C.3       6 GLY6        0.0000 
     43 DU         23.1707   53.0179    4.1757 H         7 CUB7        0.0000 
     44 NZ         22.2812   54.2081    3.9703 N.2       4 LYS4        0.0000 
     45 OD1        21.3917   55.3983    3.7650 O.3       3 ASP3        0.0000 
     46 OD1        20.5022   56.5885    3.5596 O.3       3 ASP3        0.0000 
     47 CA         24.3577   49.9855    3.3720 C.3       6 GLY6        0.0000 
     48 CZ         23.4682   51.1757    3.1667 C.ar      5 PHE5        0.0000 
     49 CZ         22.5787   52.3660    2.9613 C.ar      5 PHE5        0.0000 
     50 DU         21.6892   53.5562    2.7560 H         7 CUB7        0.0000 
     51 OG         20.7997   54.7464    2.5507 O.2       1 SER1        0.0000 
     52 CZ         21.9867   51.7140    1.7470 C.ar      5 PHE5        0.0000 
     53 DU         21.0972   52.9043    1.5417 H         7 CUB7        0.0000 
     54 DU         20.2077   54.0945    1.3364 H         7 CUB7        0.0000 
     55 OG         19.3182   55.2847    1.1310 O.2       1 SER1        0.0000 
     56 OG         20.5052   52.2523    0.3274 O.2       1 SER1        0.0000 
     57 DU         19.6157   53.4426    0.1220 H         7 CUB7        0.0000 
     58 OG         18.7262   54.6328   -0.0833 O.2       1 SER1        0.0000 
     59 OG         19.0237   52.7906   -1.0923 O.2       1 SER1        0.0000 
     60 CA         23.0074   51.1886    5.2373 C.3       6 GLY6        0.0000 
     61 NZ         22.1179   52.3788    5.0320 N.2       4 LYS4        0.0000 
     62 NZ         21.2284   53.5691    4.8266 N.2       4 LYS4        0.0000 
     63 NZ         20.3389   54.7593    4.6213 N.2       4 LYS4        0.0000 
     64 CA         22.4154   50.5367    4.0230 C.3       6 GLY6        0.0000 
     65 CA         21.5259   51.7269    3.8177 C.3       6 GLY6        0.0000 
     66 DU         20.6364   52.9171    3.6123 H         7 CUB7        0.0000 
     67 DU         19.7469   54.1073    3.4070 H         7 CUB7        0.0000 
     68 OG         18.8574   55.2976    3.2016 O.2       1 SER1        0.0000 
     69 CA         20.9339   51.0750    2.6034 C.3       6 GLY6        0.0000 
     70 DU         20.0444   52.2652    2.3980 H         7 CUB7        0.0000 
     71 DU         19.1549   53.4554    2.1927 H         7 CUB7        0.0000 
     72 OG         18.2654   54.6456    1.9873 O.2       1 SER1        0.0000 
     73 OG         19.4524   51.6133    1.1837 O.2       1 SER1        0.0000 
     74 OG         18.5629   52.8035    0.9784 O.2       1 SER1        0.0000 
@<TRIPOS>BOND
@<TRIPOS>SUBSTRUCTURE
     1 SER1       15 GROUP   
     2 ALA2        1 GROUP   
     3 ASP3       45 GROUP   
     4 LYS4       40 GROUP   
     5 PHE5       10 GROUP   
     6 GLY6        4 GROUP   
     7 CUB7        2 GROUP   
@<TRIPOS>SET

