#    Name: 3jyp_NAD_1_INTS_M
#    Modification time : Tue Mar 25 18:02:59 2014

@<TRIPOS>MOLECULE
3jyp_NAD_1_INTS_M
   78     0     9     0     0
SMALL
NO_CHARGES


@<TRIPOS>ATOM
      1 CA         32.4475   58.7590    1.5120 C.3       3 GLC5        0.0000 
      2 CA         31.4510   60.6620    1.5710 C.3       9 GLL5        0.0000 
      3 CA         33.4440   56.8560    1.4530 C.3       6 GLP5        0.0000 
      4 CA         32.0510   59.3710    0.2220 C.3       3 GLC5        0.0000 
      5 CA         32.6510   58.0800   -1.1270 C.3       6 GLP5        0.0000 
      6 CA         33.6305   60.4660    3.7925 C.3       3 GLC5        0.0000 
      7 CA         32.6240   61.3950    2.1850 C.3       9 GLL5        0.0000 
      8 CA         34.6370   59.5370    5.4000 C.3       6 GLP5        0.0000 
      9 O          33.4955   63.4655    3.6910 O.2       1 ALC1        0.0000 
     10 O          32.6180   63.7630    2.7670 O.2       7 ALL1        0.0000 
     11 O          34.3730   63.1680    4.6150 O.2       4 ALP1        0.0000 
     12 O          34.0965   64.2505    3.2290 O.2       1 ALC1        0.0000 
     13 O          35.5750   64.7380    3.6910 O.2       4 ALP1        0.0000 
     14 O          35.2235   64.4085    2.4365 O.2       1 ALC1        0.0000 
     15 O          34.8720   64.0790    1.1820 O.2       7 ALL1        0.0000 
     16 CA         34.7325   60.6065    3.5450 C.3       3 GLC5        0.0000 
     17 CA         34.8280   61.6760    1.6900 C.3       9 GLL5        0.0000 
     18 CA         35.2800   59.6875    1.9365 C.3       3 GLC5        0.0000 
     19 CA         35.7320   57.6990    2.1830 C.3       6 GLP5        0.0000 
     20 CA         38.3715   61.8155   -0.2405 C.3       3 GLC5        0.0000 
     21 CA         37.8670   60.1310    0.5000 C.3       9 GLL5        0.0000 
     22 CA         38.8760   63.5000   -0.9810 C.3       6 GLP5        0.0000 
     23 CA         39.0190   58.7345    2.6565 C.3       3 GLC5        0.0000 
     24 CA         39.1640   59.7660    0.8310 C.3       9 GLL5        0.0000 
     25 CA         38.8740   57.7030    4.4820 C.3       6 GLP5        0.0000 
     26 CA         39.2590   61.7225    0.6410 C.3       3 GLC5        0.0000 
     27 CA         39.3540   63.6790    0.4510 C.3       6 GLP5        0.0000 
     28 CA         39.1670   57.7160    1.0325 C.3       3 GLC5        0.0000 
     29 CA         39.1700   55.6660    1.2340 C.3       6 GLP5        0.0000 
     30 O          40.9585   57.9630    0.5450 O.2       1 ALC1        0.0000 
     31 O          39.9650   59.1340   -0.0680 O.2       7 ALL1        0.0000 
     32 O          41.9520   56.7920    1.1580 O.2       4 ALP1        0.0000 
     33 CA         38.8695   59.1855    3.7305 C.3       3 GLC5        0.0000 
     34 CA         38.8650   60.6680    2.9790 C.3       9 GLL5        0.0000 
     35 CA         38.2570   61.9940    4.2395 C.3       3 GLC5        0.0000 
     36 CA         37.6490   63.3200    5.5000 C.3       6 GLP5        0.0000 
     37 CA         39.1095   62.1735    1.7150 C.3       3 GLC5        0.0000 
     38 CA         40.5785   61.7520    3.6790 C.3       3 GLC5        0.0000 
     39 CA         42.2920   62.8360    4.3790 C.3       6 GLP5        0.0000 
     40 CA         37.2985   59.1835    2.5810 C.3       3 GLC5        0.0000 
     41 N          38.0290   62.6115    3.0380 N.am      2 SEC2        0.0000 
     42 N          37.6060   61.0330    2.6910 N.am      8 SEL2        0.0000 
     43 N          38.4520   64.1900    3.3850 N.am      5 SEP2        0.0000 
     44 CA         38.2290   62.2260    0.9560 C.3       3 GLC5        0.0000 
     45 CA         37.1040   60.7730    1.4610 C.3       9 GLL5        0.0000 
     46 N          27.2400   59.2835    4.4645 N.am      2 SEC2        0.0000 
     47 N          28.0990   59.4730    3.2860 N.am      8 SEL2        0.0000 
     48 N          26.3810   59.0940    5.6430 N.am      5 SEP2        0.0000 
     49 CA         31.2310   56.9860    1.4695 C.3       3 GLC5        0.0000 
     50 CA         29.0180   57.1160    1.4860 C.3       9 GLL5        0.0000 
     51 CA         26.5955   55.3400    2.5090 C.3       3 GLC5        0.0000 
     52 CA         27.3720   53.9330    1.0360 C.3       9 GLL5        0.0000 
     53 CA         25.8190   56.7470    3.9820 C.3       6 GLP5        0.0000 
     54 CA         28.7515   53.5650    2.2120 C.3       3 GLC5        0.0000 
     55 CA         30.1310   53.1970    3.3880 C.3       6 GLP5        0.0000 
     56 CA         26.3970   53.9915    4.0290 C.3       3 GLC5        0.0000 
     57 CA         25.8810   52.6600    2.3770 C.3       9 GLL5        0.0000 
     58 CA         26.9130   55.3230    5.6810 C.3       6 GLP5        0.0000 
     59 CA         27.6960   52.4930    3.4160 C.3       3 GLC5        0.0000 
     60 CA         29.5110   52.3260    4.4550 C.3       6 GLP5        0.0000 
     61 O          26.7600   50.3130    3.2280 O.2       1 ALC1        0.0000 
     62 O          25.4760   50.2480    3.8760 O.2       7 ALL1        0.0000 
     63 O          28.0440   50.3780    2.5800 O.2       4 ALP1        0.0000 
     64 O          25.6420   48.7350    4.1065 O.2       1 ALC1        0.0000 
     65 O          25.8080   47.2220    4.3370 O.2       4 ALP1        0.0000 
     66 CA         30.7587   61.7002    3.4460 C.3       3 GLC5        0.0000 
     67 CA         29.4800   62.3720    5.0140 C.3       6 GLP5        0.0000 
     68 CA         36.7709   59.0299    1.6231 C.3       3 GLC5        0.0000 
     69 CA         27.3660   56.5857    2.5897 C.3       3 GLC5        0.0000 
     70 CA         29.5220   54.8107    2.2927 C.3       3 GLC5        0.0000 
     71 CA         30.2673   55.8068   -0.8563 C.3       3 GLC5        0.0000 
     72 CA         28.8080   55.7330    0.9090 C.3       9 GLL5        0.0000 
     73 CA         32.1180   55.8800   -1.9690 C.3       6 GLP5        0.0000 
     74 CA         28.4967   54.6073   -2.2642 C.3       3 GLC5        0.0000 
     75 CA         28.0250   55.7340   -0.3960 C.3       9 GLL5        0.0000 
     76 CA         29.2690   54.1720   -4.1170 C.3       6 GLP5        0.0000 
     77 CA         25.0924   55.4888    2.9505 C.3       3 GLC5        0.0000 
     78 CA         23.7900   54.3960    2.0160 C.3       9 GLL5        0.0000 
@<TRIPOS>BOND
@<TRIPOS>SUBSTRUCTURE
     1 ALC1        9 GROUP        1 X    ALC  0     ROOT ALC X 1
     2 SEC2       41 GROUP        1 X    SEC  0     **** SEC X 2
     3 GLC5        1 GROUP        1 X    GLC  0     **** GLC X 6
     4 ALP1       11 GROUP        1 Y    ALP  0     ROOT ALP Y 8
     5 SEP2       43 GROUP        1 Y    SEP  0     **** SEP Y 9
     6 GLP5        3 GROUP        1 Y    GLP  0     **** GLP Y 13
     7 ALL1       10 GROUP        1 Z    ALL  0     ROOT ALL Z 15
     8 SEL2       42 GROUP        1 Z    SEL  0     **** SEL Z 16
     9 GLL5        2 GROUP        1 Z    GLL  0     **** GLL Z 20
@<TRIPOS>SET

