#    Name: 3jyp_NAD_1_ligand
#    Modification time : Tue Mar 25 18:02:59 2014

@<TRIPOS>MOLECULE
3jyp_NAD_1_ligand
   70    74     1     0     0
SMALL
NO_CHARGES


@<TRIPOS>ATOM
      1 PA         29.0560   61.4750    0.8890 P.3       1 NAD377      0.0000 
      2 O1A        29.5780   61.7470   -0.5080 O.co2     1 NAD377      0.0000 
      3 O2A        28.0450   62.4050    1.5230 O.co2     1 NAD377      0.0000 
      4 O5B        30.2620   61.3420    1.9330 O.3       1 NAD377      0.0000 
      5 C5B        31.4510   60.6620    1.5710 C.3       1 NAD377      0.0000 
      6 C4B        32.6240   61.3950    2.1850 C.3       1 NAD377      0.0000 
      7 O4B        33.8120   60.6960    1.8350 O.3       1 NAD377      0.0000 
      8 C3B        32.7720   62.8330    1.6860 C.3       1 NAD377      0.0000 
      9 O3B        32.6180   63.7630    2.7670 O.3       1 NAD377      0.0000 
     10 C2B        34.1440   62.8520    1.0220 C.3       1 NAD377      0.0000 
     11 O2B        34.8720   64.0790    1.1820 O.3       1 NAD377      0.0000 
     12 C1B        34.8280   61.6760    1.6900 C.3       1 NAD377      0.0000 
     13 N9A        35.9130   61.0310    0.9340 N.pl3     1 NAD377      0.0000 
     14 C8A        35.8910   60.5660   -0.3330 C.2       1 NAD377      0.0000 
     15 N7A        37.0930   60.0120   -0.6070 N.2       1 NAD377      0.0000 
     16 C5A        37.8670   60.1310    0.5000 C.ar      1 NAD377      0.0000 
     17 C6A        39.1640   59.7660    0.8310 C.ar      1 NAD377      0.0000 
     18 N6A        39.9650   59.1340   -0.0680 N.pl3     1 NAD377      0.0000 
     19 N1A        39.6300   60.0470    2.0640 N.ar      1 NAD377      0.0000 
     20 C2A        38.8650   60.6680    2.9790 C.ar      1 NAD377      0.0000 
     21 N3A        37.6060   61.0330    2.6910 N.ar      1 NAD377      0.0000 
     22 C4A        37.1040   60.7730    1.4610 C.ar      1 NAD377      0.0000 
     23 O3         28.4920   59.9720    0.8180 O.3       1 NAD377      0.0000 
     24 PN         27.5670   59.2580    1.9020 P.3       1 NAD377      0.0000 
     25 O1N        28.0990   59.4730    3.2860 O.co2     1 NAD377      0.0000 
     26 O2N        26.1410   59.6150    1.5940 O.co2     1 NAD377      0.0000 
     27 O5D        27.7380   57.7400    1.4680 O.3       1 NAD377      0.0000 
     28 C5D        29.0180   57.1160    1.4860 C.3       1 NAD377      0.0000 
     29 C4D        28.8080   55.7330    0.9090 C.3       1 NAD377      0.0000 
     30 O4D        27.9940   54.9660    1.7950 O.3       1 NAD377      0.0000 
     31 C3D        28.0250   55.7340   -0.3960 C.3       1 NAD377      0.0000 
     32 O3D        28.8610   55.9940   -1.5230 O.3       1 NAD377      0.0000 
     33 C2D        27.4240   54.3510   -0.4270 C.3       1 NAD377      0.0000 
     34 O2D        28.3000   53.4800   -1.1460 O.3       1 NAD377      0.0000 
     35 C1D        27.3720   53.9330    1.0360 C.3       1 NAD377      0.0000 
     36 N1N        26.0400   53.7480    1.6080 N.pl3     1 NAD377      0.0000 
     37 C2N        25.8810   52.6600    2.3770 C.ar      1 NAD377      0.0000 
     38 C3N        24.6780   52.3790    2.9940 C.ar      1 NAD377      0.0000 
     39 C7N        24.5590   51.1360    3.8320 C.2       1 NAD377      0.0000 
     40 O7N        23.4730   50.9510    4.5510 O.2       1 NAD377      0.0000 
     41 N7N        25.4760   50.2480    3.8760 N.am      1 NAD377      0.0000 
     42 C4N        23.6090   53.2660    2.8140 C.ar      1 NAD377      0.0000 
     43 C5N        23.7900   54.3960    2.0160 C.ar      1 NAD377      0.0000 
     44 C6N        25.0320   54.6300    1.4230 C.ar      1 NAD377      0.0000 
     45 H          31.5954   60.6386    0.4876 H         1 NAD377      0.0000 
     46 H          31.4629   59.6333    1.9408 H         1 NAD377      0.0000 
     47 H          32.5038   61.4169    3.2565 H         1 NAD377      0.0000 
     48 H          32.0302   62.9684    0.9116 H         1 NAD377      0.0000 
     49 H          33.9971   62.5790   -0.0151 H         1 NAD377      0.0000 
     50 H          35.1703   61.9788    2.6640 H         1 NAD377      0.0000 
     51 H          35.1433   60.6196   -0.9417 H         1 NAD377      0.0000 
     52 H          39.8037   59.3520   -1.0305 H         1 NAD377      0.0000 
     53 H          40.6447   58.5070    0.3128 H         1 NAD377      0.0000 
     54 H          39.2589   60.8696    3.9312 H         1 NAD377      0.0000 
     55 H          29.4053   57.0119    2.4909 H         1 NAD377      0.0000 
     56 H          29.7342   57.6396    0.8667 H         1 NAD377      0.0000 
     57 H          29.7439   55.2504    0.7453 H         1 NAD377      0.0000 
     58 H          27.2243   56.4397   -0.2888 H         1 NAD377      0.0000 
     59 H          26.4545   54.3959   -0.8112 H         1 NAD377      0.0000 
     60 H          27.9540   53.0193    1.1492 H         1 NAD377      0.0000 
     61 H          26.6801   51.9959    2.5237 H         1 NAD377      0.0000 
     62 H          25.3188   49.4838    4.5016 H         1 NAD377      0.0000 
     63 H          26.2650   50.4004    3.2808 H         1 NAD377      0.0000 
     64 H          22.7104   53.0858    3.2618 H         1 NAD377      0.0000 
     65 H          23.0167   55.0501    1.8659 H         1 NAD377      0.0000 
     66 H          25.1602   55.4784    0.8495 H         1 NAD377      0.0000 
     67 H          33.5214   63.8172    3.1924 H         1 NAD377      0.0000 
     68 H          35.0032   64.1752    2.1687 H         1 NAD377      0.0000 
     69 H          28.7338   55.2068   -2.1265 H         1 NAD377      0.0000 
     70 H          28.5432   53.9842   -1.9747 H         1 NAD377      0.0000 
@<TRIPOS>BOND
     1    2    1 ar   
     2    3    1 ar   
     3    4    1 1    
     4   23    1 1    
     5    5    4 1    
     6    6    5 1    
     7   45    5 1    
     8   46    5 1    
     9    7    6 1    
    10    8    6 1    
    11   47    6 1    
    12   12    7 1    
    13    9    8 1    
    14   10    8 1    
    15   48    8 1    
    16   67    9 1    
    17   11   10 1    
    18   12   10 1    
    19   49   10 1    
    20   68   11 1    
    21   13   12 1    
    22   50   12 1    
    23   14   13 1    
    24   22   13 1    
    25   15   14 2    
    26   51   14 1    
    27   16   15 1    
    28   17   16 ar   
    29   22   16 ar   
    30   18   17 1    
    31   19   17 ar   
    32   52   18 1    
    33   53   18 1    
    34   20   19 ar   
    35   21   20 ar   
    36   54   20 1    
    37   22   21 ar   
    38   24   23 1    
    39   25   24 ar   
    40   26   24 ar   
    41   27   24 1    
    42   28   27 1    
    43   29   28 1    
    44   55   28 1    
    45   56   28 1    
    46   30   29 1    
    47   31   29 1    
    48   57   29 1    
    49   35   30 1    
    50   32   31 1    
    51   33   31 1    
    52   58   31 1    
    53   69   32 1    
    54   34   33 1    
    55   35   33 1    
    56   59   33 1    
    57   70   34 1    
    58   36   35 1    
    59   60   35 1    
    60   37   36 ar   
    61   44   36 ar   
    62   38   37 ar   
    63   61   37 1    
    64   39   38 1    
    65   42   38 ar   
    66   40   39 2    
    67   41   39 am   
    68   62   41 1    
    69   63   41 1    
    70   43   42 ar   
    71   64   42 1    
    72   44   43 ar   
    73   65   43 1    
    74   66   44 1    
@<TRIPOS>SUBSTRUCTURE
     1 NAD377      1 GROUP   
@<TRIPOS>SET

