#    Name: 2VLE_8_CAVITY_N1_6.mol2
#    Modification time : Mon Mar 10 17:02:37 2014

@<TRIPOS>MOLECULE
2VLE_8_CAVITY_N1_6.mol2
   71     0     5     0     0
SMALL
NO_CHARGES


@<TRIPOS>ATOM
      1 DU         74.0074   95.4668   97.8563 H         5 CUB7        0.0000 
      2 N          72.6499   94.9759   98.2642 N.2       1 ALA2        0.0000 
      3 DU         75.8138   94.5419   97.2387 H         5 CUB7        0.0000 
      4 DU         74.4563   94.0510   97.6465 H         5 CUB7        0.0000 
      5 CZ         73.0989   93.5602   98.0544 C.ar      3 PHE5        0.0000 
      6 CZ         74.9053   92.6353   97.4368 C.ar      3 PHE5        0.0000 
      7 CA         75.8231   97.2380  100.5145 C.3       4 GLY6        0.0000 
      8 O          74.4656   96.7471  100.9224 O.2       1 ALA2        0.0000 
      9 CA         76.2720   95.8222  100.3048 C.3       4 GLY6        0.0000 
     10 N          74.9146   95.3313  100.7126 N.2       1 ALA2        0.0000 
     11 CA         76.7210   94.4064  100.0950 C.3       4 GLY6        0.0000 
     12 CA         75.3635   93.9156  100.5029 C.3       4 GLY6        0.0000 
     13 N          74.0061   93.4247  100.9107 N.2       1 ALA2        0.0000 
     14 CA         75.8125   92.4998  100.2931 C.3       4 GLY6        0.0000 
     15 CZ         74.4551   92.0089  100.7010 C.ar      3 PHE5        0.0000 
     16 CZ         75.3669   93.2215  105.1952 C.ar      3 PHE5        0.0000 
     17 CZ         74.0094   92.7306  105.6031 C.ar      3 PHE5        0.0000 
     18 CZ         75.8159   91.8057  104.9855 C.ar      3 PHE5        0.0000 
     19 CZ         74.4584   91.3148  105.3933 C.ar      3 PHE5        0.0000 
     20 CZ         74.4677   94.0109  108.6692 C.ar      3 PHE5        0.0000 
     21 CZ         73.1102   93.5200  109.0770 C.ar      3 PHE5        0.0000 
     22 CZ         76.2741   93.0860  108.0516 C.ar      3 PHE5        0.0000 
     23 DU         74.9167   92.5951  108.4594 H         5 CUB7        0.0000 
     24 CA         73.5592   92.1042  108.8673 C.3       4 GLY6        0.0000 
     25 CZ         75.3656   91.1793  108.2497 C.ar      3 PHE5        0.0000 
     26 O          74.0082   90.6884  108.6575 O.2       1 ALA2        0.0000 
     27 CA         75.3682   95.2636  102.1408 C.3       4 GLY6        0.0000 
     28 CA         75.8172   93.8478  101.9310 C.3       4 GLY6        0.0000 
     29 CZ         74.4597   93.3569  102.3389 C.ar      3 PHE5        0.0000 
     30 CZ         76.2661   92.4320  101.7213 C.ar      3 PHE5        0.0000 
     31 CZ         74.9087   91.9412  102.1292 C.ar      3 PHE5        0.0000 
     32 NZ         73.5512   91.4503  102.5370 N.2       2 LYS4        0.0000 
     33 NZ         74.4711   93.3168  113.3615 N.2       2 LYS4        0.0000 
     34 CA         76.2775   92.3919  112.7439 C.3       4 GLY6        0.0000 
     35 CA         74.9200   91.9010  113.1518 C.3       4 GLY6        0.0000 
     36 N          74.0120   96.8149   99.4942 N.2       1 ALA2        0.0000 
     37 DU         77.1759   96.3809   98.4687 H         5 CUB7        0.0000 
     38 DU         75.8184   95.8900   98.8766 H         5 CUB7        0.0000 
     39 N          74.4610   95.3991   99.2845 N.2       1 ALA2        0.0000 
     40 CA         77.6249   94.9651   98.2590 C.3       4 GLY6        0.0000 
     41 CA         76.2674   94.4742   98.6668 C.3       4 GLY6        0.0000 
     42 DU         74.9099   93.9833   99.0747 H         5 CUB7        0.0000 
     43 CZ         73.5525   93.4924   99.4826 C.ar      3 PHE5        0.0000 
     44 CA         76.7164   93.0584   98.4571 C.3       4 GLY6        0.0000 
     45 CZ         75.3589   92.5675   98.8650 C.ar      3 PHE5        0.0000 
     46 CZ         75.3749   93.8754  111.5255 C.ar      3 PHE5        0.0000 
     47 CZ         74.0175   93.3845  111.9334 C.ar      3 PHE5        0.0000 
     48 CZ         72.6600   92.8936  112.3412 C.ar      3 PHE5        0.0000 
     49 CA         75.8239   92.4596  111.3158 C.3       4 GLY6        0.0000 
     50 CA         74.4664   91.9687  111.7236 C.3       4 GLY6        0.0000 
     51 CA         76.2728   91.0438  111.1060 C.3       4 GLY6        0.0000 
     52 CA         74.9154   90.5530  111.5139 C.3       4 GLY6        0.0000 
     53 CA         76.2708   93.7801  103.3592 C.3       4 GLY6        0.0000 
     54 CZ         74.9133   93.2892  103.7671 C.ar      3 PHE5        0.0000 
     55 CA         76.7197   92.3643  103.1495 C.3       4 GLY6        0.0000 
     56 CZ         75.3623   91.8734  103.5573 C.ar      3 PHE5        0.0000 
     57 CZ         74.0048   91.3825  103.9652 C.ar      3 PHE5        0.0000 
     58 CZ         75.8205   93.1537  106.6234 C.ar      3 PHE5        0.0000 
     59 CZ         74.4631   92.6628  107.0313 C.ar      3 PHE5        0.0000 
     60 CA         73.1056   92.1720  107.4391 C.3       4 GLY6        0.0000 
     61 CZ         74.9120   91.2471  106.8215 C.ar      3 PHE5        0.0000 
     62 CA         73.5546   90.7562  107.2294 C.3       4 GLY6        0.0000 
     63 CZ         74.9213   93.9431  110.0973 C.ar      3 PHE5        0.0000 
     64 CZ         73.5638   93.4523  110.5052 C.ar      3 PHE5        0.0000 
     65 CA         76.7277   93.0182  109.4797 C.3       4 GLY6        0.0000 
     66 DU         75.3703   92.5274  109.8876 H         5 CUB7        0.0000 
     67 DU         74.0128   92.0365  110.2955 H         5 CUB7        0.0000 
     68 CA         72.6554   91.5456  110.7033 C.3       4 GLY6        0.0000 
     69 CZ         77.1767   91.6025  109.2700 C.ar      3 PHE5        0.0000 
     70 CZ         75.8192   91.1116  109.6778 C.ar      3 PHE5        0.0000 
     71 O          74.4618   90.6207  110.0857 O.2       1 ALA2        0.0000 
@<TRIPOS>BOND
@<TRIPOS>SUBSTRUCTURE
     1 ALA2        2 GROUP   
     2 LYS4       32 GROUP   
     3 PHE5        5 GROUP   
     4 GLY6        7 GROUP   
     5 CUB7        1 GROUP   
@<TRIPOS>SET

