#    Name: 2vle_DZN_8_INTS_M
#    Modification time : Tue Mar 25 02:09:45 2014

@<TRIPOS>MOLECULE
2vle_DZN_8_INTS_M
   50     0     9     0     0
SMALL
NO_CHARGES


@<TRIPOS>ATOM
      1 N          73.0655   97.6810  101.7645 N.am      2 SEC2        0.0000 
      2 N          73.8000   96.9610  100.8760 N.am      8 SEL2        0.0000 
      3 N          72.3310   98.4010  102.6530 N.am      5 SEP2        0.0000 
      4 O          72.7135   96.0630  101.1545 O.2       1 ALC1        0.0000 
      5 O          73.8000   96.9610  100.8760 O.2       7 ALL1        0.0000 
      6 O          71.6270   95.1650  101.4330 O.2       4 ALP1        0.0000 
      7 CA         77.4990   93.2070   97.6250 C.3       3 GLC5        0.0000 
      8 CA         75.7950   94.2300   97.5700 C.3       9 GLL5        0.0000 
      9 CA         79.2030   92.1840   97.6800 C.3       6 GLP5        0.0000 
     10 CA         75.8835   91.4145  100.2980 C.3       3 GLC5        0.0000 
     11 CA         75.1920   93.4330   99.8850 C.3       9 GLL5        0.0000 
     12 CA         76.5750   89.3960  100.7110 C.3       6 GLP5        0.0000 
     13 CA         76.3895   91.4650  106.2015 C.3       3 GLC5        0.0000 
     14 CA         75.8900   93.4610  106.5820 C.3       9 GLL5        0.0000 
     15 CA         76.8890   89.4690  105.8210 C.3       6 GLP5        0.0000 
     16 CA         77.6760   94.0215  106.4415 C.3       3 GLC5        0.0000 
     17 CA         79.4620   94.5820  106.3010 C.3       6 GLP5        0.0000 
     18 CA         75.8440   95.0655  107.8585 C.3       3 GLC5        0.0000 
     19 CA         75.7980   96.6700  109.1350 C.3       6 GLP5        0.0000 
     20 CA         75.9175   90.9000  107.1950 C.3       3 GLC5        0.0000 
     21 CA         74.9910   92.5940  107.2070 C.3       9 GLL5        0.0000 
     22 CA         76.8440   89.2060  107.1830 C.3       6 GLP5        0.0000 
     23 CA         72.9710   90.5420  110.9130 C.3       3 GLC5        0.0000 
     24 CA         74.1050   91.6590  109.4010 C.3       9 GLL5        0.0000 
     25 CA         71.8370   89.4250  112.4250 C.3       6 GLP5        0.0000 
     26 CA         72.2565   91.7130  108.5230 C.3       3 GLC5        0.0000 
     27 CA         70.4080   91.7670  107.6450 C.3       6 GLP5        0.0000 
     28 CA         76.6160   96.2015  101.1490 C.3       3 GLC5        0.0000 
     29 CA         75.3950   95.8060   99.5390 C.3       9 GLL5        0.0000 
     30 CA         78.1370   95.9100  102.5770 C.3       6 GLP5        0.0000 
     31 CA         77.0392   93.0353   99.6060 C.3       3 GLC5        0.0000 
     32 CA         78.9870   92.7640  100.0900 C.3       6 GLP5        0.0000 
     33 CA         73.4543   92.2493   99.0975 C.3       3 GLC5        0.0000 
     34 CA         71.8170   91.1920   99.0730 C.3       6 GLP5        0.0000 
     35 CA         73.6535   89.7027  104.9998 C.3       3 GLC5        0.0000 
     36 CA         73.4080   91.2270  103.9740 C.3       9 GLL5        0.0000 
     37 CA         73.4990   87.8190  105.5880 C.3       6 GLP5        0.0000 
     38 CA         72.1037   92.1709  102.6280 C.3       3 GLC5        0.0000 
     39 CA         70.5020   92.7980  102.1070 C.3       6 GLP5        0.0000 
     40 CA         77.0450   93.6398  103.2818 C.3       3 GLC5        0.0000 
     41 CA         75.2990   93.0450  102.8930 C.3       9 GLL5        0.0000 
     42 CA         78.8430   94.3100  102.9750 C.3       6 GLP5        0.0000 
     43 CA         73.8212   93.8697  106.5582 C.3       3 GLC5        0.0000 
     44 CA         72.2020   94.7120  106.2220 C.3       6 GLP5        0.0000 
     45 CA         77.1015   93.2830  111.6163 C.3       3 GLC5        0.0000 
     46 CA         75.8180   93.3330  109.4450 C.3       9 GLL5        0.0000 
     47 CA         78.8010   93.6920  112.4080 C.3       6 GLP5        0.0000 
     48 CA         74.0093   90.4928  112.1100 C.3       3 GLC5        0.0000 
     49 CA         74.9810   92.4330  111.5100 C.3       9 GLL5        0.0000 
     50 CA         73.4700   88.9610  113.0700 C.3       6 GLP5        0.0000 
@<TRIPOS>BOND
@<TRIPOS>SUBSTRUCTURE
     1 ALC1        4 GROUP        1 X    ALC  0     ROOT ALC X 1
     2 SEC2        1 GROUP        1 X    SEC  0     **** SEC X 2
     3 GLC5        7 GROUP        1 X    GLC  0     **** GLC X 6
     4 ALP1        6 GROUP        1 Y    ALP  0     ROOT ALP Y 8
     5 SEP2        3 GROUP        1 Y    SEP  0     **** SEP Y 9
     6 GLP5        9 GROUP        1 Y    GLP  0     **** GLP Y 13
     7 ALL1        5 GROUP        1 Z    ALL  0     ROOT ALL Z 15
     8 SEL2        2 GROUP        1 Z    SEL  0     **** SEL Z 16
     9 GLL5        8 GROUP        1 Z    GLL  0     **** GLL Z 20
@<TRIPOS>SET

