#    Name: 2vle_DZN_8_ligand
#    Modification time : Tue Mar 25 02:09:45 2014

@<TRIPOS>MOLECULE
2vle_DZN_8_ligand
   50    53     1     0     0
SMALL
NO_CHARGES


@<TRIPOS>ATOM
      1 O6         73.8000   96.9610  100.8760 O.3       1 DZN1501     0.0000 
      2 C6         74.7950   97.1800   99.9030 C.3       1 DZN1501     0.0000 
      3 C5         75.3950   95.8060   99.5390 C.3       1 DZN1501     0.0000 
      4 O5         74.7020   94.7290  100.1810 O.3       1 DZN1501     0.0000 
      5 C4         75.5220   95.7020   98.0110 C.3       1 DZN1501     0.0000 
      6 O4         76.5430   96.6460   97.5900 O.3       1 DZN1501     0.0000 
      7 C3         75.7950   94.2300   97.5700 C.3       1 DZN1501     0.0000 
      8 O3         75.5380   94.0170   96.1900 O.3       1 DZN1501     0.0000 
      9 C2         74.9910   93.1800   98.3590 C.3       1 DZN1501     0.0000 
     10 O2         75.4770   91.8790   97.9910 O.3       1 DZN1501     0.0000 
     11 C1         75.1920   93.4330   99.8850 C.3       1 DZN1501     0.0000 
     12 O1         74.5100   92.4080  100.6450 O.3       1 DZN1501     0.0000 
     13 C18        74.4660   92.3060  102.0490 C.ar      1 DZN1501     0.0000 
     14 C19        73.5400   91.4150  102.5990 C.ar      1 DZN1501     0.0000 
     15 C20        73.4080   91.2270  103.9740 C.ar      1 DZN1501     0.0000 
     16 C21        74.2080   91.9460  104.8490 C.ar      1 DZN1501     0.0000 
     17 C22        75.1950   92.8940  104.2840 C.ar      1 DZN1501     0.0000 
     18 C23        75.2990   93.0450  102.8930 C.ar      1 DZN1501     0.0000 
     19 O24        75.9780   93.5990  105.1570 O.3       1 DZN1501     0.0000 
     20 C25        75.8900   93.4610  106.5820 C.2       1 DZN1501     0.0000 
     21 C26        74.9910   92.5940  107.2070 C.2       1 DZN1501     0.0000 
     22 C27        74.1000   91.7820  106.3280 C.2       1 DZN1501     0.0000 
     23 O35        73.2630   90.9840  106.7930 O.2       1 DZN1501     0.0000 
     24 C28        74.9600   92.5190  108.7070 C.ar      1 DZN1501     0.0000 
     25 C29        75.8180   93.3330  109.4450 C.ar      1 DZN1501     0.0000 
     26 C30        75.8280   93.2970  110.8330 C.ar      1 DZN1501     0.0000 
     27 C31        74.9810   92.4330  111.5100 C.ar      1 DZN1501     0.0000 
     28 O34        74.9930   92.3950  112.8710 O.3       1 DZN1501     0.0000 
     29 C32        74.1160   91.6160  110.7900 C.ar      1 DZN1501     0.0000 
     30 C33        74.1050   91.6590  109.4010 C.ar      1 DZN1501     0.0000 
     31 H          75.6096   97.8022  100.2672 H         1 DZN1501     0.0000 
     32 H          74.3992   97.6129   98.9869 H         1 DZN1501     0.0000 
     33 H          76.4542   95.8511   99.9260 H         1 DZN1501     0.0000 
     34 H          74.5505   95.9949   97.5970 H         1 DZN1501     0.0000 
     35 H          76.8628   94.0240   97.7807 H         1 DZN1501     0.0000 
     36 H          73.9592   93.3057   98.1296 H         1 DZN1501     0.0000 
     37 H          76.2651   93.3780  100.0549 H         1 DZN1501     0.0000 
     38 H          72.9249   90.8707  101.9546 H         1 DZN1501     0.0000 
     39 H          72.7185   90.5564  104.3349 H         1 DZN1501     0.0000 
     40 H          75.9847   93.6960  102.4997 H         1 DZN1501     0.0000 
     41 H          76.5317   94.0398  107.1628 H         1 DZN1501     0.0000 
     42 H          76.4597   93.9764  108.9460 H         1 DZN1501     0.0000 
     43 H          76.4645   93.9120  111.3584 H         1 DZN1501     0.0000 
     44 H          73.4808   90.9763  111.2889 H         1 DZN1501     0.0000 
     45 H          73.4595   91.0504  108.8733 H         1 DZN1501     0.0000 
     46 H          73.1436   96.3448  100.4406 H         1 DZN1501     0.0000 
     47 H          77.3653   96.3788   98.0924 H         1 DZN1501     0.0000 
     48 H          74.9680   94.7897   95.9107 H         1 DZN1501     0.0000 
     49 H          74.8080   91.5288   97.3354 H         1 DZN1501     0.0000 
     50 H          75.5734   93.1615  113.1461 H         1 DZN1501     0.0000 
@<TRIPOS>BOND
     1    2    1 1    
     2   46    1 1    
     3    3    2 1    
     4   31    2 1    
     5   32    2 1    
     6    4    3 1    
     7    5    3 1    
     8   33    3 1    
     9   11    4 1    
    10    6    5 1    
    11    7    5 1    
    12   34    5 1    
    13   47    6 1    
    14    8    7 1    
    15    9    7 1    
    16   35    7 1    
    17   48    8 1    
    18   10    9 1    
    19   11    9 1    
    20   36    9 1    
    21   49   10 1    
    22   12   11 1    
    23   37   11 1    
    24   13   12 1    
    25   14   13 ar   
    26   18   13 ar   
    27   15   14 ar   
    28   38   14 1    
    29   16   15 ar   
    30   39   15 1    
    31   17   16 ar   
    32   22   16 1    
    33   18   17 ar   
    34   19   17 1    
    35   40   18 1    
    36   20   19 1    
    37   21   20 2    
    38   41   20 1    
    39   22   21 1    
    40   24   21 1    
    41   23   22 2    
    42   25   24 ar   
    43   30   24 ar   
    44   26   25 ar   
    45   42   25 1    
    46   27   26 ar   
    47   43   26 1    
    48   28   27 1    
    49   29   27 ar   
    50   50   28 1    
    51   30   29 ar   
    52   44   29 1    
    53   45   30 1    
@<TRIPOS>SUBSTRUCTURE
     1 DZN1501     1 GROUP   
@<TRIPOS>SET

