#    Name: 4o0t_2OL_1_INTS_M
#    Modification time : Tue Mar 25 13:25:58 2014

@<TRIPOS>MOLECULE
4o0t_2OL_1_INTS_M
   76     0     9     0     0
SMALL
NO_CHARGES


@<TRIPOS>ATOM
      1 CA         13.3070  -10.7645   16.9410 C.3       3 GLC5        0.0000 
      2 CA         13.3550  -11.8340   15.5130 C.3       9 GLL5        0.0000 
      3 CA         13.2590   -9.6950   18.3690 C.3       6 GLP5        0.0000 
      4 CA         14.6500  -12.7325   16.7130 C.3       3 GLC5        0.0000 
      5 CA         15.9450  -13.6310   17.9130 C.3       6 GLP5        0.0000 
      6 CA         11.9080  -16.7135   12.9450 C.3       3 GLC5        0.0000 
      7 CA         12.6240  -14.7750   13.4160 C.3       9 GLL5        0.0000 
      8 CA         11.1920  -18.6520   12.4740 C.3       6 GLP5        0.0000 
      9 CA         11.5010  -14.8590   11.6025 C.3       3 GLC5        0.0000 
     10 CA         10.3780  -14.9430    9.7890 C.3       6 GLP5        0.0000 
     11 CA         18.6345  -13.0005    8.6295 C.3       3 GLC5        0.0000 
     12 CA         18.5950  -14.0400   10.5080 C.3       9 GLL5        0.0000 
     13 CA         18.6740  -11.9610    6.7510 C.3       6 GLP5        0.0000 
     14 CA         19.8000  -12.4175   11.0830 C.3       3 GLC5        0.0000 
     15 CA         21.0050  -10.7950   11.6580 C.3       6 GLP5        0.0000 
     16 CA         15.8960  -16.7390   11.5180 C.3       3 GLC5        0.0000 
     17 CA         17.1850  -15.4090   12.5080 C.3       9 GLL5        0.0000 
     18 CA         14.6070  -18.0690   10.5280 C.3       6 GLP5        0.0000 
     19 CA         15.4770  -17.4475   12.4805 C.3       3 GLC5        0.0000 
     20 CA         16.3470  -16.8260   14.4330 C.3       9 GLL5        0.0000 
     21 CA         18.9535  -18.1715   13.3440 C.3       3 GLC5        0.0000 
     22 CA         17.4150  -17.7200   14.5620 C.3       9 GLL5        0.0000 
     23 CA         20.4920  -18.6230   12.1260 C.3       6 GLP5        0.0000 
     24 CA         19.6490  -18.4740   15.6925 C.3       3 GLC5        0.0000 
     25 CA         17.4620  -18.5740   15.6530 C.3       9 GLL5        0.0000 
     26 CA         21.8360  -18.3740   15.7320 C.3       6 GLP5        0.0000 
     27 CA         17.4240  -20.2520   16.5915 C.3       3 GLC5        0.0000 
     28 CA         17.3860  -21.9300   17.5300 C.3       6 GLP5        0.0000 
     29 CA         16.7130  -16.3815   16.9755 C.3       3 GLC5        0.0000 
     30 CA         15.4890  -17.6760   16.4110 C.3       9 GLL5        0.0000 
     31 CA         17.9370  -15.0870   17.5400 C.3       6 GLP5        0.0000 
     32 O          14.5100  -18.2245   18.5625 O.2       1 ALC1        0.0000 
     33 O          14.4870  -17.6480   17.3640 O.2       7 ALL1        0.0000 
     34 O          14.5330  -18.8010   19.7610 O.2       4 ALP1        0.0000 
     35 CA         21.1695  -15.6980    9.1610 C.3       3 GLC5        0.0000 
     36 CA         21.8170  -15.3510   11.2550 C.3       9 GLL5        0.0000 
     37 CA         20.5220  -16.0450    7.0670 C.3       6 GLP5        0.0000 
     38 CA         22.8005  -17.0900   14.1905 C.3       3 GLC5        0.0000 
     39 CA         23.7650  -15.8060   12.6490 C.3       9 GLL5        0.0000 
     40 CA         26.3930  -19.2835   11.8705 C.3       3 GLC5        0.0000 
     41 CA         25.3740  -17.5670   11.8950 C.3       9 GLL5        0.0000 
     42 CA         27.4120  -21.0000   11.8460 C.3       6 GLP5        0.0000 
     43 CA         25.6215  -16.0640    9.0060 C.3       3 GLC5        0.0000 
     44 CA         24.9250  -17.3600   10.4500 C.3       9 GLL5        0.0000 
     45 CA         26.3180  -14.7680    7.5620 C.3       6 GLP5        0.0000 
     46 N          24.2265  -13.2210   10.8760 N.am      2 SEC2        0.0000 
     47 N          23.9660  -14.5540   10.5890 N.am      8 SEL2        0.0000 
     48 N          24.4870  -11.8880   11.1630 N.am      5 SEP2        0.0000 
     49 O          23.9840  -14.4165    9.2225 O.2       1 ALC1        0.0000 
     50 O          23.9660  -14.5540   10.5890 O.2       7 ALL1        0.0000 
     51 O          24.0020  -14.2790    7.8560 O.2       4 ALP1        0.0000 
     52 CA         18.5032  -14.7797    8.9475 C.3       3 GLC5        0.0000 
     53 CA         17.2460  -13.8590   10.6260 C.3       9 GLL5        0.0000 
     54 CA         19.0860  -15.6100    7.3280 C.3       6 GLP5        0.0000 
     55 CA         16.3255  -15.1085    9.9183 C.3       3 GLC5        0.0000 
     56 CA         14.9120  -16.0990    9.0200 C.3       6 GLP5        0.0000 
     57 CA         19.5257  -15.3120    9.3280 C.3       3 GLC5        0.0000 
     58 CA         19.2580  -14.9140   11.3730 C.3       9 GLL5        0.0000 
     59 CA         19.6988  -16.9360   11.9985 C.3       3 GLC5        0.0000 
     60 CA         21.0622  -13.3980   11.5840 C.3       3 GLC5        0.0000 
     61 CA         22.1590  -11.7820   11.8400 C.3       6 GLP5        0.0000 
     62 CA         17.1878  -19.6810   14.0932 C.3       3 GLC5        0.0000 
     63 CA         16.9370  -21.2150   13.0790 C.3       6 GLP5        0.0000 
     64 CA         17.5543  -16.5053   16.3076 C.3       3 GLC5        0.0000 
     65 CA         20.8685  -16.9278   11.6975 C.3       3 GLC5        0.0000 
     66 CA         20.6730  -15.1140   11.2830 C.3       9 GLL5        0.0000 
     67 CA         22.6559  -13.7144   11.8915 C.3       3 GLC5        0.0000 
     68 CA         25.2952  -14.3962   13.1903 C.3       3 GLC5        0.0000 
     69 CA         26.0950  -12.7620   13.7260 C.3       6 GLP5        0.0000 
     70 CA         26.8777  -16.4267   11.4864 C.3       3 GLC5        0.0000 
     71 CA         25.2260  -16.2550   12.6600 C.3       9 GLL5        0.0000 
     72 CA         28.6430  -15.7180   11.6090 C.3       6 GLP5        0.0000 
     73 CA         23.8457  -18.5832    9.1782 C.3       3 GLC5        0.0000 
     74 CA         23.4970  -20.0280    7.9210 C.3       6 GLP5        0.0000 
     75 CA         21.9906  -17.4695   11.6517 C.3       3 GLC5        0.0000 
     76 CA         23.4640  -16.9170   10.4210 C.3       9 GLL5        0.0000 
@<TRIPOS>BOND
@<TRIPOS>SUBSTRUCTURE
     1 ALC1       32 GROUP        1 X    ALC  0     ROOT ALC X 1
     2 SEC2       46 GROUP        1 X    SEC  0     **** SEC X 2
     3 GLC5        1 GROUP        1 X    GLC  0     **** GLC X 6
     4 ALP1       34 GROUP        1 Y    ALP  0     ROOT ALP Y 8
     5 SEP2       48 GROUP        1 Y    SEP  0     **** SEP Y 9
     6 GLP5        3 GROUP        1 Y    GLP  0     **** GLP Y 13
     7 ALL1       33 GROUP        1 Z    ALL  0     ROOT ALL Z 15
     8 SEL2       47 GROUP        1 Z    SEL  0     **** SEL Z 16
     9 GLL5        2 GROUP        1 Z    GLL  0     **** GLL Z 20
@<TRIPOS>SET

