#    Name: 4o0t_2OL_1_ligand
#    Modification time : Tue Mar 25 13:25:58 2014

@<TRIPOS>MOLECULE
4o0t_2OL_1_ligand
   56    59     1     0     0
SMALL
NO_CHARGES


@<TRIPOS>ATOM
      1 C1         13.3550  -11.8340   15.5130 C.3       1 2OL601      0.0000 
      2 O2         13.0080  -12.5910   14.3520 O.3       1 2OL601      0.0000 
      3 C3         12.4070  -13.8600   14.6260 C.3       1 2OL601      0.0000 
      4 C4         12.6240  -14.7750   13.4160 C.3       1 2OL601      0.0000 
      5 N5         13.8130  -15.6120   13.6150 N.pl3     1 2OL601      0.0000 
      6 C6         15.0160  -15.3510   12.9920 C.2       1 2OL601      0.0000 
      7 N7         15.2040  -14.5450   11.9740 N.2       1 2OL601      0.0000 
      8 C8         16.5200  -14.5330   11.6240 C.ar      1 2OL601      0.0000 
      9 C9         17.2460  -13.8590   10.6260 C.ar      1 2OL601      0.0000 
     10 C10        18.5950  -14.0400   10.5080 C.ar      1 2OL601      0.0000 
     11 C11        19.2580  -14.9140   11.3730 C.ar      1 2OL601      0.0000 
     12 C12        18.5530  -15.5840   12.3690 C.ar      1 2OL601      0.0000 
     13 C13        17.1850  -15.4090   12.5080 C.ar      1 2OL601      0.0000 
     14 N14        16.2070  -15.9210   13.3680 N.pl3     1 2OL601      0.0000 
     15 C15        16.3470  -16.8260   14.4330 C.ar      1 2OL601      0.0000 
     16 C16        17.4150  -17.7200   14.5620 C.ar      1 2OL601      0.0000 
     17 C17        17.4620  -18.5740   15.6530 C.ar      1 2OL601      0.0000 
     18 N18        16.4910  -18.5310   16.5520 N.ar      1 2OL601      0.0000 
     19 C19        15.4890  -17.6760   16.4110 C.ar      1 2OL601      0.0000 
     20 N20        15.4190  -16.8450   15.3790 N.ar      1 2OL601      0.0000 
     21 N21        14.4870  -17.6480   17.3640 N.pl3     1 2OL601      0.0000 
     22 C22        20.6730  -15.1140   11.2830 C.1       1 2OL601      0.0000 
     23 C23        21.8170  -15.3510   11.2550 C.1       1 2OL601      0.0000 
     24 C24        23.2640  -15.6240   11.2190 C.3       1 2OL601      0.0000 
     25 C25        23.7650  -15.8060   12.6490 C.3       1 2OL601      0.0000 
     26 C26        25.2260  -16.2550   12.6600 C.3       1 2OL601      0.0000 
     27 C27        25.3740  -17.5670   11.8950 C.3       1 2OL601      0.0000 
     28 C28        24.9250  -17.3600   10.4500 C.3       1 2OL601      0.0000 
     29 C29        23.4640  -16.9170   10.4210 C.3       1 2OL601      0.0000 
     30 O30        23.9660  -14.5540   10.5890 O.3       1 2OL601      0.0000 
     31 H          11.3322  -13.7744   14.7907 H         1 2OL601      0.0000 
     32 H          12.8555  -14.3439   15.4945 H         1 2OL601      0.0000 
     33 H          12.7349  -14.1470   12.5279 H         1 2OL601      0.0000 
     34 H          11.7306  -15.3925   13.2896 H         1 2OL601      0.0000 
     35 H          13.7076  -16.4205   14.2542 H         1 2OL601      0.0000 
     36 H          16.7391  -13.2258    9.9856 H         1 2OL601      0.0000 
     37 H          19.1348  -13.5394    9.7870 H         1 2OL601      0.0000 
     38 H          19.0576  -16.2184   13.0106 H         1 2OL601      0.0000 
     39 H          18.1537  -17.7392   13.8530 H         1 2OL601      0.0000 
     40 H          18.2604  -19.2283   15.7381 H         1 2OL601      0.0000 
     41 H          14.7601  -17.8836   18.2966 H         1 2OL601      0.0000 
     42 H          13.5764  -17.3945   17.0376 H         1 2OL601      0.0000 
     43 H          23.1558  -16.5558   13.1514 H         1 2OL601      0.0000 
     44 H          23.6760  -14.8622   13.1846 H         1 2OL601      0.0000 
     45 H          25.5498  -16.3975   13.6860 H         1 2OL601      0.0000 
     46 H          25.8391  -15.4926   12.1902 H         1 2OL601      0.0000 
     47 H          24.7567  -18.3258   12.3580 H         1 2OL601      0.0000 
     48 H          26.4108  -17.8770   11.9083 H         1 2OL601      0.0000 
     49 H          25.0295  -18.2913    9.9041 H         1 2OL601      0.0000 
     50 H          25.5416  -16.5969    9.9877 H         1 2OL601      0.0000 
     51 H          23.1582  -16.7500    9.3888 H         1 2OL601      0.0000 
     52 H          22.8409  -17.7009   10.8500 H         1 2OL601      0.0000 
     53 H          14.0115  -12.3194   16.0903 H         1 2OL601      0.0000 
     54 H          13.7685  -10.9555   15.2737 H         1 2OL601      0.0000 
     55 H          12.5555  -11.6367   16.0804 H         1 2OL601      0.0000 
     56 H          23.7983  -14.6752    9.6106 H         1 2OL601      0.0000 
@<TRIPOS>BOND
     1    2    1 1    
     2   53    1 1    
     3   54    1 1    
     4   55    1 1    
     5    3    2 1    
     6    4    3 1    
     7   31    3 1    
     8   32    3 1    
     9    5    4 1    
    10   33    4 1    
    11   34    4 1    
    12    6    5 1    
    13   35    5 1    
    14    7    6 2    
    15   14    6 1    
    16    8    7 1    
    17    9    8 ar   
    18   13    8 ar   
    19   10    9 ar   
    20   36    9 1    
    21   11   10 ar   
    22   37   10 1    
    23   12   11 ar   
    24   22   11 1    
    25   13   12 ar   
    26   38   12 1    
    27   14   13 1    
    28   15   14 1    
    29   16   15 ar   
    30   20   15 ar   
    31   17   16 ar   
    32   39   16 1    
    33   18   17 ar   
    34   40   17 1    
    35   19   18 ar   
    36   20   19 ar   
    37   21   19 1    
    38   41   21 1    
    39   42   21 1    
    40   23   22 3    
    41   24   23 1    
    42   25   24 1    
    43   29   24 1    
    44   30   24 1    
    45   26   25 1    
    46   43   25 1    
    47   44   25 1    
    48   27   26 1    
    49   45   26 1    
    50   46   26 1    
    51   28   27 1    
    52   47   27 1    
    53   48   27 1    
    54   29   28 1    
    55   49   28 1    
    56   50   28 1    
    57   51   29 1    
    58   52   29 1    
    59   56   30 1    
@<TRIPOS>SUBSTRUCTURE
     1 2OL601      1 GROUP   
@<TRIPOS>SET

