#    Name: 3cea_NAD_1_INTS_M
#    Modification time : Mon Mar 24 20:59:14 2014

@<TRIPOS>MOLECULE
3cea_NAD_1_INTS_M
   90     0    12     0     0
SMALL
NO_CHARGES


@<TRIPOS>ATOM
      1 N          27.6540   80.4975   48.5450 N.am      2 SEC2        0.0000 
      2 N          28.4040   81.7670   48.6350 N.am     10 SEL2        0.0000 
      3 N          26.9040   79.2280   48.4550 N.am      6 SEP2        0.0000 
      4 N          28.2015   80.4995   42.6965 N.am      2 SEC2        0.0000 
      5 N          29.6000   81.1430   43.1890 N.am     10 SEL2        0.0000 
      6 N          26.8030   79.8560   42.2040 N.am      6 SEP2        0.0000 
      7 N          30.0990   79.9945   43.0020 N.am      2 SEC2        0.0000 
      8 N          30.5980   78.8460   42.8150 N.am      6 SEP2        0.0000 
      9 N          31.6935   82.7210   40.4225 N.am      2 SEC2        0.0000 
     10 N          31.2580   82.6560   41.8210 N.am     10 SEL2        0.0000 
     11 N          32.1290   82.7860   39.0240 N.am      6 SEP2        0.0000 
     12 CA         27.6300   82.9525   41.6170 C.3       4 GLC5        0.0000 
     13 CA         29.2320   83.9710   41.9830 C.3      12 GLL5        0.0000 
     14 CA         26.0280   81.9340   41.2510 C.3       8 GLP5        0.0000 
     15 CA         29.6615   82.8170   40.1465 C.3       4 GLC5        0.0000 
     16 CA         30.0910   81.6630   38.3100 C.3       8 GLP5        0.0000 
     17 CA         28.3430   85.6815   42.9990 C.3       4 GLC5        0.0000 
     18 CA         27.4540   87.3920   44.0150 C.3       8 GLP5        0.0000 
     19 CA         28.6060   87.2685   42.1315 C.3       4 GLC5        0.0000 
     20 CA         29.7580   87.1450   40.2480 C.3      12 GLL5        0.0000 
     21 CA         27.0925   85.5135   38.0020 C.3       4 GLC5        0.0000 
     22 CA         28.8800   85.9300   37.9240 C.3      12 GLL5        0.0000 
     23 CA         25.3050   85.0970   38.0800 C.3       8 GLP5        0.0000 
     24 CA         28.5620   84.9225   36.3555 C.3       4 GLC5        0.0000 
     25 CA         28.2440   83.9150   34.7870 C.3       8 GLP5        0.0000 
     26 CA         29.4855   83.7965   38.1170 C.3       4 GLC5        0.0000 
     27 CA         30.9400   85.8610   38.5700 C.3       4 GLC5        0.0000 
     28 CA         33.0000   85.7920   39.2160 C.3       8 GLP5        0.0000 
     29 CA         27.5400   87.3445   38.1320 C.3       4 GLC5        0.0000 
     30 CA         26.2000   88.7590   38.3400 C.3       8 GLP5        0.0000 
     31 CA         31.1855   85.7990   39.7315 C.3       4 GLC5        0.0000 
     32 CA         29.3710   85.8060   40.2470 C.3      12 GLL5        0.0000 
     33 CA         27.3835   86.3155   40.8965 C.3       4 GLC5        0.0000 
     34 CA         25.3960   86.8250   41.5460 C.3       8 GLP5        0.0000 
     35 N          24.7390   80.5085   48.1840 N.am      2 SEC2        0.0000 
     36 N          25.4320   81.8020   47.8030 N.am     10 SEL2        0.0000 
     37 N          24.0460   79.2150   48.5650 N.am      6 SEP2        0.0000 
     38 NZ         25.9200   82.6430   51.7245 N.4       3 LYC4        0.0000 
     39 NZ         25.6190   82.8750   50.1330 N.4      11 LYL4        0.0000 
     40 NZ         26.2210   82.4110   53.3160 N.4       7 LYP4        0.0000 
     41 CA         25.4165   85.6665   48.7730 C.3       4 GLC5        0.0000 
     42 CA         24.2750   84.7010   47.1010 C.3      12 GLL5        0.0000 
     43 CA         26.5580   86.6320   50.4450 C.3       8 GLP5        0.0000 
     44 CA         20.8850   85.5425   46.5030 C.3       4 GLC5        0.0000 
     45 CA         23.0230   85.5700   47.1720 C.3      12 GLL5        0.0000 
     46 CA         18.7470   85.5150   45.8340 C.3       8 GLP5        0.0000 
     47 CA         24.6450   87.7070   46.7960 C.3       4 GLC5        0.0000 
     48 CA         23.2510   86.8280   47.9970 C.3      12 GLL5        0.0000 
     49 CA         26.0390   88.5860   45.5950 C.3       8 GLP5        0.0000 
     50 CA         21.9560   87.9730   46.6805 C.3       4 GLC5        0.0000 
     51 CA         20.6610   89.1180   45.3640 C.3       8 GLP5        0.0000 
     52 CA         24.9045   86.7300   49.2210 C.3       4 GLC5        0.0000 
     53 N          22.8435   89.3355   47.9545 N.am      2 SEC2        0.0000 
     54 N          22.7930   87.9430   47.2680 N.am     10 SEL2        0.0000 
     55 N          22.8940   90.7280   48.6410 N.am      6 SEP2        0.0000 
     56 O          23.3150   87.6175   45.8855 O.2       1 ALC1        0.0000 
     57 O          22.7930   87.9430   47.2680 O.2       9 ALL1        0.0000 
     58 O          23.8370   87.2920   44.5030 O.2       5 ALP1        0.0000 
     59 CA         24.1990   87.0025   50.3585 C.3       4 GLC5        0.0000 
     60 CA         22.4200   86.6240   49.2490 C.3      12 GLL5        0.0000 
     61 CA         25.9780   87.3810   51.4680 C.3       8 GLP5        0.0000 
     62 O          20.5240   87.9970   49.2730 O.2       1 ALC1        0.0000 
     63 O          21.8010   87.8140   49.6730 O.2       9 ALL1        0.0000 
     64 O          19.2470   88.1800   48.8730 O.2       5 ALP1        0.0000 
     65 CA         20.5260   83.5315   48.7040 C.3       4 GLC5        0.0000 
     66 CA         21.3880   85.5800   48.8440 C.3      12 GLL5        0.0000 
     67 CA         19.6640   81.4830   48.5640 C.3       8 GLP5        0.0000 
     68 CA         20.0675   85.5475   47.3390 C.3       4 GLC5        0.0000 
     69 O          17.0895   83.8990   49.2155 O.2       1 ALC1        0.0000 
     70 O          17.0060   83.4460   50.5830 O.2       9 ALL1        0.0000 
     71 O          17.1730   84.3520   47.8480 O.2       5 ALP1        0.0000 
     72 O          15.4505   84.0480   50.1350 O.2       1 ALC1        0.0000 
     73 O          13.8950   84.6500   49.6870 O.2       5 ALP1        0.0000 
     74 CA         27.8702   85.3655   44.3162 C.3       4 GLC5        0.0000 
     75 CA         28.3640   83.0160   43.9300 C.3      12 GLL5        0.0000 
     76 CA         27.5433   82.3297   42.5385 C.3       4 GLC5        0.0000 
     77 CA         28.4159   81.1230   45.1949 C.3       4 GLC5        0.0000 
     78 CA         29.7530   82.4350   43.7220 C.3      12 GLL5        0.0000 
     79 CA         27.8120   79.3590   46.2200 C.3       8 GLP5        0.0000 
     80 CA         31.5302   87.2380   39.8942 C.3       4 GLC5        0.0000 
     81 CA         33.3300   86.9650   40.1310 C.3       8 GLP5        0.0000 
     82 CA         27.9652   88.1350   38.9988 C.3       4 GLC5        0.0000 
     83 CA         22.7325   83.6033   46.0808 C.3       4 GLC5        0.0000 
     84 CA         21.8160   82.0710   45.0250 C.3       8 GLP5        0.0000 
     85 CA         19.5938   82.7873   49.6853 C.3       4 GLC5        0.0000 
     86 CA         19.7100   84.5070   50.2760 C.3      12 GLL5        0.0000 
     87 CA         19.2571   85.3724   51.8099 C.3       4 GLC5        0.0000 
     88 CA         20.3230   83.0360   52.0850 C.3      12 GLL5        0.0000 
     89 CA         18.5910   87.1810   52.1740 C.3       8 GLP5        0.0000 
     90 CA         20.5831   82.5405   49.9400 C.3       4 GLC5        0.0000 
@<TRIPOS>BOND
@<TRIPOS>SUBSTRUCTURE
     1 ALC1       56 GROUP        1 X    ALC  0     ROOT ALC X 1
     2 SEC2        1 GROUP        1 X    SEC  0     **** SEC X 2
     3 LYC4       38 GROUP        1 X    LYC  0     **** LYC X 4
     4 GLC5       12 GROUP        1 X    GLC  0     **** GLC X 6
     5 ALP1       58 GROUP        1 Y    ALP  0     ROOT ALP Y 8
     6 SEP2        3 GROUP        1 Y    SEP  0     **** SEP Y 9
     7 LYP4       40 GROUP        1 Y    LYP  0     **** LYP Y 11
     8 GLP5       14 GROUP        1 Y    GLP  0     **** GLP Y 13
     9 ALL1       57 GROUP        1 Z    ALL  0     ROOT ALL Z 15
    10 SEL2        2 GROUP        1 Z    SEL  0     **** SEL Z 16
    11 LYL4       39 GROUP        1 Z    LYL  0     **** LYL Z 18
    12 GLL5       13 GROUP        1 Z    GLL  0     **** GLL Z 20
@<TRIPOS>SET

