#    Name: 3cea_NAD_1_ligand
#    Modification time : Mon Mar 24 20:59:14 2014

@<TRIPOS>MOLECULE
3cea_NAD_1_ligand
   70    74     1     0     0
SMALL
NO_CHARGES


@<TRIPOS>ATOM
      1 PA         28.2920   83.0210   47.8560 P.3       1 NAD400      0.0000 
      2 O1A        28.4040   81.7670   48.6350 O.co2     1 NAD400      0.0000 
      3 O2A        29.4480   83.9160   48.0850 O.co2     1 NAD400      0.0000 
      4 O5B        28.1210   82.6590   46.2970 O.3       1 NAD400      0.0000 
      5 C5B        28.2090   83.6620   45.3050 C.3       1 NAD400      0.0000 
      6 C4B        28.3640   83.0160   43.9300 C.3       1 NAD400      0.0000 
      7 O4B        28.1560   83.9710   42.9030 O.3       1 NAD400      0.0000 
      8 C3B        29.7530   82.4350   43.7220 C.3       1 NAD400      0.0000 
      9 O3B        29.6000   81.1430   43.1890 O.3       1 NAD400      0.0000 
     10 C2B        30.4140   83.3520   42.7110 C.3       1 NAD400      0.0000 
     11 O2B        31.2580   82.6560   41.8210 O.3       1 NAD400      0.0000 
     12 C1B        29.2320   83.9710   41.9830 C.3       1 NAD400      0.0000 
     13 N9A        29.5290   85.3430   41.5290 N.pl3     1 NAD400      0.0000 
     14 C8A        30.0040   86.3830   42.2900 C.2       1 NAD400      0.0000 
     15 N7A        30.1370   87.4750   41.5030 N.2       1 NAD400      0.0000 
     16 C5A        29.7580   87.1450   40.2480 C.ar      1 NAD400      0.0000 
     17 C6A        29.7030   87.8770   39.0670 C.ar      1 NAD400      0.0000 
     18 N6A        29.8290   89.1990   39.1100 N.pl3     1 NAD400      0.0000 
     19 N1A        29.2620   87.2620   37.9080 N.ar      1 NAD400      0.0000 
     20 C2A        28.8800   85.9300   37.9240 C.ar      1 NAD400      0.0000 
     21 N3A        28.9390   85.2080   39.1030 N.ar      1 NAD400      0.0000 
     22 C4A        29.3710   85.8060   40.2470 C.ar      1 NAD400      0.0000 
     23 O3         26.9270   83.7920   48.2280 O.3       1 NAD400      0.0000 
     24 PN         25.5920   83.0000   48.6620 P.3       1 NAD400      0.0000 
     25 O1N        25.4320   81.8020   47.8030 O.co2     1 NAD400      0.0000 
     26 O2N        25.6190   82.8750   50.1330 O.co2     1 NAD400      0.0000 
     27 O5D        24.4010   84.0270   48.3310 O.3       1 NAD400      0.0000 
     28 C5D        24.2750   84.7010   47.1010 C.3       1 NAD400      0.0000 
     29 C4D        23.0230   85.5700   47.1720 C.3       1 NAD400      0.0000 
     30 O4D        21.9630   84.8490   47.7760 O.3       1 NAD400      0.0000 
     31 C3D        23.2510   86.8280   47.9970 C.3       1 NAD400      0.0000 
     32 O3D        22.7930   87.9430   47.2680 O.3       1 NAD400      0.0000 
     33 C2D        22.4200   86.6240   49.2490 C.3       1 NAD400      0.0000 
     34 O2D        21.8010   87.8140   49.6730 O.3       1 NAD400      0.0000 
     35 C1D        21.3880   85.5800   48.8440 C.3       1 NAD400      0.0000 
     36 N1N        21.0350   84.6920   49.9700 N.pl3     1 NAD400      0.0000 
     37 C2N        19.7100   84.5070   50.2760 C.ar      1 NAD400      0.0000 
     38 C3N        19.3370   83.6760   51.3370 C.ar      1 NAD400      0.0000 
     39 C7N        17.8950   83.3270   51.5740 C.2       1 NAD400      0.0000 
     40 O7N        17.5180   82.8780   52.8550 O.2       1 NAD400      0.0000 
     41 N7N        17.0060   83.4460   50.5830 N.am      1 NAD400      0.0000 
     42 C4N        20.3230   83.0360   52.0850 C.ar      1 NAD400      0.0000 
     43 C5N        21.6660   83.2300   51.7690 C.ar      1 NAD400      0.0000 
     44 C6N        22.0100   84.0630   50.7050 C.ar      1 NAD400      0.0000 
     45 H          29.0730   84.3219   45.4598 H         1 NAD400      0.0000 
     46 H          27.3110   84.2933   45.2745 H         1 NAD400      0.0000 
     47 H          27.6496   82.2053   43.8476 H         1 NAD400      0.0000 
     48 H          30.2758   82.4723   44.6289 H         1 NAD400      0.0000 
     49 H          30.9051   84.1356   43.2505 H         1 NAD400      0.0000 
     50 H          29.0058   83.3402   41.1351 H         1 NAD400      0.0000 
     51 H          30.2059   86.3311   43.2303 H         1 NAD400      0.0000 
     52 H          29.7740   89.6750   38.2323 H         1 NAD400      0.0000 
     53 H          29.9674   89.5986   40.0162 H         1 NAD400      0.0000 
     54 H          28.5524   85.4784   37.0582 H         1 NAD400      0.0000 
     55 H          24.1551   84.0156   46.2607 H         1 NAD400      0.0000 
     56 H          25.1224   85.3571   46.8968 H         1 NAD400      0.0000 
     57 H          22.7579   85.8730   46.1676 H         1 NAD400      0.0000 
     58 H          24.2711   86.8742   48.2623 H         1 NAD400      0.0000 
     59 H          23.0516   86.1794   49.9939 H         1 NAD400      0.0000 
     60 H          20.5078   86.1144   48.5045 H         1 NAD400      0.0000 
     61 H          18.9744   84.9798   49.7256 H         1 NAD400      0.0000 
     62 H          16.0578   83.2276   50.8139 H         1 NAD400      0.0000 
     63 H          17.3688   83.7427   49.6997 H         1 NAD400      0.0000 
     64 H          20.0611   82.4242   52.8655 H         1 NAD400      0.0000 
     65 H          22.3968   82.7637   52.3148 H         1 NAD400      0.0000 
     66 H          23.0082   84.2021   50.4752 H         1 NAD400      0.0000 
     67 H          30.2447   81.1000   42.4257 H         1 NAD400      0.0000 
     68 H          32.1762   83.0047   42.0090 H         1 NAD400      0.0000 
     69 H          23.0993   87.7822   46.3297 H         1 NAD400      0.0000 
     70 H          20.8925   87.7960   49.2556 H         1 NAD400      0.0000 
@<TRIPOS>BOND
     1    2    1 ar   
     2    3    1 ar   
     3    4    1 1    
     4   23    1 1    
     5    5    4 1    
     6    6    5 1    
     7   45    5 1    
     8   46    5 1    
     9    7    6 1    
    10    8    6 1    
    11   47    6 1    
    12   12    7 1    
    13    9    8 1    
    14   10    8 1    
    15   48    8 1    
    16   67    9 1    
    17   11   10 1    
    18   12   10 1    
    19   49   10 1    
    20   68   11 1    
    21   13   12 1    
    22   50   12 1    
    23   14   13 1    
    24   22   13 1    
    25   15   14 2    
    26   51   14 1    
    27   16   15 1    
    28   17   16 ar   
    29   22   16 ar   
    30   18   17 1    
    31   19   17 ar   
    32   52   18 1    
    33   53   18 1    
    34   20   19 ar   
    35   21   20 ar   
    36   54   20 1    
    37   22   21 ar   
    38   24   23 1    
    39   25   24 ar   
    40   26   24 ar   
    41   27   24 1    
    42   28   27 1    
    43   29   28 1    
    44   55   28 1    
    45   56   28 1    
    46   30   29 1    
    47   31   29 1    
    48   57   29 1    
    49   35   30 1    
    50   32   31 1    
    51   33   31 1    
    52   58   31 1    
    53   69   32 1    
    54   34   33 1    
    55   35   33 1    
    56   59   33 1    
    57   70   34 1    
    58   36   35 1    
    59   60   35 1    
    60   37   36 ar   
    61   44   36 ar   
    62   38   37 ar   
    63   61   37 1    
    64   39   38 1    
    65   42   38 ar   
    66   40   39 2    
    67   41   39 am   
    68   62   41 1    
    69   63   41 1    
    70   43   42 ar   
    71   64   42 1    
    72   44   43 ar   
    73   65   43 1    
    74   66   44 1    
@<TRIPOS>SUBSTRUCTURE
     1 NAD400      1 GROUP   
@<TRIPOS>SET

