#    Name: 2duv_371_1_INTS_M
#    Modification time : Tue Mar 25 10:21:06 2014

@<TRIPOS>MOLECULE
2duv_371_1_INTS_M
   54     0     9     0     0
SMALL
NO_CHARGES


@<TRIPOS>ATOM
      1 CA         23.4335   29.5465   26.9635 C.3       3 GLC5        0.0000 
      2 CA         23.7360   28.8650   28.9870 C.3       9 GLL5        0.0000 
      3 CA         23.1310   30.2280   24.9400 C.3       6 GLP5        0.0000 
      4 CA         24.5500   30.8015   27.2065 C.3       3 GLC5        0.0000 
      5 CA         24.9140   29.3780   28.3940 C.3       9 GLL5        0.0000 
      6 CA         24.1860   32.2250   26.0190 C.3       6 GLP5        0.0000 
      7 N          23.9740   32.4555   30.0475 N.am      2 SEC2        0.0000 
      8 N          24.9810   31.5560   29.5170 N.am      8 SEL2        0.0000 
      9 N          22.9670   33.3550   30.5780 N.am      5 SEP2        0.0000 
     10 CA         27.9760   33.7360   25.9955 C.3       3 GLC5        0.0000 
     11 CA         28.8470   31.9240   25.8360 C.3       9 GLL5        0.0000 
     12 CA         27.1050   35.5480   26.1550 C.3       6 GLP5        0.0000 
     13 CA         20.1160   27.9125   28.6740 C.3       3 GLC5        0.0000 
     14 CA         21.9930   27.0560   29.2860 C.3       9 GLL5        0.0000 
     15 CA         18.2390   28.7690   28.0620 C.3       6 GLP5        0.0000 
     16 O          26.9495   33.6450   29.1485 O.2       1 ALC1        0.0000 
     17 O          27.1770   32.4440   28.3640 O.2       7 ALL1        0.0000 
     18 O          26.7220   34.8460   29.9330 O.2       4 ALP1        0.0000 
     19 O          31.3785   28.9755   23.7595 O.2       1 ALC1        0.0000 
     20 O          31.4670   28.7080   25.0110 O.2       7 ALL1        0.0000 
     21 O          31.2900   29.2430   22.5080 O.2       4 ALP1        0.0000 
     22 O          31.6565   30.2225   23.2960 O.2       1 ALC1        0.0000 
     23 O          32.0230   31.2020   24.0840 O.2       7 ALL1        0.0000 
     24 CA         25.1840   24.9445   22.4405 C.3       3 GLC5        0.0000 
     25 CA         26.5620   25.5410   24.0630 C.3       9 GLL5        0.0000 
     26 CA         23.8060   24.3480   20.8180 C.3       6 GLP5        0.0000 
     27 CA         29.7515   24.7830   24.6050 C.3       3 GLC5        0.0000 
     28 CA         27.9000   25.8740   24.7420 C.3       9 GLL5        0.0000 
     29 CA         31.6030   23.6920   24.4680 C.3       6 GLP5        0.0000 
     30 CA         29.4420   26.1390   26.3310 C.3       3 GLC5        0.0000 
     31 CA         30.9840   26.4040   27.9200 C.3       6 GLP5        0.0000 
     32 CA         27.7985   31.0922   29.3635 C.3       3 GLC5        0.0000 
     33 CA         27.3150   30.3250   27.1130 C.3       9 GLL5        0.0000 
     34 CA         28.5760   31.4280   31.1590 C.3       6 GLP5        0.0000 
     35 CA         25.6035   31.4907   26.7935 C.3       3 GLC5        0.0000 
     36 CA         26.7270   31.1880   28.0230 C.3       9 GLL5        0.0000 
     37 CA         25.3304   26.4704   28.8029 C.3       3 GLC5        0.0000 
     38 CA         25.6240   28.5910   27.4430 C.3       9 GLL5        0.0000 
     39 CA         25.5620   25.1260   30.1920 C.3       6 GLP5        0.0000 
     40 CA         24.1149   29.0214   26.1769 C.3       3 GLC5        0.0000 
     41 CA         23.9780   26.7840   27.6850 C.3       9 GLL5        0.0000 
     42 CA         29.7757   33.3075   27.0480 C.3       3 GLC5        0.0000 
     43 CA         30.1170   34.5830   28.6390 C.3       6 GLP5        0.0000 
     44 CA         28.0482   31.7995   24.1991 C.3       3 GLC5        0.0000 
     45 CA         30.0220   32.1400   25.0780 C.3       9 GLL5        0.0000 
     46 CA         26.7400   31.8940   22.8160 C.3       6 GLP5        0.0000 
     47 CA         30.6920   31.7058   22.9593 C.3       3 GLC5        0.0000 
     48 CA         30.9350   31.8170   20.9700 C.3       6 GLP5        0.0000 
     49 CA         32.5530   29.8223   25.4423 C.3       3 GLC5        0.0000 
     50 CA         30.8760   31.0490   24.8190 C.3       9 GLL5        0.0000 
     51 CA         34.3810   29.2520   25.8180 C.3       6 GLP5        0.0000 
     52 CA         30.4883   28.0183   26.8050 C.3       3 GLC5        0.0000 
     53 CA         30.5740   29.7360   25.3140 C.3       9 GLL5        0.0000 
     54 CA         24.1532   26.3819   29.6210 C.3       3 GLC5        0.0000 
@<TRIPOS>BOND
@<TRIPOS>SUBSTRUCTURE
     1 ALC1       16 GROUP        1 X    ALC  0     ROOT ALC X 1
     2 SEC2        7 GROUP        1 X    SEC  0     **** SEC X 2
     3 GLC5        1 GROUP        1 X    GLC  0     **** GLC X 6
     4 ALP1       18 GROUP        1 Y    ALP  0     ROOT ALP Y 8
     5 SEP2        9 GROUP        1 Y    SEP  0     **** SEP Y 9
     6 GLP5        3 GROUP        1 Y    GLP  0     **** GLP Y 13
     7 ALL1       17 GROUP        1 Z    ALL  0     ROOT ALL Z 15
     8 SEL2        8 GROUP        1 Z    SEL  0     **** SEL Z 16
     9 GLL5        2 GROUP        1 Z    GLL  0     **** GLL Z 20
@<TRIPOS>SET

