#    Name: 2duv_371_1_ligand
#    Modification time : Tue Mar 25 10:21:06 2014

@<TRIPOS>MOLECULE
2duv_371_1_ligand
   45    48     1     0     0
SMALL
NO_CHARGES


@<TRIPOS>ATOM
      1 O1         26.7820   29.0830   26.8430 O.3       1 371501      0.0000 
      2 C1         27.3150   30.3250   27.1130 C.2       1 371501      0.0000 
      3 C2         26.7270   31.1880   28.0230 C.2       1 371501      0.0000 
      4 C3         25.4570   30.7340   28.7240 C.2       1 371501      0.0000 
      5 C4         23.7360   28.8650   28.9870 C.ar      1 371501      0.0000 
      6 C5         23.2560   27.5740   28.6410 C.ar      1 371501      0.0000 
      7 C6         23.9780   26.7840   27.6850 C.ar      1 371501      0.0000 
      8 C7         25.1690   27.2930   27.0840 C.ar      1 371501      0.0000 
      9 C8         25.6240   28.5910   27.4430 C.ar      1 371501      0.0000 
     10 C9         24.9140   29.3780   28.3940 C.ar      1 371501      0.0000 
     11 O2         24.9810   31.5560   29.5170 O.2       1 371501      0.0000 
     12 C10        28.5350   30.6160   26.3370 C.ar      1 371501      0.0000 
     13 C11        28.8470   31.9240   25.8360 C.ar      1 371501      0.0000 
     14 C12        30.0220   32.1400   25.0780 C.ar      1 371501      0.0000 
     15 C13        30.8760   31.0490   24.8190 C.ar      1 371501      0.0000 
     16 C14        30.5740   29.7360   25.3140 C.ar      1 371501      0.0000 
     17 C15        29.4110   29.5290   26.0660 C.ar      1 371501      0.0000 
     18 C16        21.9930   27.0560   29.2860 C.3       1 371501      0.0000 
     19 O3         27.1770   32.4440   28.3640 O.3       1 371501      0.0000 
     20 O4         31.4670   28.7080   25.0110 O.3       1 371501      0.0000 
     21 O5         32.0230   31.2020   24.0840 O.3       1 371501      0.0000 
     22 C17        26.5620   25.5410   24.0630 C.3       1 371501      0.0000 
     23 C18        25.4590   26.3660   24.7790 C.3       1 371501      0.0000 
     24 N1         25.9100   26.5850   26.1550 N.pl3     1 371501      0.0000 
     25 S1         27.3570   25.8980   26.4190 S.o2      1 371501      0.0000 
     26 C19        27.9000   25.8740   24.7420 C.3       1 371501      0.0000 
     27 O7         27.0860   24.5620   26.8660 O.2       1 371501      0.0000 
     28 O6         28.1790   26.7660   27.2180 O.2       1 371501      0.0000 
     29 H          23.2238   29.4276   29.6715 H         1 371501      0.0000 
     30 H          23.6377   25.8589   27.4368 H         1 371501      0.0000 
     31 H          28.2117   32.6976   26.0324 H         1 371501      0.0000 
     32 H          30.2438   33.0648   24.7281 H         1 371501      0.0000 
     33 H          29.1830   28.5997   26.4247 H         1 371501      0.0000 
     34 H          26.5992   25.8265   23.0315 H         1 371501      0.0000 
     35 H          26.3488   24.4977   24.1767 H         1 371501      0.0000 
     36 H          24.5442   25.7960   24.7481 H         1 371501      0.0000 
     37 H          25.3420   27.2970   24.2477 H         1 371501      0.0000 
     38 H          28.2070   26.8315   24.5704 H         1 371501      0.0000 
     39 H          28.5659   25.1019   24.7114 H         1 371501      0.0000 
     40 H          21.7583   26.1401   28.9603 H         1 371501      0.0000 
     41 H          22.0799   27.0000   30.2806 H         1 371501      0.0000 
     42 H          21.2087   27.6456   29.0930 H         1 371501      0.0000 
     43 H          26.6102   32.7199   29.1403 H         1 371501      0.0000 
     44 H          31.5709   28.7402   24.0169 H         1 371501      0.0000 
     45 H          31.9592   30.5161   23.3591 H         1 371501      0.0000 
@<TRIPOS>BOND
     1    2    1 1    
     2    9    1 1    
     3    3    2 2    
     4   12    2 1    
     5    4    3 1    
     6   19    3 1    
     7   10    4 1    
     8   11    4 2    
     9    6    5 ar   
    10   10    5 ar   
    11   29    5 1    
    12    7    6 ar   
    13   18    6 1    
    14    8    7 ar   
    15   30    7 1    
    16    9    8 ar   
    17   24    8 1    
    18   10    9 ar   
    19   13   12 ar   
    20   17   12 ar   
    21   14   13 ar   
    22   31   13 1    
    23   15   14 ar   
    24   32   14 1    
    25   16   15 ar   
    26   21   15 1    
    27   17   16 ar   
    28   20   16 1    
    29   33   17 1    
    30   40   18 1    
    31   41   18 1    
    32   42   18 1    
    33   43   19 1    
    34   44   20 1    
    35   45   21 1    
    36   23   22 1    
    37   26   22 1    
    38   34   22 1    
    39   35   22 1    
    40   24   23 1    
    41   36   23 1    
    42   37   23 1    
    43   25   24 1    
    44   26   25 1    
    45   27   25 2    
    46   28   25 2    
    47   38   26 1    
    48   39   26 1    
@<TRIPOS>SUBSTRUCTURE
     1 371501      1 GROUP   
@<TRIPOS>SET

