#    Name: 4lwp_SAH_2_INTS_M
#    Modification time : Tue Mar 25 11:33:52 2014

@<TRIPOS>MOLECULE
4lwp_SAH_2_INTS_M
   82     0    12     0     0
SMALL
NO_CHARGES


@<TRIPOS>ATOM
      1 O         -28.5390   32.8785  -20.3470 O.2       1 ALC1        0.0000 
      2 O         -28.4270   32.7850  -18.9580 O.2       9 ALL1        0.0000 
      3 O         -28.6510   32.9720  -21.7360 O.2       5 ALP1        0.0000 
      4 O         -29.2560   31.6045  -18.5000 O.2       1 ALC1        0.0000 
      5 O         -30.0850   30.4240  -18.0420 O.2       5 ALP1        0.0000 
      6 CA        -28.5310   31.3775  -19.9690 C.3       4 GLC5        0.0000 
      7 CA        -27.1140   32.2460  -18.6540 C.3      12 GLL5        0.0000 
      8 CA        -29.9480   30.5090  -21.2840 C.3       8 GLP5        0.0000 
      9 CA        -27.4850   31.0840  -16.8190 C.3       4 GLC5        0.0000 
     10 CA        -27.8560   29.9220  -14.9840 C.3       8 GLP5        0.0000 
     11 CA        -27.1450   35.5865  -18.9095 C.3       4 GLC5        0.0000 
     12 CA        -26.1250   34.0850  -20.2290 C.3      12 GLL5        0.0000 
     13 CA        -28.1650   37.0880  -17.5900 C.3       8 GLP5        0.0000 
     14 CA        -23.4500   33.7725  -20.0490 C.3       4 GLC5        0.0000 
     15 CA        -24.6790   34.3930  -21.2870 C.3      12 GLL5        0.0000 
     16 CA        -22.2210   33.1520  -18.8110 C.3       8 GLP5        0.0000 
     17 NZ        -25.2805   32.7780  -15.5190 N.4       3 LYC4        0.0000 
     18 NZ        -25.7850   32.1660  -16.6620 N.4      11 LYL4        0.0000 
     19 NZ        -24.7400   34.7090  -14.5380 N.4       7 LYP4        0.0000 
     20 N         -25.6200   33.7255  -16.0855 N.am      2 SEC2        0.0000 
     21 N         -25.7850   32.1660  -16.6620 N.am     10 SEL2        0.0000 
     22 N         -25.4550   35.2850  -15.5090 N.am      6 SEP2        0.0000 
     23 N         -25.2805   32.7780  -15.5190 N.am      2 SEC2        0.0000 
     24 N         -24.7760   33.3900  -14.3760 N.am      6 SEP2        0.0000 
     25 NZ        -26.0405   33.5355  -15.5670 N.4       3 LYC4        0.0000 
     26 NZ        -27.3050   33.6810  -16.7580 N.4      11 LYL4        0.0000 
     27 N         -26.3800   34.4830  -16.1335 N.am      2 SEC2        0.0000 
     28 N         -27.3050   33.6810  -16.7580 N.am     10 SEL2        0.0000 
     29 N         -26.0405   33.5355  -15.5670 N.am      2 SEC2        0.0000 
     30 O         -25.3385   30.6335  -25.2250 O.2       1 ALC1        0.0000 
     31 O         -24.7640   31.4960  -23.9710 O.2       9 ALL1        0.0000 
     32 O         -25.9130   29.7710  -26.4790 O.2       5 ALP1        0.0000 
     33 O         -25.8635   30.8595  -24.2795 O.2       1 ALC1        0.0000 
     34 O         -26.9630   30.2230  -24.5880 O.2       5 ALP1        0.0000 
     35 O         -25.3170   30.8365  -26.5060 O.2       1 ALC1        0.0000 
     36 O         -24.7210   31.9020  -26.5330 O.2       9 ALL1        0.0000 
     37 O         -25.8420   31.0625  -25.5605 O.2       1 ALC1        0.0000 
     38 CA        -28.1210   33.2530  -24.8590 C.3       4 GLC5        0.0000 
     39 CA        -26.5180   33.2510  -25.8490 C.3      12 GLL5        0.0000 
     40 CA        -29.7240   33.2550  -23.8690 C.3       8 GLP5        0.0000 
     41 CA        -27.1490   35.2580  -25.2375 C.3       4 GLC5        0.0000 
     42 CA        -27.7800   37.2650  -24.6260 C.3       8 GLP5        0.0000 
     43 CA        -30.0590   33.5895  -30.8540 C.3       4 GLC5        0.0000 
     44 CA        -29.2620   34.9960  -29.4690 C.3      12 GLL5        0.0000 
     45 CA        -30.8560   32.1830  -32.2390 C.3       8 GLP5        0.0000 
     46 CA        -31.3525   35.0865  -29.0640 C.3       4 GLC5        0.0000 
     47 CA        -33.4430   35.1770  -28.6590 C.3       8 GLP5        0.0000 
     48 CA        -30.1005   37.0145  -29.1810 C.3       4 GLC5        0.0000 
     49 CA        -30.9390   39.0330  -28.8930 C.3       8 GLP5        0.0000 
     50 O         -30.2855   36.2560  -31.4705 O.2       1 ALC1        0.0000 
     51 O         -29.4020   36.0530  -30.2810 O.2       9 ALL1        0.0000 
     52 O         -31.1690   36.4590  -32.6600 O.2       5 ALP1        0.0000 
     53 O         -29.7175   37.5320  -30.1395 O.2       1 ALC1        0.0000 
     54 O         -30.0330   39.0110  -29.9980 O.2       5 ALP1        0.0000 
     55 N         -31.2860   33.7680  -30.3410 N.am      2 SEC2        0.0000 
     56 N         -30.1220   33.9170  -29.5420 N.am     10 SEL2        0.0000 
     57 N         -32.4500   33.6190  -31.1400 N.am      6 SEP2        0.0000 
     58 CA        -31.7215   31.9965  -28.2490 C.3       4 GLC5        0.0000 
     59 CA        -29.9620   32.8330  -28.6880 C.3      12 GLL5        0.0000 
     60 CA        -33.4810   31.1600  -27.8100 C.3       8 GLP5        0.0000 
     61 CA        -29.7785   31.0165  -27.6305 C.3       4 GLC5        0.0000 
     62 CA        -29.5950   29.2000  -26.5730 C.3       8 GLP5        0.0000 
     63 CA        -28.7450   31.8720  -29.6310 C.3       4 GLC5        0.0000 
     64 CA        -27.5280   30.9110  -30.5740 C.3       8 GLP5        0.0000 
     65 CA        -30.4090   32.5080  -30.4635 C.3       4 GLC5        0.0000 
     66 CA        -31.7025   34.0050  -28.6735 C.3       4 GLC5        0.0000 
     67 N         -28.6440   31.2860  -28.1730 N.am      2 SEC2        0.0000 
     68 N         -28.9330   32.8180  -27.7640 N.am     10 SEL2        0.0000 
     69 N         -28.3550   29.7540  -28.5820 N.am      6 SEP2        0.0000 
     70 CA        -28.9060   33.5670  -25.7825 C.3       4 GLC5        0.0000 
     71 CA        -28.0880   33.8790  -27.6960 C.3      12 GLL5        0.0000 
     72 CA        -27.8080   32.3950  -29.1350 C.3       4 GLC5        0.0000 
     73 CA        -26.4885   30.8045  -20.3933 C.3       4 GLC5        0.0000 
     74 CA        -26.0900   32.6460  -19.7090 C.3      12 GLL5        0.0000 
     75 CA        -26.3750   29.1630  -21.6050 C.3       8 GLP5        0.0000 
     76 CA        -24.1643   33.2587  -19.3900 C.3       4 GLC5        0.0000 
     77 CA        -27.7953   33.6887  -23.5150 C.3       4 GLC5        0.0000 
     78 CA        -25.7410   34.7320  -22.7120 C.3      12 GLL5        0.0000 
     79 CA        -26.8233   35.6937  -23.8935 C.3       4 GLC5        0.0000 
     80 CA        -25.9920   33.5130  -23.6100 C.3      12 GLL5        0.0000 
     81 CA        -28.7990   35.7365  -26.7130 C.3       4 GLC5        0.0000 
     82 CA        -29.4380   37.0470  -25.3100 C.3       8 GLP5        0.0000 
@<TRIPOS>BOND
@<TRIPOS>SUBSTRUCTURE
     1 ALC1        1 GROUP        1 X    ALC  0     ROOT ALC X 1
     2 SEC2       20 GROUP        1 X    SEC  0     **** SEC X 2
     3 LYC4       17 GROUP        1 X    LYC  0     **** LYC X 4
     4 GLC5        6 GROUP        1 X    GLC  0     **** GLC X 6
     5 ALP1        3 GROUP        1 Y    ALP  0     ROOT ALP Y 8
     6 SEP2       22 GROUP        1 Y    SEP  0     **** SEP Y 9
     7 LYP4       19 GROUP        1 Y    LYP  0     **** LYP Y 11
     8 GLP5        8 GROUP        1 Y    GLP  0     **** GLP Y 13
     9 ALL1        2 GROUP        1 Z    ALL  0     ROOT ALL Z 15
    10 SEL2       21 GROUP        1 Z    SEL  0     **** SEL Z 16
    11 LYL4       18 GROUP        1 Z    LYL  0     **** LYL Z 18
    12 GLL5        7 GROUP        1 Z    GLL  0     **** GLL Z 20
@<TRIPOS>SET

