#    Name: 4lwp_SAH_2_ligand
#    Modification time : Tue Mar 25 11:33:52 2014

@<TRIPOS>MOLECULE
4lwp_SAH_2_ligand
   46    48     1     0     0
SMALL
NO_CHARGES


@<TRIPOS>ATOM
      1 N         -28.4270   32.7850  -18.9580 N.4       1 SAH407      0.0000 
      2 CA        -27.1140   32.2460  -18.6540 C.3       1 SAH407      0.0000 
      3 CB        -26.0900   32.6460  -19.7090 C.3       1 SAH407      0.0000 
      4 CG        -26.1250   34.0850  -20.2290 C.3       1 SAH407      0.0000 
      5 SD        -24.6790   34.3930  -21.2870 S.3       1 SAH407      0.0000 
      6 C         -26.7050   32.7250  -17.2750 C.2       1 SAH407      0.0000 
      7 O         -25.7850   32.1660  -16.6620 O.co2     1 SAH407      0.0000 
      8 OXT       -27.3050   33.6810  -16.7580 O.co2     1 SAH407      0.0000 
      9 C5'       -25.7410   34.7320  -22.7120 C.3       1 SAH407      0.0000 
     10 C4'       -25.9920   33.5130  -23.6100 C.3       1 SAH407      0.0000 
     11 O4'       -26.8530   33.9120  -24.6550 O.3       1 SAH407      0.0000 
     12 C3'       -24.7760   32.8770  -24.2840 C.3       1 SAH407      0.0000 
     13 O3'       -24.7640   31.4960  -23.9710 O.3       1 SAH407      0.0000 
     14 C2'       -25.0210   33.0530  -25.7830 C.3       1 SAH407      0.0000 
     15 O2'       -24.7210   31.9020  -26.5330 O.3       1 SAH407      0.0000 
     16 C1'       -26.5180   33.2510  -25.8490 C.3       1 SAH407      0.0000 
     17 N9        -26.9960   34.1420  -26.9090 N.pl3     1 SAH407      0.0000 
     18 C8        -26.4990   35.3750  -27.2440 C.2       1 SAH407      0.0000 
     19 N7        -27.2520   35.8640  -28.2450 N.2       1 SAH407      0.0000 
     20 C5        -28.2320   34.9730  -28.5360 C.ar      1 SAH407      0.0000 
     21 C6        -29.2620   34.9960  -29.4690 C.ar      1 SAH407      0.0000 
     22 N6        -29.4020   36.0530  -30.2810 N.pl3     1 SAH407      0.0000 
     23 N1        -30.1220   33.9170  -29.5420 N.ar      1 SAH407      0.0000 
     24 C2        -29.9620   32.8330  -28.6880 C.ar      1 SAH407      0.0000 
     25 N3        -28.9330   32.8180  -27.7640 N.ar      1 SAH407      0.0000 
     26 C4        -28.0880   33.8790  -27.6960 C.ar      1 SAH407      0.0000 
     27 H         -27.1634   31.1565  -18.6240 H         1 SAH407      0.0000 
     28 H         -26.1907   31.9537  -20.5837 H         1 SAH407      0.0000 
     29 H         -25.0650   32.4430  -19.3057 H         1 SAH407      0.0000 
     30 H         -26.0109   34.8156  -19.4700 H         1 SAH407      0.0000 
     31 H         -26.9330   34.2815  -20.8858 H         1 SAH407      0.0000 
     32 H         -25.2116   35.5263  -23.2134 H         1 SAH407      0.0000 
     33 H         -26.6386   35.1097  -22.2490 H         1 SAH407      0.0000 
     34 H         -26.4877   32.7436  -23.0133 H         1 SAH407      0.0000 
     35 H         -23.9166   33.3944  -24.0065 H         1 SAH407      0.0000 
     36 H         -24.5567   33.9331  -26.1100 H         1 SAH407      0.0000 
     37 H         -27.0039   32.3044  -25.8943 H         1 SAH407      0.0000 
     38 H         -25.7468   35.8000  -26.8287 H         1 SAH407      0.0000 
     39 H         -29.1545   36.9411  -29.8939 H         1 SAH407      0.0000 
     40 H         -29.7414   35.8589  -31.2014 H         1 SAH407      0.0000 
     41 H         -30.6156   32.0364  -28.7455 H         1 SAH407      0.0000 
     42 H         -28.5694   32.8826  -19.9430 H         1 SAH407      0.0000 
     43 H         -29.1588   32.1972  -18.6129 H         1 SAH407      0.0000 
     44 H         -28.5606   33.6889  -18.5515 H         1 SAH407      0.0000 
     45 H         -25.6561   31.1556  -24.2682 H         1 SAH407      0.0000 
     46 H         -25.5928   31.4217  -26.6296 H         1 SAH407      0.0000 
@<TRIPOS>BOND
     1    2    1 1    
     2   42    1 1    
     3   43    1 1    
     4   44    1 1    
     5    3    2 1    
     6    6    2 1    
     7   27    2 1    
     8    4    3 1    
     9   28    3 1    
    10   29    3 1    
    11    5    4 1    
    12   30    4 1    
    13   31    4 1    
    14    9    5 1    
    15    7    6 ar   
    16    8    6 ar   
    17   10    9 1    
    18   32    9 1    
    19   33    9 1    
    20   11   10 1    
    21   12   10 1    
    22   34   10 1    
    23   16   11 1    
    24   13   12 1    
    25   14   12 1    
    26   35   12 1    
    27   45   13 1    
    28   15   14 1    
    29   16   14 1    
    30   36   14 1    
    31   46   15 1    
    32   17   16 1    
    33   37   16 1    
    34   18   17 1    
    35   26   17 1    
    36   19   18 2    
    37   38   18 1    
    38   20   19 1    
    39   21   20 ar   
    40   26   20 ar   
    41   22   21 1    
    42   23   21 ar   
    43   39   22 1    
    44   40   22 1    
    45   24   23 ar   
    46   25   24 ar   
    47   41   24 1    
    48   26   25 ar   
@<TRIPOS>SUBSTRUCTURE
     1 SAH407      1 GROUP   
@<TRIPOS>SET

