#    Name: 3P0P_1_CAVITY_N1_ALL.mol2
#    Modification time : Mon Mar 10 12:57:49 2014

@<TRIPOS>MOLECULE
3P0P_1_CAVITY_N1_ALL.mol2
   84     0     6     0     0
SMALL
NO_CHARGES


@<TRIPOS>ATOM
      1 DU         -4.3955  -11.5906   -3.8360 H         6 CUB7        0.0000 
      2 N          -2.9561  -11.4585   -4.2370 N.2       2 ALA2        0.0000 
      3 CA         -4.4804  -12.8957   -4.5707 C.3       5 GLY6        0.0000 
      4 N          -4.7241   -9.5580   -4.3462 N.2       2 ALA2        0.0000 
      5 CA        -10.5665  -11.3914   -3.4771 C.3       5 GLY6        0.0000 
      6 CZ         -9.1271  -11.2593   -3.8781 C.ar      4 PHE5        0.0000 
      7 CZ         -7.6878  -11.1272   -4.2790 C.ar      4 PHE5        0.0000 
      8 CZ         -6.2484  -10.9951   -4.6799 C.ar      4 PHE5        0.0000 
      9 N          -4.8090  -10.8630   -5.0809 N.2       2 ALA2        0.0000 
     10 CA         -9.2120  -12.5643   -4.6127 C.3       5 GLY6        0.0000 
     11 CA         -7.7726  -12.4322   -5.0136 C.3       5 GLY6        0.0000 
     12 CA         -6.3333  -12.3001   -5.4146 C.3       5 GLY6        0.0000 
     13 CZ         -4.8939  -12.1680   -5.8155 C.ar      4 PHE5        0.0000 
     14 OG         -2.4395  -18.4290  -10.2906 O.2       1 SER1        0.0000 
     15 OG         -3.9637  -19.8661  -10.6243 O.2       1 SER1        0.0000 
     16 CZ         -8.1013  -10.3995   -5.5238 C.ar      4 PHE5        0.0000 
     17 CZ         -6.6619  -10.2674   -5.9247 C.ar      4 PHE5        0.0000 
     18 N          -5.2225  -10.1354   -6.3257 N.2       2 ALA2        0.0000 
     19 CA         -9.6255  -11.8367   -5.8575 C.3       5 GLY6        0.0000 
     20 CA         -8.1861  -11.7046   -6.2584 C.3       5 GLY6        0.0000 
     21 CA         -6.7468  -11.5725   -6.6594 C.3       5 GLY6        0.0000 
     22 CZ         -5.3074  -11.4404   -7.0603 C.ar      4 PHE5        0.0000 
     23 CA         -8.2710  -13.0096   -6.9931 C.3       5 GLY6        0.0000 
     24 CA         -6.8316  -12.8775   -7.3940 C.3       5 GLY6        0.0000 
     25 CZ         -5.3923  -12.7454   -7.7949 C.ar      4 PHE5        0.0000 
     26 CZ         -2.8530  -17.7013  -11.5354 C.ar      4 PHE5        0.0000 
     27 O          -1.4136  -17.5693  -11.9363 O.2       2 ALA2        0.0000 
     28 OG         -4.3772  -19.1385  -11.8691 O.2       1 SER1        0.0000 
     29 OG         -2.9379  -19.0064  -12.2700 O.2       1 SER1        0.0000 
     30 CA         -3.0227  -20.3114  -13.0047 C.3       5 GLY6        0.0000 
     31 CA         -8.5148   -9.6719   -6.7686 C.3       5 GLY6        0.0000 
     32 OG         -7.0754   -9.5398   -7.1695 O.2       1 SER1        0.0000 
     33 N          -5.6360   -9.4077   -7.5705 N.2       2 ALA2        0.0000 
     34 CA         -8.5997  -10.9769   -7.5033 C.3       5 GLY6        0.0000 
     35 OG         -7.1603  -10.8448   -7.9042 O.2       1 SER1        0.0000 
     36 CA         -5.7209  -10.7128   -8.3051 C.3       5 GLY6        0.0000 
     37 CA         -4.2815  -10.5807   -8.7061 C.3       5 GLY6        0.0000 
     38 N          -8.6845  -12.2820   -8.2379 N.2       2 ALA2        0.0000 
     39 CZ         -7.2452  -12.1499   -8.6388 C.ar      4 PHE5        0.0000 
     40 CZ         -5.8058  -12.0178   -9.0398 C.ar      4 PHE5        0.0000 
     41 CZ         -5.8906  -13.3228   -9.7744 C.ar      4 PHE5        0.0000 
     42 OG         -3.2665  -16.9737  -12.7802 O.2       1 SER1        0.0000 
     43 CZ         -1.8271  -16.8416  -13.1811 C.ar      4 PHE5        0.0000 
     44 OG         -3.3514  -18.2787  -13.5148 O.2       1 SER1        0.0000 
     45 CA         -1.9120  -18.1467  -13.9158 C.3       5 GLY6        0.0000 
     46 CA         -3.4363  -19.5838  -14.2495 C.3       5 GLY6        0.0000 
     47 N          -6.0495   -8.6801   -8.8153 N.2       2 ALA2        0.0000 
     48 OG         -9.0132  -10.2493   -8.7481 O.2       1 SER1        0.0000 
     49 OG         -7.5738  -10.1172   -9.1490 O.2       1 SER1        0.0000 
     50 DU         -6.1344   -9.9851   -9.5499 H         6 CUB7        0.0000 
     51 N          -4.6950   -9.8530   -9.9509 N.2       2 ALA2        0.0000 
     52 CA         -7.6587  -11.4222   -9.8836 C.3       5 GLY6        0.0000 
     53 DU         -6.2193  -11.2901  -10.2846 H         6 CUB7        0.0000 
     54 CA         -4.7799  -11.1581  -10.6855 C.3       5 GLY6        0.0000 
     55 CZ         -6.3042  -12.5952  -11.0192 C.ar      4 PHE5        0.0000 
     56 CA         -4.8648  -12.4631  -11.4201 C.3       5 GLY6        0.0000 
     57 OG         -3.6800  -16.2461  -14.0250 O.2       1 SER1        0.0000 
     58 NZ         -2.2406  -16.1140  -14.4259 N.2       3 LYS4        0.0000 
     59 NZ         -3.7649  -17.5511  -14.7596 N.2       3 LYS4        0.0000 
     60 NZ         -2.3255  -17.4190  -15.1606 N.2       3 LYS4        0.0000 
     61 NZ         -3.8498  -18.8561  -15.4943 N.2       3 LYS4        0.0000 
     62 NZ         -2.4104  -18.7240  -15.8952 N.2       3 LYS4        0.0000 
     63 N          -6.5479   -9.2575  -10.7947 N.2       2 ALA2        0.0000 
     64 O          -5.1085   -9.1254  -11.1957 O.2       2 ALA2        0.0000 
     65 N          -6.6328  -10.5625  -11.5294 N.2       2 ALA2        0.0000 
     66 CA         -5.1934  -10.4304  -11.9303 C.3       5 GLY6        0.0000 
     67 CZ         -6.7177  -11.8675  -12.2640 C.ar      4 PHE5        0.0000 
     68 CA         -5.3632  -13.0405  -13.3996 C.3       5 GLY6        0.0000 
     69 CZ         -5.4480  -14.3455  -14.1342 C.ar      4 PHE5        0.0000 
     70 CZ         -4.0087  -14.2134  -14.5352 C.ar      4 PHE5        0.0000 
     71 CZ         -5.5329  -15.6505  -14.8689 C.ar      4 PHE5        0.0000 
     72 N          -7.1312  -11.1399  -13.5088 N.2       2 ALA2        0.0000 
     73 N          -5.6918  -11.0078  -13.9098 N.2       2 ALA2        0.0000 
     74 CZ         -7.2160  -12.4449  -14.2435 C.ar      4 PHE5        0.0000 
     75 CA         -5.7767  -12.3128  -14.6444 C.3       5 GLY6        0.0000 
     76 CZ         -7.3009  -13.7500  -14.9781 C.ar      4 PHE5        0.0000 
     77 CZ         -5.8615  -13.6179  -15.3791 C.ar      4 PHE5        0.0000 
     78 CA         -4.4222  -13.4858  -15.7800 C.3       5 GLY6        0.0000 
     79 CA         -5.9464  -14.9229  -16.1137 C.3       5 GLY6        0.0000 
     80 OG         -7.6296  -11.7173  -15.4883 O.2       1 SER1        0.0000 
     81 O          -6.1902  -11.5852  -15.8892 O.2       2 ALA2        0.0000 
     82 OG         -7.7144  -13.0223  -16.2229 O.2       1 SER1        0.0000 
     83 CA         -6.2751  -12.8902  -16.6239 C.3       5 GLY6        0.0000 
     84 O          -2.6275  -13.4912   -3.7268 O.2       2 ALA2        0.0000 
@<TRIPOS>BOND
@<TRIPOS>SUBSTRUCTURE
     1 SER1       14 GROUP   
     2 ALA2        2 GROUP   
     3 LYS4       58 GROUP   
     4 PHE5        6 GROUP   
     5 GLY6        3 GROUP   
     6 CUB7        1 GROUP   
@<TRIPOS>SET

