#    Name: 3p0p_NNF_1_INTS_M
#    Modification time : Tue Mar 25 05:46:54 2014

@<TRIPOS>MOLECULE
3p0p_NNF_1_INTS_M
   51     0     9     0     0
SMALL
NO_CHARGES


@<TRIPOS>ATOM
      1 CA         -6.2895  -16.0745  -15.8185 C.3       3 GLC5        0.0000 
      2 CA         -5.3000  -14.3140  -14.9390 C.3       9 GLL5        0.0000 
      3 CA         -7.2790  -17.8350  -16.6980 C.3       6 GLP5        0.0000 
      4 CA         -6.5495  -15.0020  -14.1095 C.3       3 GLC5        0.0000 
      5 CA         -7.7990  -15.6900  -13.2800 C.3       6 GLP5        0.0000 
      6 N          -9.3780   -9.7105  -14.8695 N.am      2 SEC2        0.0000 
      7 N          -8.3860  -10.6620  -15.2700 N.am      8 SEL2        0.0000 
      8 N         -10.3700   -8.7590  -14.4690 N.am      5 SEP2        0.0000 
      9 N          -9.0690  -10.7305  -16.4775 N.am      2 SEC2        0.0000 
     10 N          -9.7520  -10.7990  -17.6850 N.am      5 SEP2        0.0000 
     11 CA         -6.3765   -8.8220   -4.0245 C.3       3 GLC5        0.0000 
     12 CA         -5.0320   -9.8020   -3.6070 C.3       9 GLL5        0.0000 
     13 CA         -7.7210   -7.8420   -4.4420 C.3       6 GLP5        0.0000 
     14 CA         -3.4685  -10.3230   -7.3205 C.3       3 GLC5        0.0000 
     15 CA         -5.3880   -9.3500   -7.1830 C.3       9 GLL5        0.0000 
     16 CA         -1.5490  -11.2960   -7.4580 C.3       6 GLP5        0.0000 
     17 CA         -7.1050  -12.3770  -17.4260 C.3       3 GLC5        0.0000 
     18 CA         -6.9390  -12.4090  -15.3300 C.3       9 GLL5        0.0000 
     19 CA         -7.2710  -12.3450  -19.5220 C.3       6 GLP5        0.0000 
     20 CA         -8.9895  -12.3990  -15.9145 C.3       3 GLC5        0.0000 
     21 CA        -11.0400  -12.3890  -16.4990 C.3       6 GLP5        0.0000 
     22 CA         -4.0995  -12.8265   -8.9510 C.3       3 GLC5        0.0000 
     23 CA         -5.6960  -12.2370   -9.2880 C.3       9 GLL5        0.0000 
     24 CA         -2.5030  -13.4160   -8.6140 C.3       6 GLP5        0.0000 
     25 CA         -6.3050  -13.8205   -7.8435 C.3       3 GLC5        0.0000 
     26 CA         -6.9140  -15.4040   -6.3990 C.3       6 GLP5        0.0000 
     27 CA         -4.0170  -13.2295  -10.2335 C.3       3 GLC5        0.0000 
     28 CA         -5.4620  -12.2250  -10.7270 C.3       9 GLL5        0.0000 
     29 CA         -2.5720  -14.2340   -9.7400 C.3       6 GLP5        0.0000 
     30 CA         -4.2930  -11.6615  -12.2005 C.3       3 GLC5        0.0000 
     31 CA         -3.1240  -11.0980  -13.6740 C.3       6 GLP5        0.0000 
     32 CA         -8.7005  -11.8840  -11.1520 C.3       3 GLC5        0.0000 
     33 CA         -7.4060  -10.5910  -10.8600 C.3       9 GLL5        0.0000 
     34 CA         -9.9950  -13.1770  -11.4440 C.3       6 GLP5        0.0000 
     35 O          -8.6160  -10.5340  -12.7325 O.2       1 ALC1        0.0000 
     36 O          -7.4320  -11.1650  -13.4620 O.2       7 ALL1        0.0000 
     37 O          -9.8000   -9.9030  -12.0030 O.2       4 ALP1        0.0000 
     38 CA         -5.8850  -13.2920   -5.5578 C.3       3 GLC5        0.0000 
     39 CA         -5.9070  -11.5680   -6.6020 C.3       9 GLL5        0.0000 
     40 CA         -5.9990  -15.1470   -5.1720 C.3       6 GLP5        0.0000 
     41 CA         -4.6273   -7.2557   -6.6827 C.3       3 GLC5        0.0000 
     42 CA         -3.9990   -5.3020   -6.8450 C.3       6 GLP5        0.0000 
     43 CA         -3.9733  -11.5248   -7.9060 C.3       3 GLC5        0.0000 
     44 CA         -5.7720  -10.6070   -7.5580 C.3       9 GLL5        0.0000 
     45 CA         -2.1070  -11.9620   -8.7320 C.3       6 GLP5        0.0000 
     46 CA         -4.7227  -12.0835  -14.3506 C.3       3 GLC5        0.0000 
     47 CA         -6.1080  -13.1440  -14.5100 C.3       9 GLL5        0.0000 
     48 CA         -6.9240  -13.5415  -10.3462 C.3       3 GLC5        0.0000 
     49 CA         -8.2690  -14.8520  -10.6850 C.3       6 GLP5        0.0000 
     50 CA         -8.4908   -8.9957   -9.9467 C.3       3 GLC5        0.0000 
     51 CA         -9.7970   -7.6690   -9.6740 C.3       6 GLP5        0.0000 
@<TRIPOS>BOND
@<TRIPOS>SUBSTRUCTURE
     1 ALC1       35 GROUP        1 X    ALC  0     ROOT ALC X 1
     2 SEC2        6 GROUP        1 X    SEC  0     **** SEC X 2
     3 GLC5        1 GROUP        1 X    GLC  0     **** GLC X 6
     4 ALP1       37 GROUP        1 Y    ALP  0     ROOT ALP Y 8
     5 SEP2        8 GROUP        1 Y    SEP  0     **** SEP Y 9
     6 GLP5        3 GROUP        1 Y    GLP  0     **** GLP Y 13
     7 ALL1       36 GROUP        1 Z    ALL  0     ROOT ALL Z 15
     8 SEL2        7 GROUP        1 Z    SEL  0     **** SEL Z 16
     9 GLL5        2 GROUP        1 Z    GLL  0     **** GLL Z 20
@<TRIPOS>SET

