#    Name: 3p0p_NNF_1_ligand
#    Modification time : Tue Mar 25 05:46:54 2014

@<TRIPOS>MOLECULE
3p0p_NNF_1_ligand
   38    40     1     0     0
SMALL
NO_CHARGES


@<TRIPOS>ATOM
      1 CAA        -5.3000  -14.3140  -14.9390 C.3       1 NNF1163     0.0000 
      2 OAB        -8.3860  -10.6620  -15.2700 O.2       1 NNF1163     0.0000 
      3 FAC        -5.0320   -9.8020   -3.6070 F         1 NNF1163     0.0000 
      4 CAD        -5.6350  -11.3060   -5.2850 C.ar      1 NNF1163     0.0000 
      5 CAE        -5.1230   -9.0690   -5.8580 C.ar      1 NNF1163     0.0000 
      6 CAF        -5.9070  -11.5680   -6.6020 C.ar      1 NNF1163     0.0000 
      7 CAG        -5.3880   -9.3500   -7.1830 C.ar      1 NNF1163     0.0000 
      8 CAH        -6.9390  -12.4090  -15.3300 C.2       1 NNF1163     0.0000 
      9 CAI        -5.6960  -12.2370   -9.2880 C.3       1 NNF1163     0.0000 
     10 CAJ        -6.9630  -10.0540   -9.5790 C.3       1 NNF1163     0.0000 
     11 CAK        -5.4620  -12.2250  -10.7270 C.3       1 NNF1163     0.0000 
     12 CAL        -7.4060  -10.5910  -10.8600 C.3       1 NNF1163     0.0000 
     13 NAM        -6.0000  -12.8240  -13.2650 N.2       1 NNF1163     0.0000 
     14 NAN        -7.4320  -11.1650  -13.4620 N.am      1 NNF1163     0.0000 
     15 CAO        -6.1080  -13.1440  -14.5100 C.2       1 NNF1163     0.0000 
     16 CAP        -5.2570  -10.0480   -4.8960 C.ar      1 NNF1163     0.0000 
     17 CAQ        -5.7720  -10.6070   -7.5580 C.ar      1 NNF1163     0.0000 
     18 CAR        -6.6140  -11.8370  -12.7370 C.2       1 NNF1163     0.0000 
     19 CAS        -7.6240  -11.4010  -14.7300 C.2       1 NNF1163     0.0000 
     20 NAT        -6.0760  -10.9390   -8.8420 N.3       1 NNF1163     0.0000 
     21 NAU        -6.4850  -11.5410  -11.4480 N.3       1 NNF1163     0.0000 
     22 H          -5.7155  -12.0622   -4.5805 H         1 NNF1163     0.0000 
     23 H          -4.8218   -8.1172   -5.5850 H         1 NNF1163     0.0000 
     24 H          -6.2244  -12.5260   -6.8754 H         1 NNF1163     0.0000 
     25 H          -5.2937   -8.6006   -7.8922 H         1 NNF1163     0.0000 
     26 H          -7.0253  -12.6154  -16.3123 H         1 NNF1163     0.0000 
     27 H          -4.7793  -12.5750   -8.7709 H         1 NNF1163     0.0000 
     28 H          -6.4821  -12.9772   -9.0512 H         1 NNF1163     0.0000 
     29 H          -7.8557   -9.8123   -8.9504 H         1 NNF1163     0.0000 
     30 H          -6.4560   -9.0712   -9.7451 H         1 NNF1163     0.0000 
     31 H          -5.3697  -13.2768  -11.0896 H         1 NNF1163     0.0000 
     32 H          -4.4678  -11.7598  -10.9303 H         1 NNF1163     0.0000 
     33 H          -7.5815   -9.7470  -11.5727 H         1 NNF1163     0.0000 
     34 H          -8.4089  -11.0694  -10.7322 H         1 NNF1163     0.0000 
     35 H          -7.9947  -10.3606  -13.0068 H         1 NNF1163     0.0000 
     36 H          -4.6517  -14.0729  -15.6612 H         1 NNF1163     0.0000 
     37 H          -4.7681  -14.6953  -14.1829 H         1 NNF1163     0.0000 
     38 H          -5.8741  -15.0515  -15.2947 H         1 NNF1163     0.0000 
@<TRIPOS>BOND
     1   15    1 1    
     2   36    1 1    
     3   37    1 1    
     4   38    1 1    
     5   19    2 2    
     6   16    3 1    
     7    6    4 ar   
     8   16    4 ar   
     9   22    4 1    
    10    7    5 ar   
    11   16    5 ar   
    12   23    5 1    
    13   17    6 ar   
    14   24    6 1    
    15   17    7 ar   
    16   25    7 1    
    17   15    8 2    
    18   19    8 1    
    19   26    8 1    
    20   11    9 1    
    21   20    9 1    
    22   27    9 1    
    23   28    9 1    
    24   12   10 1    
    25   20   10 1    
    26   29   10 1    
    27   30   10 1    
    28   21   11 1    
    29   31   11 1    
    30   32   11 1    
    31   21   12 1    
    32   33   12 1    
    33   34   12 1    
    34   15   13 1    
    35   18   13 2    
    36   18   14 1    
    37   19   14 am   
    38   35   14 1    
    39   20   17 1    
    40   21   18 1    
@<TRIPOS>SUBSTRUCTURE
     1 NNF1163     1 GROUP   
@<TRIPOS>SET

