#    Name: 2zgy_GDP_1_INTS_M
#    Modification time : Tue Mar 25 10:43:39 2014

@<TRIPOS>MOLECULE
2zgy_GDP_1_INTS_M
   50     0    15     0     0
SMALL
NO_CHARGES


@<TRIPOS>ATOM
      1 NZ         18.6945   -1.4625    7.0650 N.4       3 LYC4        0.0000 
      2 NZ         18.7200   -1.5370    8.4660 N.4      13 LYL4        0.0000 
      3 NZ         18.6690   -1.3880    5.6640 N.4       8 LYP4        0.0000 
      4 Zn         19.4170   -0.8315    8.8410 Zn        4 ZIC7        0.0000 
      5 Zn         18.7200   -1.5370    8.4660 Zn       14 ZIL7        0.0000 
      6 Zn         20.1140   -0.1260    9.2160 Zn        9 ZIP7        0.0000 
      7 N          18.6945   -1.4625    7.0650 N.am      2 SEC2        0.0000 
      8 N          18.7200   -1.5370    8.4660 N.am     12 SEL2        0.0000 
      9 N          18.6690   -1.3880    5.6640 N.am      7 SEP2        0.0000 
     10 NZ         18.1580   -2.4450    6.7375 N.4       3 LYC4        0.0000 
     11 NZ         17.6470   -3.5020    7.8110 N.4      13 LYL4        0.0000 
     12 N          17.4290   -4.9410    8.1760 N.am      2 SEC2        0.0000 
     13 N          17.6470   -3.5020    7.8110 N.am     12 SEL2        0.0000 
     14 N          17.2110   -6.3800    8.5410 N.am      7 SEP2        0.0000 
     15 N          17.0380   -4.4025    6.9355 N.am      2 SEC2        0.0000 
     16 N          16.4290   -5.3030    6.0600 N.am      7 SEP2        0.0000 
     17 N          16.3840   -2.1410   11.0445 N.am      2 SEC2        0.0000 
     18 N          17.6870   -2.6560   10.3150 N.am     12 SEL2        0.0000 
     19 N          15.0810   -1.6260   11.7740 N.am      7 SEP2        0.0000 
     20 NZ         17.4025   -0.8200    6.0495 N.4       3 LYC4        0.0000 
     21 NZ         16.1360   -0.2520    6.4350 N.4      13 LYL4        0.0000 
     22 N          17.4025   -0.8200    6.0495 N.am      2 SEC2        0.0000 
     23 N          16.1360   -0.2520    6.4350 N.am     12 SEL2        0.0000 
     24 N          15.4105    2.1500    8.5045 N.am      2 SEC2        0.0000 
     25 N          15.9340    0.9040    8.6840 N.am     12 SEL2        0.0000 
     26 N          14.8870    3.3960    8.3250 N.am      7 SEP2        0.0000 
     27 CA         14.8020    0.0285   10.6000 C.3       5 GLC5        0.0000 
     28 CA         13.4150   -0.4520    9.0940 C.3      15 GLL5        0.0000 
     29 CA         16.1890    0.5090   12.1060 C.3      10 GLP5        0.0000 
     30 CA         12.3680    0.3315   10.6545 C.3       5 GLC5        0.0000 
     31 CA         11.3210    1.1150   12.2150 C.3      10 GLP5        0.0000 
     32 CA         11.3055   -0.5060   10.6245 C.3       5 GLC5        0.0000 
     33 CA         11.9430   -0.7750    8.8110 C.3      15 GLL5        0.0000 
     34 CA         10.6680   -0.2370   12.4380 C.3      10 GLP5        0.0000 
     35 CA         12.6185   -3.5380    7.9480 C.3       5 GLC5        0.0000 
     36 CA         11.6770   -1.8050    7.6900 C.3      15 GLL5        0.0000 
     37 CA         13.5600   -5.2710    8.2060 C.3      10 GLP5        0.0000 
     38 CA         12.0365    1.6925    7.5565 C.3       5 GLC5        0.0000 
     39 CA         10.5580    0.1960    7.1880 C.3      15 GLL5        0.0000 
     40 CA         13.5150    3.1890    7.9250 C.3      10 GLP5        0.0000 
     41 O           7.1605    5.5540    7.4395 O.2       1 ALC1        0.0000 
     42 O           8.1860    4.6850    6.8580 O.2      11 ALL1        0.0000 
     43 O           6.1350    6.4230    8.0210 O.2       6 ALP1        0.0000 
     44 O           6.5740    5.1150    8.3430 O.2       1 ALC1        0.0000 
     45 O           7.0130    3.8070    8.6650 O.2      11 ALL1        0.0000 
     46 CA         13.3755   -1.6252   10.4797 C.3       5 GLC5        0.0000 
     47 CA         14.0720   -2.6370   12.0070 C.3      10 GLP5        0.0000 
     48 CA         13.0970    1.2877    8.4387 C.3       5 GLC5        0.0000 
     49 CA         11.6460    3.0750    7.0810 C.3       5 GLC5        0.0000 
     50 CA          9.6370    2.4660    6.6930 C.3      15 GLL5        0.0000 
@<TRIPOS>BOND
@<TRIPOS>SUBSTRUCTURE
     1 ALC1       41 GROUP        1 X    ALC  0     ROOT ALC X 1
     2 SEC2        7 GROUP        1 X    SEC  0     **** SEC X 2
     3 LYC4        1 GROUP        1 X    LYC  0     **** LYC X 4
     4 ZIC7        4 GROUP        1 X    ZIC  0     **** ZIC X 5
     5 GLC5       27 GROUP        1 X    GLC  0     **** GLC X 6
     6 ALP1       43 GROUP        1 Y    ALP  0     ROOT ALP Y 8
     7 SEP2        9 GROUP        1 Y    SEP  0     **** SEP Y 9
     8 LYP4        3 GROUP        1 Y    LYP  0     **** LYP Y 11
     9 ZIP7        6 GROUP        1 Y    ZIP  0     **** ZIP Y 12
    10 GLP5       29 GROUP        1 Y    GLP  0     **** GLP Y 13
    11 ALL1       42 GROUP        1 Z    ALL  0     ROOT ALL Z 15
    12 SEL2        8 GROUP        1 Z    SEL  0     **** SEL Z 16
    13 LYL4        2 GROUP        1 Z    LYL  0     **** LYL Z 18
    14 ZIL7        5 GROUP        1 Z    ZIL  0     **** ZIL Z 19
    15 GLL5       28 GROUP        1 Z    GLL  0     **** GLL Z 20
@<TRIPOS>SET

