#    Name: 2zgy_GDP_1_ligand
#    Modification time : Tue Mar 25 10:43:39 2014

@<TRIPOS>MOLECULE
2zgy_GDP_1_ligand
   40    42     1     0     0
SMALL
NO_CHARGES


@<TRIPOS>ATOM
      1 PB         17.6090   -2.4100    8.7990 P.3       1 GDP323      0.0000 
      2 O1B        18.7200   -1.5370    8.4660 O.co2     1 GDP323      0.0000 
      3 O2B        17.6470   -3.5020    7.8110 O.co2     1 GDP323      0.0000 
      4 O3B        17.6870   -2.6560   10.3150 O.co2     1 GDP323      0.0000 
      5 O3A        16.6860   -1.1660    8.6750 O.3       1 GDP323      0.0000 
      6 PA         15.7300   -0.3110    7.8660 P.3       1 GDP323      0.0000 
      7 O1A        16.1360   -0.2520    6.4350 O.co2     1 GDP323      0.0000 
      8 O2A        15.9340    0.9040    8.6840 O.co2     1 GDP323      0.0000 
      9 O5'        14.1750   -0.7440    7.9540 O.3       1 GDP323      0.0000 
     10 C5'        13.4150   -0.4520    9.0940 C.3       1 GDP323      0.0000 
     11 C4'        11.9430   -0.7750    8.8110 C.3       1 GDP323      0.0000 
     12 O4'        11.2880    0.4530    8.4070 O.3       1 GDP323      0.0000 
     13 C3'        11.6770   -1.8050    7.6900 C.3       1 GDP323      0.0000 
     14 O3'        10.7510   -2.8020    8.0810 O.3       1 GDP323      0.0000 
     15 C2'        11.2230   -0.9780    6.4890 C.3       1 GDP323      0.0000 
     16 O2'        10.3420   -1.6140    5.5470 O.3       1 GDP323      0.0000 
     17 C1'        10.5580    0.1960    7.1880 C.3       1 GDP323      0.0000 
     18 N9         10.5140    1.4530    6.4190 N.pl3     1 GDP323      0.0000 
     19 C8         11.2480    1.8950    5.3690 C.2       1 GDP323      0.0000 
     20 N7         10.9490    3.0750    4.9370 N.2       1 GDP323      0.0000 
     21 C5          9.9170    3.4560    5.7810 C.2       1 GDP323      0.0000 
     22 C6          9.1530    4.6830    5.8180 C.2       1 GDP323      0.0000 
     23 O6          9.2660    5.6660    5.0710 O.2       1 GDP323      0.0000 
     24 N1          8.1860    4.6850    6.8580 N.am      1 GDP323      0.0000 
     25 C2          7.9660    3.6330    7.7490 C.2       1 GDP323      0.0000 
     26 N2          7.0130    3.8070    8.6650 N.pl3     1 GDP323      0.0000 
     27 N3          8.6810    2.4700    7.7020 N.2       1 GDP323      0.0000 
     28 C4          9.6370    2.4660    6.6930 C.2       1 GDP323      0.0000 
     29 H          13.4672    0.6064    9.3755 H         1 GDP323      0.0000 
     30 H          13.7164   -1.0460    9.9649 H         1 GDP323      0.0000 
     31 H          11.4807   -1.1374    9.7209 H         1 GDP323      0.0000 
     32 H          12.6545   -2.2236    7.4316 H         1 GDP323      0.0000 
     33 H          12.1220   -0.5759    6.0260 H         1 GDP323      0.0000 
     34 H           9.5405   -0.1024    7.4549 H         1 GDP323      0.0000 
     35 H          11.9828    1.3089    4.9680 H         1 GDP323      0.0000 
     36 H           7.5913    5.5549    6.9575 H         1 GDP323      0.0000 
     37 H           6.8538    3.0393    9.2857 H         1 GDP323      0.0000 
     38 H           6.5431    4.6896    8.6489 H         1 GDP323      0.0000 
     39 H          10.0605   -2.8117    7.3577 H         1 GDP323      0.0000 
     40 H          10.8719   -1.6807    4.7016 H         1 GDP323      0.0000 
@<TRIPOS>BOND
     1    2    1 ar   
     2    3    1 ar   
     3    4    1 ar   
     4    5    1 1    
     5    6    5 1    
     6    7    6 ar   
     7    8    6 ar   
     8    9    6 1    
     9   10    9 1    
    10   11   10 1    
    11   29   10 1    
    12   30   10 1    
    13   12   11 1    
    14   13   11 1    
    15   31   11 1    
    16   17   12 1    
    17   14   13 1    
    18   15   13 1    
    19   32   13 1    
    20   39   14 1    
    21   16   15 1    
    22   17   15 1    
    23   33   15 1    
    24   40   16 1    
    25   18   17 1    
    26   34   17 1    
    27   19   18 1    
    28   28   18 1    
    29   20   19 2    
    30   35   19 1    
    31   21   20 1    
    32   22   21 1    
    33   28   21 2    
    34   23   22 2    
    35   24   22 am   
    36   25   24 1    
    37   36   24 1    
    38   26   25 1    
    39   27   25 2    
    40   37   26 1    
    41   38   26 1    
    42   28   27 1    
@<TRIPOS>SUBSTRUCTURE
     1 GDP323      1 GROUP   
@<TRIPOS>SET

