#    Name: 3r1q_X75_1_INTS_M
#    Modification time : Tue Mar 25 10:28:03 2014

@<TRIPOS>MOLECULE
3r1q_X75_1_INTS_M
   37     0     9     0     0
SMALL
NO_CHARGES


@<TRIPOS>ATOM
      1 O         -63.4905  -46.9560  -13.1125 O.2       1 ALC1        0.0000 
      2 O         -64.5540  -46.3350  -12.2390 O.2       7 ALL1        0.0000 
      3 O         -62.4270  -47.5770  -13.9860 O.2       4 ALP1        0.0000 
      4 O         -67.0165  -46.2245  -16.7545 O.2       1 ALC1        0.0000 
      5 O         -67.0530  -45.5950  -15.4320 O.2       7 ALL1        0.0000 
      6 O         -66.9800  -46.8540  -18.0770 O.2       4 ALP1        0.0000 
      7 CA        -63.3470  -44.0380  -12.2050 C.3       3 GLC5        0.0000 
      8 CA        -63.3440  -45.9440  -11.4720 C.3       9 GLL5        0.0000 
      9 CA        -63.3500  -42.1320  -12.9380 C.3       6 GLP5        0.0000 
     10 CA        -61.4105  -48.4890  -12.1860 C.3       3 GLC5        0.0000 
     11 CA        -62.9410  -48.3840  -10.8590 C.3       9 GLL5        0.0000 
     12 CA        -59.8800  -48.5940  -13.5130 C.3       6 GLP5        0.0000 
     13 N         -64.4800  -47.3630  -15.5030 N.am      2 SEC2        0.0000 
     14 N         -65.5320  -46.9860  -14.5670 N.am      8 SEL2        0.0000 
     15 N         -63.4280  -47.7400  -16.4390 N.am      5 SEP2        0.0000 
     16 CA        -69.6025  -45.1115   -8.6775 C.3       3 GLC5        0.0000 
     17 CA        -67.7060  -44.4540   -8.7790 C.3       9 GLL5        0.0000 
     18 CA        -71.4990  -45.7690   -8.5760 C.3       6 GLP5        0.0000 
     19 CA        -68.1703  -46.9168  -13.5575 C.3       3 GLC5        0.0000 
     20 CA        -67.9800  -45.1700  -12.7920 C.3       9 GLL5        0.0000 
     21 CA        -69.0090  -48.3860  -14.1820 C.3       6 GLP5        0.0000 
     22 CA        -65.9310  -46.8293   -9.9425 C.3       3 GLC5        0.0000 
     23 CA        -65.7300  -45.8500  -12.0080 C.3       9 GLL5        0.0000 
     24 CA        -65.9490  -48.0140   -8.5360 C.3       6 GLP5        0.0000 
     25 CA        -65.5899  -44.4379  -13.6277 C.3       3 GLC5        0.0000 
     26 CA        -64.6490  -43.2270  -14.7850 C.3       6 GLP5        0.0000 
     27 CA        -66.7440  -46.3462   -9.0648 C.3       3 GLC5        0.0000 
     28 CA        -67.3720  -44.9030  -10.4080 C.3       9 GLL5        0.0000 
     29 CA        -69.0938  -46.1782  -10.6837 C.3       3 GLC5        0.0000 
     30 CA        -70.4220  -47.4250  -10.0980 C.3       6 GLP5        0.0000 
     31 CA        -61.1075  -45.9773  -11.2652 C.3       3 GLC5        0.0000 
     32 CA        -63.0040  -47.0290  -10.4770 C.3       9 GLL5        0.0000 
     33 CA        -59.0410  -45.4680  -11.5560 C.3       6 GLP5        0.0000 
     34 CA        -64.1775  -48.2060   -8.4853 C.3       3 GLC5        0.0000 
     35 CA        -62.4260  -47.7370   -8.1960 C.3       9 GLL5        0.0000 
     36 CA        -64.4244  -47.5441   -9.2777 C.3       3 GLC5        0.0000 
     37 CA        -62.7420  -46.7130   -9.1220 C.3       9 GLL5        0.0000 
@<TRIPOS>BOND
@<TRIPOS>SUBSTRUCTURE
     1 ALC1        1 GROUP        1 X    ALC  0     ROOT ALC X 1
     2 SEC2       13 GROUP        1 X    SEC  0     **** SEC X 2
     3 GLC5        7 GROUP        1 X    GLC  0     **** GLC X 6
     4 ALP1        3 GROUP        1 Y    ALP  0     ROOT ALP Y 8
     5 SEP2       15 GROUP        1 Y    SEP  0     **** SEP Y 9
     6 GLP5        9 GROUP        1 Y    GLP  0     **** GLP Y 13
     7 ALL1        2 GROUP        1 Z    ALL  0     ROOT ALL Z 15
     8 SEL2       14 GROUP        1 Z    SEL  0     **** SEL Z 16
     9 GLL5        8 GROUP        1 Z    GLL  0     **** GLL Z 20
@<TRIPOS>SET

