#    Name: 3r1q_X75_1_ligand
#    Modification time : Tue Mar 25 10:28:03 2014

@<TRIPOS>MOLECULE
3r1q_X75_1_ligand
   32    33     1     0     0
SMALL
NO_CHARGES


@<TRIPOS>ATOM
      1 N01       -64.5540  -46.3350  -12.2390 N.pl3     1 X75616      0.0000 
      2 N02       -67.0530  -45.5950  -15.4320 N.am      1 X75616      0.0000 
      3 N03       -62.6370  -49.4020   -9.9790 N.ar      1 X75616      0.0000 
      4 N04       -69.5060  -44.2510  -11.2640 N.pl3     1 X75616      0.0000 
      5 C05       -67.9800  -45.1700  -12.7920 C.ar      1 X75616      0.0000 
      6 C06       -66.6830  -45.7250  -13.0740 C.ar      1 X75616      0.0000 
      7 C07       -65.7300  -45.8500  -12.0080 C.ar      1 X75616      0.0000 
      8 C08       -66.0960  -45.4390  -10.6900 C.ar      1 X75616      0.0000 
      9 C09       -67.3720  -44.9030  -10.4080 C.ar      1 X75616      0.0000 
     10 C10       -68.3380  -44.7500  -11.4700 C.ar      1 X75616      0.0000 
     11 C11       -66.3820  -46.1300  -14.3660 C.2       1 X75616      0.0000 
     12 C12       -63.3440  -45.9440  -11.4720 C.3       1 X75616      0.0000 
     13 C13       -63.0040  -47.0290  -10.4770 C.ar      1 X75616      0.0000 
     14 C14       -62.9410  -48.3840  -10.8590 C.ar      1 X75616      0.0000 
     15 C15       -62.3860  -49.0590   -8.6730 C.ar      1 X75616      0.0000 
     16 C16       -62.4260  -47.7370   -8.1960 C.ar      1 X75616      0.0000 
     17 C17       -62.7420  -46.7130   -9.1220 C.ar      1 X75616      0.0000 
     18 O18       -65.5320  -46.9860  -14.5670 O.2       1 X75616      0.0000 
     19 O19       -70.5690  -44.7600  -11.8370 O.2       1 X75616      0.0000 
     20 O20       -69.6540  -43.1800  -10.5120 O.2       1 X75616      0.0000 
     21 CL21      -67.7060  -44.4540   -8.7790 Cl        1 X75616      0.0000 
     22 CL22      -62.0050  -50.3150   -7.5610 Cl        1 X75616      0.0000 
     23 H         -64.3619  -47.0488  -12.9931 H         1 X75616      0.0000 
     24 H         -66.8004  -45.9478  -16.3330 H         1 X75616      0.0000 
     25 H         -67.7371  -44.8982  -15.2165 H         1 X75616      0.0000 
     26 H         -68.6577  -45.0745  -13.5518 H         1 X75616      0.0000 
     27 H         -65.4071  -45.5388   -9.9304 H         1 X75616      0.0000 
     28 H         -63.5239  -45.0120  -10.9361 H         1 X75616      0.0000 
     29 H         -62.5005  -45.8024  -12.1477 H         1 X75616      0.0000 
     30 H         -63.1366  -48.6170  -11.8631 H         1 X75616      0.0000 
     31 H         -62.2377  -47.5212   -7.2327 H         1 X75616      0.0000 
     32 H         -62.7811  -45.7401   -8.8100 H         1 X75616      0.0000 
@<TRIPOS>BOND
     1    7    1 1    
     2   12    1 1    
     3   23    1 1    
     4   11    2 am   
     5   24    2 1    
     6   25    2 1    
     7   14    3 ar   
     8   15    3 ar   
     9   10    4 1    
    10   19    4 2    
    11   20    4 2    
    12    6    5 ar   
    13   10    5 ar   
    14   26    5 1    
    15    7    6 ar   
    16   11    6 1    
    17    8    7 ar   
    18    9    8 ar   
    19   27    8 1    
    20   10    9 ar   
    21   21    9 1    
    22   18   11 2    
    23   13   12 1    
    24   28   12 1    
    25   29   12 1    
    26   14   13 ar   
    27   17   13 ar   
    28   30   14 1    
    29   16   15 ar   
    30   22   15 1    
    31   17   16 ar   
    32   31   16 1    
    33   32   17 1    
@<TRIPOS>SUBSTRUCTURE
     1 X75616      1 GROUP   
@<TRIPOS>SET

