#    Name: 4e8y_IHA_3_INTS_M
#    Modification time : Tue Mar 25 10:45:13 2014

@<TRIPOS>MOLECULE
4e8y_IHA_3_INTS_M
   65     0     9     0     0
SMALL
NO_CHARGES


@<TRIPOS>ATOM
      1 CA          0.6430   45.4795   69.7965 C.3       3 GLC5        0.0000 
      2 CA          1.6170   45.2320   68.3600 C.3       9 GLL5        0.0000 
      3 CA         -0.3310   45.7270   71.2330 C.3       6 GLP5        0.0000 
      4 N           6.0825   46.1825   70.7840 N.am      2 SEC2        0.0000 
      5 N           6.2410   44.7250   70.6390 N.am      8 SEL2        0.0000 
      6 N           5.9240   47.6400   70.9290 N.am      5 SEP2        0.0000 
      7 CA          7.6620   41.7855   71.7800 C.3       3 GLC5        0.0000 
      8 CA          7.3220   42.5190   70.0770 C.3       9 GLL5        0.0000 
      9 CA          8.0020   41.0520   73.4830 C.3       6 GLP5        0.0000 
     10 CA          7.0315   40.6240   70.4720 C.3       3 GLC5        0.0000 
     11 CA          6.7410   38.7290   70.8670 C.3       6 GLP5        0.0000 
     12 CA          8.5835   41.3085   69.7840 C.3       3 GLC5        0.0000 
     13 CA          9.8450   40.0980   69.4910 C.3       6 GLP5        0.0000 
     14 CA          7.6680   46.0950   70.6970 C.3       3 GLC5        0.0000 
     15 CA          8.6210   44.3100   71.6720 C.3       9 GLL5        0.0000 
     16 CA          6.7150   47.8800   69.7220 C.3       6 GLP5        0.0000 
     17 CA          9.2960   45.5980   72.8040 C.3       3 GLC5        0.0000 
     18 CA          9.9710   46.8860   73.9360 C.3       6 GLP5        0.0000 
     19 CA          8.3115   42.6810   72.5775 C.3       3 GLC5        0.0000 
     20 O          10.4610   43.2010   72.2835 O.2       1 ALC1        0.0000 
     21 O           9.8240   43.7760   71.0580 O.2       7 ALL1        0.0000 
     22 O          11.0980   42.6260   73.5090 O.2       4 ALP1        0.0000 
     23 CA         11.5910   45.7435   70.4455 C.3       3 GLC5        0.0000 
     24 CA         10.3410   44.2850   69.9100 C.3       9 GLL5        0.0000 
     25 CA         12.8410   47.2020   70.9810 C.3       6 GLP5        0.0000 
     26 CA         10.0930   42.1915   69.7005 C.3       3 GLC5        0.0000 
     27 CA         13.4685   45.1925   66.9755 C.3       3 GLC5        0.0000 
     28 CA         11.4790   45.2330   67.6060 C.3       9 GLL5        0.0000 
     29 CA         15.4580   45.1520   66.3450 C.3       6 GLP5        0.0000 
     30 CA         11.8905   43.9640   66.0780 C.3       3 GLC5        0.0000 
     31 CA         12.3020   42.6950   64.5500 C.3       6 GLP5        0.0000 
     32 CA         10.6680   49.9550   68.4055 C.3       3 GLC5        0.0000 
     33 CA         11.8180   49.4500   66.9700 C.3       9 GLL5        0.0000 
     34 CA          9.5180   50.4600   69.8410 C.3       6 GLP5        0.0000 
     35 CA         13.9125   49.5740   66.6405 C.3       3 GLC5        0.0000 
     36 CA         16.0070   49.6980   66.3110 C.3       6 GLP5        0.0000 
     37 CA          6.5320   46.3050   68.1785 C.3       3 GLC5        0.0000 
     38 CA          6.3490   44.7300   66.6350 C.3       9 GLL5        0.0000 
     39 CA          5.7710   44.2965   65.0160 C.3       3 GLC5        0.0000 
     40 CA          5.1930   43.8630   63.3970 C.3       6 GLP5        0.0000 
     41 CA          5.8685   42.7150   66.0300 C.3       3 GLC5        0.0000 
     42 CA          5.3880   40.7000   65.4250 C.3       6 GLP5        0.0000 
     43 CA          3.6433   43.8240   70.8963 C.3       3 GLC5        0.0000 
     44 CA          4.0840   44.4410   69.3630 C.3       9 GLL5        0.0000 
     45 CA          3.5580   43.6470   72.8380 C.3       6 GLP5        0.0000 
     46 CA          5.7138   46.0700   69.6612 C.3       3 GLC5        0.0000 
     47 CA          4.9638   41.4190   66.9287 C.3       3 GLC5        0.0000 
     48 CA          5.1670   41.9540   68.6670 C.3       9 GLL5        0.0000 
     49 CA          3.6267   40.4265   68.3503 C.3       3 GLC5        0.0000 
     50 CA          2.7140   38.7150   68.2680 C.3       6 GLP5        0.0000 
     51 CA          6.1262   40.5627   69.9695 C.3       3 GLC5        0.0000 
     52 CA          4.5783   43.5530   71.2477 C.3       3 GLC5        0.0000 
     53 CA          5.8560   42.8390   69.4770 C.3       9 GLL5        0.0000 
     54 CA         11.8410   46.3200   69.3877 C.3       3 GLC5        0.0000 
     55 CA         10.2030   45.6430   67.9830 C.3       9 GLL5        0.0000 
     56 CA          9.5550   49.4023   68.1732 C.3       3 GLC5        0.0000 
     57 CA          9.9550   47.8930   66.8970 C.3       9 GLL5        0.0000 
     58 CA          7.8841   47.2546   68.3197 C.3       3 GLC5        0.0000 
     59 CA          8.2170   46.2470   66.6060 C.3       9 GLL5        0.0000 
     60 CA          9.3335   48.2082   63.9112 C.3       3 GLC5        0.0000 
     61 CA          7.9970   48.4190   65.5790 C.3       9 GLL5        0.0000 
     62 CA         10.0540   47.8090   61.9760 C.3       6 GLP5        0.0000 
     63 CA          7.2109   48.5242   67.3234 C.3       3 GLC5        0.0000 
     64 CA          9.2290   48.7960   66.1140 C.3       9 GLL5        0.0000 
     65 CA          5.9370   48.7600   68.7390 C.3       6 GLP5        0.0000 
@<TRIPOS>BOND
@<TRIPOS>SUBSTRUCTURE
     1 ALC1       20 GROUP        1 X    ALC  0     ROOT ALC X 1
     2 SEC2        4 GROUP        1 X    SEC  0     **** SEC X 2
     3 GLC5        1 GROUP        1 X    GLC  0     **** GLC X 6
     4 ALP1       22 GROUP        1 Y    ALP  0     ROOT ALP Y 8
     5 SEP2        6 GROUP        1 Y    SEP  0     **** SEP Y 9
     6 GLP5        3 GROUP        1 Y    GLP  0     **** GLP Y 13
     7 ALL1       21 GROUP        1 Z    ALL  0     ROOT ALL Z 15
     8 SEL2        5 GROUP        1 Z    SEL  0     **** SEL Z 16
     9 GLL5        2 GROUP        1 Z    GLL  0     **** GLL Z 20
@<TRIPOS>SET

