#    Name: 4e8y_IHA_3_ligand
#    Modification time : Tue Mar 25 10:45:13 2014

@<TRIPOS>MOLECULE
4e8y_IHA_3_ligand
   50    53     1     0     0
SMALL
NO_CHARGES


@<TRIPOS>ATOM
      1 O27         0.2620   46.8540   67.2540 O.co2     1 IHA501      0.0000 
      2 C25         0.9550   45.8180   67.1350 C.2       1 IHA501      0.0000 
      3 O26         1.1440   45.2400   66.0440 O.co2     1 IHA501      0.0000 
      4 C24         1.6170   45.2320   68.3600 C.3       1 IHA501      0.0000 
      5 O23         2.1360   43.9270   68.0750 O.3       1 IHA501      0.0000 
      6 C22         3.3730   43.5610   68.5460 C.ar      1 IHA501      0.0000 
      7 C21         4.0840   44.4410   69.3630 C.ar      1 IHA501      0.0000 
      8 C28         3.9120   42.3220   68.1980 C.ar      1 IHA501      0.0000 
      9 C29         5.1670   41.9540   68.6670 C.ar      1 IHA501      0.0000 
     10 C30         5.8560   42.8390   69.4770 C.ar      1 IHA501      0.0000 
     11 C20         5.3410   44.0790   69.8380 C.ar      1 IHA501      0.0000 
     12 N19         6.2410   44.7250   70.6390 N.2       1 IHA501      0.0000 
     13 S31         7.3220   42.5190   70.0770 S.3       1 IHA501      0.0000 
     14 C18         7.3760   44.0050   70.8640 C.2       1 IHA501      0.0000 
     15 C17         8.6210   44.3100   71.6720 C.3       1 IHA501      0.0000 
     16 N16         9.8240   43.7760   71.0580 N.pl3     1 IHA501      0.0000 
     17 C15        10.3410   44.2850   69.9100 C.ar      1 IHA501      0.0000 
     18 N14        11.5780   43.8870   69.5400 N.ar      1 IHA501      0.0000 
     19 N13        12.1640   44.3680   68.3640 N.ar      1 IHA501      0.0000 
     20 C12        11.4790   45.2330   67.6060 C.ar      1 IHA501      0.0000 
     21 N32         9.6560   45.1610   69.1310 N.ar      1 IHA501      0.0000 
     22 C11        10.2030   45.6430   67.9830 C.ar      1 IHA501      0.0000 
     23 C10         9.4450   46.6170   67.1380 C.ar      1 IHA501      0.0000 
     24 C3          9.9550   47.8930   66.8970 C.ar      1 IHA501      0.0000 
     25 O2         11.1730   48.2620   67.4260 O.3       1 IHA501      0.0000 
     26 C1         11.8180   49.4500   66.9700 C.3       1 IHA501      0.0000 
     27 C7          8.2170   46.2470   66.6060 C.ar      1 IHA501      0.0000 
     28 O8          7.7320   44.9910   66.8610 O.3       1 IHA501      0.0000 
     29 C9          6.3490   44.7300   66.6350 C.3       1 IHA501      0.0000 
     30 C6          7.4840   47.1430   65.8240 C.ar      1 IHA501      0.0000 
     31 C5          7.9970   48.4190   65.5790 C.ar      1 IHA501      0.0000 
     32 C4          9.2290   48.7960   66.1140 C.ar      1 IHA501      0.0000 
     33 H           0.8722   45.1978   69.1693 H         1 IHA501      0.0000 
     34 H           2.4154   45.9184   68.6801 H         1 IHA501      0.0000 
     35 H           3.6804   45.3503   69.6114 H         1 IHA501      0.0000 
     36 H           3.3787   41.6835   67.5947 H         1 IHA501      0.0000 
     37 H           5.5691   41.0507   68.4181 H         1 IHA501      0.0000 
     38 H           8.4835   43.8944   72.6872 H         1 IHA501      0.0000 
     39 H           8.6962   45.4068   71.7886 H         1 IHA501      0.0000 
     40 H          10.2765   42.9752   71.5453 H         1 IHA501      0.0000 
     41 H          11.8812   45.6146   66.7265 H         1 IHA501      0.0000 
     42 H           6.5801   46.8673   65.4345 H         1 IHA501      0.0000 
     43 H           7.4638   49.0824   65.0019 H         1 IHA501      0.0000 
     44 H           9.6031   49.7339   65.9342 H         1 IHA501      0.0000 
     45 H          12.6916   49.5995   67.4331 H         1 IHA501      0.0000 
     46 H          12.0084   49.4160   65.9889 H         1 IHA501      0.0000 
     47 H          11.2577   50.2623   67.1319 H         1 IHA501      0.0000 
     48 H           6.0925   44.8866   65.6812 H         1 IHA501      0.0000 
     49 H           6.1095   43.7835   66.8513 H         1 IHA501      0.0000 
     50 H           5.7640   45.3159   67.1958 H         1 IHA501      0.0000 
@<TRIPOS>BOND
     1    2    1 ar   
     2    3    2 ar   
     3    4    2 1    
     4    5    4 1    
     5   33    4 1    
     6   34    4 1    
     7    6    5 1    
     8    7    6 ar   
     9    8    6 ar   
    10   11    7 ar   
    11   35    7 1    
    12    9    8 ar   
    13   36    8 1    
    14   10    9 ar   
    15   37    9 1    
    16   11   10 ar   
    17   13   10 1    
    18   12   11 1    
    19   14   12 2    
    20   14   13 1    
    21   15   14 1    
    22   16   15 1    
    23   38   15 1    
    24   39   15 1    
    25   17   16 1    
    26   40   16 1    
    27   18   17 ar   
    28   21   17 ar   
    29   19   18 ar   
    30   20   19 ar   
    31   22   20 ar   
    32   41   20 1    
    33   22   21 ar   
    34   23   22 1    
    35   24   23 ar   
    36   27   23 ar   
    37   25   24 1    
    38   32   24 ar   
    39   26   25 1    
    40   45   26 1    
    41   46   26 1    
    42   47   26 1    
    43   28   27 1    
    44   30   27 ar   
    45   29   28 1    
    46   48   29 1    
    47   49   29 1    
    48   50   29 1    
    49   31   30 ar   
    50   42   30 1    
    51   32   31 ar   
    52   43   31 1    
    53   44   32 1    
@<TRIPOS>SUBSTRUCTURE
     1 IHA501      1 GROUP   
@<TRIPOS>SET

