#    Name: 3zdn_FAD_4_INTS_M
#    Modification time : Tue Mar 25 02:48:59 2014

@<TRIPOS>MOLECULE
3zdn_FAD_4_INTS_M
  138     0    12     0     0
SMALL
NO_CHARGES


@<TRIPOS>ATOM
      1 N         -47.4405  -89.3320    7.2420 N.am      2 SEC2        0.0000 
      2 N         -48.0270  -89.5990    8.4940 N.am     10 SEL2        0.0000 
      3 N         -46.8540  -89.0650    5.9900 N.am      6 SEP2        0.0000 
      4 NZ        -50.0875  -87.2460    7.5800 N.4       3 LYC4        0.0000 
      5 NZ        -50.1810  -88.6040    7.6660 N.4      11 LYL4        0.0000 
      6 NZ        -50.6750  -85.1630    8.3680 N.4       7 LYP4        0.0000 
      7 N         -50.0875  -87.2460    7.5800 N.am      2 SEC2        0.0000 
      8 N         -50.1810  -88.6040    7.6660 N.am     10 SEL2        0.0000 
      9 N         -49.9940  -85.8880    7.4940 N.am      6 SEP2        0.0000 
     10 CA        -53.0710  -90.2800    8.2245 C.3       4 GLC5        0.0000 
     11 CA        -51.4940  -91.2810    8.7460 C.3      12 GLL5        0.0000 
     12 CA        -54.6480  -89.2790    7.7030 C.3       8 GLP5        0.0000 
     13 CA        -51.9215  -94.2070    8.6960 C.3       4 GLC5        0.0000 
     14 CA        -51.5100  -92.6340    8.0060 C.3      12 GLL5        0.0000 
     15 CA        -52.3330  -95.7800    9.3860 C.3       8 GLP5        0.0000 
     16 CA        -48.9970  -91.9565    6.2510 C.3       4 GLC5        0.0000 
     17 CA        -50.7730  -92.4820    6.6560 C.3      12 GLL5        0.0000 
     18 CA        -47.2210  -91.4310    5.8460 C.3       8 GLP5        0.0000 
     19 N         -48.7555  -94.0875    5.7970 N.am      2 SEC2        0.0000 
     20 N         -49.8690  -93.5300    6.5270 N.am     10 SEL2        0.0000 
     21 N         -47.6420  -94.6450    5.0670 N.am      6 SEP2        0.0000 
     22 O         -50.3980  -94.7715    6.4950 O.2       1 ALC1        0.0000 
     23 O         -49.8690  -93.5300    6.5270 O.2       9 ALL1        0.0000 
     24 O         -50.9270  -96.0130    6.4630 O.2       5 ALP1        0.0000 
     25 CA        -52.7930  -91.9950    3.7085 C.3       4 GLC5        0.0000 
     26 CA        -51.8990  -92.5510    5.6160 C.3      12 GLL5        0.0000 
     27 CA        -53.6870  -91.4390    1.8010 C.3       8 GLP5        0.0000 
     28 N         -50.6405  -92.7575    3.4005 N.am      2 SEC2        0.0000 
     29 N         -51.4900  -93.2520    4.3990 N.am     10 SEL2        0.0000 
     30 N         -49.7910  -92.2630    2.4020 N.am      6 SEP2        0.0000 
     31 O         -51.2085  -94.6325    5.4310 O.2       1 ALC1        0.0000 
     32 O         -51.4900  -93.2520    4.3990 O.2       9 ALL1        0.0000 
     33 O         -51.0785  -94.4530    4.3510 O.2       1 ALC1        0.0000 
     34 O         -50.6670  -95.6540    4.3030 O.2       5 ALP1        0.0000 
     35 CA        -52.6245  -94.5685    7.8730 C.3       4 GLC5        0.0000 
     36 CA        -52.9160  -93.3570    6.3600 C.3      12 GLL5        0.0000 
     37 CA        -57.5885  -96.4895    3.6510 C.3       4 GLC5        0.0000 
     38 CA        -57.3350  -94.7320    4.9960 C.3      12 GLL5        0.0000 
     39 CA        -57.8420  -98.2470    2.3060 C.3       8 GLP5        0.0000 
     40 CA        -58.7145  -96.3090    5.7725 C.3       4 GLC5        0.0000 
     41 CA        -60.0940  -97.8860    6.5490 C.3       8 GLP5        0.0000 
     42 CA        -57.9960  -94.1650    6.5910 C.3       4 GLC5        0.0000 
     43 CA        -58.6570  -93.5980    8.1860 C.3       8 GLP5        0.0000 
     44 O         -59.8850  -95.1735    4.4300 O.2       1 ALC1        0.0000 
     45 O         -58.4400  -94.2430    4.4400 O.2       9 ALL1        0.0000 
     46 O         -61.3300  -96.1040    4.4200 O.2       5 ALP1        0.0000 
     47 N         -58.2755  -97.0370    4.8095 N.am      2 SEC2        0.0000 
     48 N         -57.2780  -96.0120    5.3750 N.am     10 SEL2        0.0000 
     49 N         -59.2730  -98.0620    4.2440 N.am      6 SEP2        0.0000 
     50 CA        -56.4940  -96.5340    7.7320 C.3       4 GLC5        0.0000 
     51 CA        -56.1000  -96.4820    5.9740 C.3      12 GLL5        0.0000 
     52 CA        -56.8880  -96.5860    9.4900 C.3       8 GLP5        0.0000 
     53 CA        -54.2735  -97.7100    5.9110 C.3       4 GLC5        0.0000 
     54 CA        -52.4470  -98.9380    5.8480 C.3       8 GLP5        0.0000 
     55 CA        -55.3905  -96.3090    4.3070 C.3       4 GLC5        0.0000 
     56 CA        -54.6810  -96.1360    2.6400 C.3       8 GLP5        0.0000 
     57 CA        -56.9710  -97.3645    4.1400 C.3       4 GLC5        0.0000 
     58 CA        -57.6075  -97.6915    6.5495 C.3       4 GLC5        0.0000 
     59 CA        -59.1150  -98.9010    7.1250 C.3       8 GLP5        0.0000 
     60 CA        -57.3785  -95.0400    7.0800 C.3       4 GLC5        0.0000 
     61 N         -54.2790  -96.6610    5.0905 N.am      2 SEC2        0.0000 
     62 N         -55.0260  -95.5780    6.1390 N.am     10 SEL2        0.0000 
     63 N         -53.5320  -97.7440    4.0420 N.am      6 SEP2        0.0000 
     64 N         -42.9650  -83.4020   11.7445 N.am      2 SEC2        0.0000 
     65 N         -42.5890  -82.4870   10.4100 N.am     10 SEL2        0.0000 
     66 N         -43.3410  -84.3170   13.0790 N.am      6 SEP2        0.0000 
     67 N         -42.2240  -83.5420   12.6285 N.am      2 SEC2        0.0000 
     68 N         -41.1070  -82.7670   12.1780 N.am     10 SEL2        0.0000 
     69 O         -39.0615  -81.9465   11.0700 O.2       1 ALC1        0.0000 
     70 O         -40.2530  -81.7640   10.3250 O.2       9 ALL1        0.0000 
     71 O         -37.8700  -82.1290   11.8150 O.2       5 ALP1        0.0000 
     72 O         -39.5530  -80.8635   11.6100 O.2       1 ALC1        0.0000 
     73 O         -38.8530  -79.9630   12.8950 O.2       5 ALP1        0.0000 
     74 N         -39.2835  -82.2305    7.8295 N.am      2 SEC2        0.0000 
     75 N         -39.5270  -80.7400    8.4120 N.am     10 SEL2        0.0000 
     76 N         -39.0400  -83.7210    7.2470 N.am      6 SEP2        0.0000 
     77 N         -38.3080  -81.5820    8.7240 N.am      2 SEC2        0.0000 
     78 N         -37.0890  -82.4240    9.0360 N.am      6 SEP2        0.0000 
     79 CA        -44.2950  -79.3880    2.4255 C.3       4 GLC5        0.0000 
     80 CA        -43.8660  -81.4570    2.8060 C.3      12 GLL5        0.0000 
     81 CA        -44.7240  -77.3190    2.0450 C.3       8 GLP5        0.0000 
     82 CA        -42.2075  -81.2980    1.9140 C.3       4 GLC5        0.0000 
     83 CA        -40.5490  -81.1390    1.0220 C.3       8 GLP5        0.0000 
     84 CA        -45.0120  -82.3845    1.5150 C.3       4 GLC5        0.0000 
     85 CA        -46.1580  -83.3120    0.2240 C.3       8 GLP5        0.0000 
     86 CA        -46.1130  -83.0955    2.1415 C.3       4 GLC5        0.0000 
     87 CA        -46.0680  -82.8790    4.0590 C.3      12 GLL5        0.0000 
     88 CA        -46.7635  -81.6455    7.0315 C.3       4 GLC5        0.0000 
     89 CA        -45.0680  -82.4930    6.2250 C.3      12 GLL5        0.0000 
     90 CA        -48.4590  -80.7980    7.8380 C.3       8 GLP5        0.0000 
     91 CA        -46.7715  -81.7725    8.5140 C.3       4 GLC5        0.0000 
     92 CA        -45.0840  -82.7470    9.1900 C.3      12 GLL5        0.0000 
     93 CA        -43.1990  -84.2625    8.2145 C.3       4 GLC5        0.0000 
     94 CA        -45.0120  -84.2670    9.4480 C.3      12 GLL5        0.0000 
     95 CA        -41.3860  -84.2580    6.9810 C.3       8 GLP5        0.0000 
     96 CA        -43.3825  -85.1740   10.3665 C.3       4 GLC5        0.0000 
     97 CA        -41.7530  -86.0810   11.2850 C.3       8 GLP5        0.0000 
     98 O         -46.6025  -82.6975   11.1675 O.2       1 ALC1        0.0000 
     99 O         -46.9080  -83.8820   10.9300 O.2       9 ALL1        0.0000 
    100 O         -46.2970  -81.5130   11.4050 O.2       5 ALP1        0.0000 
    101 CA        -44.7705  -85.9055   11.8550 C.3       4 GLC5        0.0000 
    102 CA        -46.3820  -86.0930   10.3950 C.3      12 GLL5        0.0000 
    103 CA        -43.1590  -85.7180   13.3150 C.3       8 GLP5        0.0000 
    104 N         -50.2555  -87.2330   13.4770 N.am      2 SEC2        0.0000 
    105 N         -49.8330  -88.1240   12.5180 N.am     10 SEL2        0.0000 
    106 N         -50.6780  -86.3420   14.4360 N.am      6 SEP2        0.0000 
    107 N         -47.9030  -90.9195   12.7525 N.am      2 SEC2        0.0000 
    108 N         -48.5030  -90.2000   11.6580 N.am     10 SEL2        0.0000 
    109 N         -47.3030  -91.6390   13.8470 N.am      6 SEP2        0.0000 
    110 N         -50.5060  -87.2065    9.7930 N.am      2 SEC2        0.0000 
    111 N         -49.8860  -88.7040   10.0860 N.am     10 SEL2        0.0000 
    112 N         -51.1260  -85.7090    9.5000 N.am      6 SEP2        0.0000 
    113 N         -51.3980  -88.5005   10.7630 N.am      2 SEC2        0.0000 
    114 N         -52.9100  -88.2970   11.4400 N.am      6 SEP2        0.0000 
    115 CA        -56.5632  -93.4123    6.8435 C.3       4 GLC5        0.0000 
    116 CA        -56.2990  -93.8720    5.1830 C.3      12 GLL5        0.0000 
    117 CA        -57.4010  -92.7410    8.2230 C.3       8 GLP5        0.0000 
    118 CA        -55.3327  -95.2172    4.0286 C.3       4 GLC5        0.0000 
    119 CA        -42.1865  -82.7425    6.3455 C.3       4 GLC5        0.0000 
    120 CA        -43.0030  -81.3000    6.3950 C.3      12 GLL5        0.0000 
    121 CA        -46.0192  -80.9932    3.5910 C.3       4 GLC5        0.0000 
    122 CA        -43.9770  -81.6640    4.2060 C.3      12 GLL5        0.0000 
    123 CA        -48.1170  -80.4260    3.6760 C.3       8 GLP5        0.0000 
    124 CA        -43.0085  -83.1745    3.5299 C.3       4 GLC5        0.0000 
    125 CA        -42.3470  -84.9160    3.3490 C.3       8 GLP5        0.0000 
    126 CA        -43.9492  -83.7653    3.8952 C.3       4 GLC5        0.0000 
    127 CA        -45.0350  -82.3500    4.8240 C.3      12 GLL5        0.0000 
    128 CA        -42.9703  -83.2440    6.8092 C.3       4 GLC5        0.0000 
    129 CA        -46.7134  -81.4899    4.5046 C.3       4 GLC5        0.0000 
    130 CA        -44.6855  -82.8190   11.3180 C.3       4 GLC5        0.0000 
    131 CA        -44.3230  -82.1310   13.3170 C.3       8 GLP5        0.0000 
    132 CA        -47.9260  -85.6055   12.0847 C.3       4 GLC5        0.0000 
    133 CA        -48.7570  -84.8720   13.7350 C.3       8 GLP5        0.0000 
    134 CA        -46.9350  -87.2810   12.3608 C.3       4 GLC5        0.0000 
    135 CA        -47.8080  -86.5850   10.4740 C.3      12 GLL5        0.0000 
    136 CA        -46.7750  -88.2230   14.2870 C.3       8 GLP5        0.0000 
    137 CA        -47.1889  -86.3243    8.2549 C.3       4 GLC5        0.0000 
    138 CA        -47.2740  -86.6560    6.2170 C.3       8 GLP5        0.0000 
@<TRIPOS>BOND
@<TRIPOS>SUBSTRUCTURE
     1 ALC1       22 GROUP        1 X    ALC  0     ROOT ALC X 1
     2 SEC2        1 GROUP        1 X    SEC  0     **** SEC X 2
     3 LYC4        4 GROUP        1 X    LYC  0     **** LYC X 4
     4 GLC5       10 GROUP        1 X    GLC  0     **** GLC X 6
     5 ALP1       24 GROUP        1 Y    ALP  0     ROOT ALP Y 8
     6 SEP2        3 GROUP        1 Y    SEP  0     **** SEP Y 9
     7 LYP4        6 GROUP        1 Y    LYP  0     **** LYP Y 11
     8 GLP5       12 GROUP        1 Y    GLP  0     **** GLP Y 13
     9 ALL1       23 GROUP        1 Z    ALL  0     ROOT ALL Z 15
    10 SEL2        2 GROUP        1 Z    SEL  0     **** SEL Z 16
    11 LYL4        5 GROUP        1 Z    LYL  0     **** LYL Z 18
    12 GLL5       11 GROUP        1 Z    GLL  0     **** GLL Z 20
@<TRIPOS>SET

