#    Name: 3zdn_FAD_4_ligand
#    Modification time : Tue Mar 25 02:48:59 2014

@<TRIPOS>MOLECULE
3zdn_FAD_4_ligand
   84    89     1     0     0
SMALL
NO_CHARGES


@<TRIPOS>ATOM
      1 PA        -49.5900  -89.4250    8.7300 P.3       1 FAD1487     0.0000 
      2 O1A       -48.0270  -89.5990    8.4940 O.co2     1 FAD1487     0.0000 
      3 O2A       -50.1810  -88.6040    7.6660 O.co2     1 FAD1487     0.0000 
      4 O5B       -50.1280  -90.8830    8.8320 O.3       1 FAD1487     0.0000 
      5 C5B       -51.4940  -91.2810    8.7460 C.3       1 FAD1487     0.0000 
      6 C4B       -51.5100  -92.6340    8.0060 C.3       1 FAD1487     0.0000 
      7 O4B       -52.8840  -92.8510    7.7080 O.3       1 FAD1487     0.0000 
      8 C3B       -50.7730  -92.4820    6.6560 C.3       1 FAD1487     0.0000 
      9 O3B       -49.8690  -93.5300    6.5270 O.3       1 FAD1487     0.0000 
     10 C2B       -51.8990  -92.5510    5.6160 C.3       1 FAD1487     0.0000 
     11 O2B       -51.4900  -93.2520    4.3990 O.3       1 FAD1487     0.0000 
     12 C1B       -52.9160  -93.3570    6.3600 C.3       1 FAD1487     0.0000 
     13 N9A       -54.3010  -93.2720    5.7840 N.pl3     1 FAD1487     0.0000 
     14 C8A       -54.9250  -92.2100    5.2710 C.2       1 FAD1487     0.0000 
     15 N7A       -56.1480  -92.5680    4.8950 N.2       1 FAD1487     0.0000 
     16 C5A       -56.2990  -93.8720    5.1830 C.ar      1 FAD1487     0.0000 
     17 C6A       -57.3350  -94.7320    4.9960 C.ar      1 FAD1487     0.0000 
     18 N6A       -58.4400  -94.2430    4.4400 N.pl3     1 FAD1487     0.0000 
     19 N1A       -57.2780  -96.0120    5.3750 N.ar      1 FAD1487     0.0000 
     20 C2A       -56.1000  -96.4820    5.9740 C.ar      1 FAD1487     0.0000 
     21 N3A       -55.0260  -95.5780    6.1390 N.ar      1 FAD1487     0.0000 
     22 C4A       -55.1520  -94.2950    5.7450 C.ar      1 FAD1487     0.0000 
     23 N1        -42.5890  -82.4870   10.4100 N.2       1 FAD1487     0.0000 
     24 C2        -41.3060  -82.3530   11.0340 C.2       1 FAD1487     0.0000 
     25 O2        -41.1070  -82.7670   12.1780 O.2       1 FAD1487     0.0000 
     26 N3        -40.2530  -81.7640   10.3250 N.am      1 FAD1487     0.0000 
     27 C4        -40.4610  -81.2580    9.0220 C.2       1 FAD1487     0.0000 
     28 O4        -39.5270  -80.7400    8.4120 O.2       1 FAD1487     0.0000 
     29 C4X       -41.7110  -81.3580    8.4210 C.2       1 FAD1487     0.0000 
     30 N5        -41.9240  -80.8310    7.1290 N.2       1 FAD1487     0.0000 
     31 C5X       -43.0030  -81.3000    6.3950 C.ar      1 FAD1487     0.0000 
     32 C6        -42.9710  -81.1540    5.0250 C.ar      1 FAD1487     0.0000 
     33 C7        -43.9770  -81.6640    4.2060 C.ar      1 FAD1487     0.0000 
     34 C7M       -43.8660  -81.4570    2.8060 C.3       1 FAD1487     0.0000 
     35 C8        -45.0350  -82.3500    4.8240 C.ar      1 FAD1487     0.0000 
     36 C8M       -46.0680  -82.8790    4.0590 C.3       1 FAD1487     0.0000 
     37 C9        -45.0680  -82.4930    6.2250 C.ar      1 FAD1487     0.0000 
     38 C9A       -44.0410  -81.9670    7.0500 C.ar      1 FAD1487     0.0000 
     39 N10       -43.9870  -82.0910    8.4340 N.pl3     1 FAD1487     0.0000 
     40 C10       -42.7860  -81.9810    9.0790 C.2       1 FAD1487     0.0000 
     41 C1'       -45.0840  -82.7470    9.1900 C.3       1 FAD1487     0.0000 
     42 C2'       -45.0120  -84.2670    9.4480 C.3       1 FAD1487     0.0000 
     43 O2'       -44.5880  -84.9830    8.2990 O.3       1 FAD1487     0.0000 
     44 C3'       -46.4170  -84.7070    9.8280 C.3       1 FAD1487     0.0000 
     45 O3'       -46.9080  -83.8820   10.9300 O.3       1 FAD1487     0.0000 
     46 C4'       -46.3820  -86.0930   10.3950 C.3       1 FAD1487     0.0000 
     47 O4'       -45.6440  -86.9300    9.5690 O.3       1 FAD1487     0.0000 
     48 C5'       -47.8080  -86.5850   10.4740 C.3       1 FAD1487     0.0000 
     49 O5'       -47.6960  -87.8810   11.0260 O.3       1 FAD1487     0.0000 
     50 P         -48.9860  -88.8270   11.3360 P.3       1 FAD1487     0.0000 
     51 O1P       -49.8330  -88.1240   12.5180 O.co2     1 FAD1487     0.0000 
     52 O2P       -48.5030  -90.2000   11.6580 O.co2     1 FAD1487     0.0000 
     53 O3P       -49.8860  -88.7040   10.0860 O.3       1 FAD1487     0.0000 
     54 H         -52.0909  -90.5855    8.1709 H         1 FAD1487     0.0000 
     55 H         -51.9411  -91.4341    9.7193 H         1 FAD1487     0.0000 
     56 H         -51.0840  -93.3650    8.5823 H         1 FAD1487     0.0000 
     57 H         -50.3498  -91.5155    6.6342 H         1 FAD1487     0.0000 
     58 H         -52.2679  -91.5874    5.4527 H         1 FAD1487     0.0000 
     59 H         -52.5881  -94.3943    6.3628 H         1 FAD1487     0.0000 
     60 H         -54.5421  -91.3161    5.1870 H         1 FAD1487     0.0000 
     61 H         -59.1838  -94.8948    4.2924 H         1 FAD1487     0.0000 
     62 H         -58.4272  -93.2676    4.2198 H         1 FAD1487     0.0000 
     63 H         -56.0164  -97.4408    6.2812 H         1 FAD1487     0.0000 
     64 H         -39.3208  -81.6961   10.7490 H         1 FAD1487     0.0000 
     65 H         -42.1736  -80.6482    4.5816 H         1 FAD1487     0.0000 
     66 H         -45.8566  -82.9918    6.6658 H         1 FAD1487     0.0000 
     67 H         -46.0684  -82.5421    8.6770 H         1 FAD1487     0.0000 
     68 H         -45.2017  -82.2437   10.1935 H         1 FAD1487     0.0000 
     69 H         -44.3763  -84.4266   10.2963 H         1 FAD1487     0.0000 
     70 H         -47.0596  -84.6675    9.0044 H         1 FAD1487     0.0000 
     71 H         -45.9918  -86.0433   11.3950 H         1 FAD1487     0.0000 
     72 H         -48.2202  -86.5961    9.4784 H         1 FAD1487     0.0000 
     73 H         -48.3650  -85.9147   11.1077 H         1 FAD1487     0.0000 
     74 H         -43.0333  -81.8678    2.4347 H         1 FAD1487     0.0000 
     75 H         -44.6365  -81.8564    2.3093 H         1 FAD1487     0.0000 
     76 H         -43.8410  -80.4843    2.5752 H         1 FAD1487     0.0000 
     77 H         -45.7338  -83.5494    3.3965 H         1 FAD1487     0.0000 
     78 H         -46.7503  -83.3414    4.6253 H         1 FAD1487     0.0000 
     79 H         -46.5479  -82.1702    3.5420 H         1 FAD1487     0.0000 
     80 H         -50.4299  -94.3578    6.5343 H         1 FAD1487     0.0000 
     81 H         -51.1958  -94.1564    4.7079 H         1 FAD1487     0.0000 
     82 H         -44.8340  -85.9348    8.4819 H         1 FAD1487     0.0000 
     83 H         -46.4504  -83.0001   10.8167 H         1 FAD1487     0.0000 
     84 H         -46.1869  -87.7666    9.4969 H         1 FAD1487     0.0000 
@<TRIPOS>BOND
     1    2    1 ar   
     2    3    1 ar   
     3    4    1 1    
     4   53    1 1    
     5    5    4 1    
     6    6    5 1    
     7   54    5 1    
     8   55    5 1    
     9    7    6 1    
    10    8    6 1    
    11   56    6 1    
    12   12    7 1    
    13    9    8 1    
    14   10    8 1    
    15   57    8 1    
    16   80    9 1    
    17   11   10 1    
    18   12   10 1    
    19   58   10 1    
    20   81   11 1    
    21   13   12 1    
    22   59   12 1    
    23   14   13 1    
    24   22   13 1    
    25   15   14 2    
    26   60   14 1    
    27   16   15 1    
    28   17   16 ar   
    29   22   16 ar   
    30   18   17 1    
    31   19   17 ar   
    32   61   18 1    
    33   62   18 1    
    34   20   19 ar   
    35   21   20 ar   
    36   63   20 1    
    37   22   21 ar   
    38   24   23 1    
    39   40   23 2    
    40   25   24 2    
    41   26   24 am   
    42   27   26 am   
    43   64   26 1    
    44   28   27 2    
    45   29   27 1    
    46   30   29 2    
    47   40   29 1    
    48   31   30 1    
    49   32   31 ar   
    50   38   31 ar   
    51   33   32 ar   
    52   65   32 1    
    53   34   33 1    
    54   35   33 ar   
    55   74   34 1    
    56   75   34 1    
    57   76   34 1    
    58   36   35 1    
    59   37   35 ar   
    60   77   36 1    
    61   78   36 1    
    62   79   36 1    
    63   38   37 ar   
    64   66   37 1    
    65   39   38 1    
    66   40   39 1    
    67   41   39 1    
    68   42   41 1    
    69   67   41 1    
    70   68   41 1    
    71   43   42 1    
    72   44   42 1    
    73   69   42 1    
    74   82   43 1    
    75   45   44 1    
    76   46   44 1    
    77   70   44 1    
    78   83   45 1    
    79   47   46 1    
    80   48   46 1    
    81   71   46 1    
    82   84   47 1    
    83   49   48 1    
    84   72   48 1    
    85   73   48 1    
    86   50   49 1    
    87   51   50 ar   
    88   52   50 ar   
    89   53   50 1    
@<TRIPOS>SUBSTRUCTURE
     1 FAD1487     1 GROUP   
@<TRIPOS>SET

