#    Name: 1kqf_MGD_1_INTS_M
#    Modification time : Mon Apr  7 13:43:20 2014

@<TRIPOS>MOLECULE
1kqf_MGD_1_INTS_M
   93     0     9     0     0
SMALL
NO_CHARGES


@<TRIPOS>ATOM
      1 N          -0.7510   52.3285  114.7335 N.am      2 SEC2        0.0000 
      2 N          -1.2520   52.8780  115.8170 N.am      8 SEL2        0.0000 
      3 N          -0.2500   51.7790  113.6500 N.am      5 SEP2        0.0000 
      4 N          -0.7310   49.7770  118.7270 N.am      2 SEC2        0.0000 
      5 N          -1.3500   50.1040  117.5020 N.am      8 SEL2        0.0000 
      6 N          -0.1120   49.4500  119.9520 N.am      5 SEP2        0.0000 
      7 N          -0.0165   50.5935  117.2870 N.am      2 SEC2        0.0000 
      8 N           1.3170   51.0830  117.0720 N.am      5 SEP2        0.0000 
      9 N          -4.6365   49.5590  118.4700 N.am      2 SEC2        0.0000 
     10 N          -3.7260   49.2760  117.4740 N.am      8 SEL2        0.0000 
     11 N          -5.5470   49.8420  119.4660 N.am      5 SEP2        0.0000 
     12 N          -4.3240   48.0000  116.9875 N.am      2 SEC2        0.0000 
     13 N          -4.9220   46.7240  116.5010 N.am      5 SEP2        0.0000 
     14 CA         -3.2085   51.4915  120.0140 C.3       3 GLC5        0.0000 
     15 CA         -2.5890   53.0510  118.8430 C.3       9 GLL5        0.0000 
     16 CA         -3.8280   49.9320  121.1850 C.3       6 GLP5        0.0000 
     17 CA         -2.0050   55.7530  117.7525 C.3       3 GLC5        0.0000 
     18 CA         -3.5640   55.2800  119.0760 C.3       9 GLL5        0.0000 
     19 CA         -0.4460   56.2260  116.4290 C.3       6 GLP5        0.0000 
     20 O          -5.1920   55.2580  120.6750 O.2       1 ALC1        0.0000 
     21 O          -4.9940   55.3660  119.3610 O.2       7 ALL1        0.0000 
     22 O          -5.3900   55.1500  121.9890 O.2       4 ALP1        0.0000 
     23 CA         -1.9950   56.9445  117.8955 C.3       3 GLC5        0.0000 
     24 CA         -2.7990   56.4930  119.5610 C.3       9 GLL5        0.0000 
     25 CA         -1.1910   57.3960  116.2300 C.3       6 GLP5        0.0000 
     26 O          -4.6750   57.4975  120.6745 O.2       1 ALC1        0.0000 
     27 O          -3.6560   57.6890  119.6810 O.2       7 ALL1        0.0000 
     28 O          -5.6940   57.3060  121.6680 O.2       4 ALP1        0.0000 
     29 CA         -2.5170   54.4705  122.0735 C.3       3 GLC5        0.0000 
     30 CA         -2.4150   56.0150  120.9470 C.3       9 GLL5        0.0000 
     31 CA         -2.6190   52.9260  123.2000 C.3       6 GLP5        0.0000 
     32 O          -0.0105   57.2345  126.8435 O.2       1 ALC1        0.0000 
     33 O          -0.4020   57.0110  125.5640 O.2       7 ALL1        0.0000 
     34 O           0.3810   57.4580  128.1230 O.2       4 ALP1        0.0000 
     35 O          -3.5435   55.1055  126.0755 O.2       1 ALC1        0.0000 
     36 O          -2.0540   55.6100  126.2950 O.2       7 ALL1        0.0000 
     37 O          -5.0330   54.6010  125.8560 O.2       4 ALP1        0.0000 
     38 O          -1.6015   55.8530  127.6010 O.2       1 ALC1        0.0000 
     39 O          -1.1490   56.0960  128.9070 O.2       4 ALP1        0.0000 
     40 CA         -1.8600   54.8260  123.1085 C.3       3 GLC5        0.0000 
     41 CA         -1.1010   56.7260  123.0170 C.3       9 GLL5        0.0000 
     42 CA         -1.1415   50.2305  113.8365 C.3       3 GLC5        0.0000 
     43 CA         -1.2640   48.7200  115.1660 C.3       9 GLL5        0.0000 
     44 CA         -1.0190   51.7410  112.5070 C.3       6 GLP5        0.0000 
     45 CA          1.9665   47.2745  116.7910 C.3       3 GLC5        0.0000 
     46 CA          1.8530   47.8270  115.0080 C.3       9 GLL5        0.0000 
     47 CA          2.0800   46.7220  118.5740 C.3       6 GLP5        0.0000 
     48 CA          2.2000   49.1525  116.0870 C.3       3 GLC5        0.0000 
     49 CA          2.5470   50.4780  117.1660 C.3       6 GLP5        0.0000 
     50 CA          2.6865   45.0775  114.0515 C.3       3 GLC5        0.0000 
     51 CA          0.8760   46.0840  113.2140 C.3       9 GLL5        0.0000 
     52 CA          4.4970   44.0710  114.8890 C.3       6 GLP5        0.0000 
     53 CA          4.0355   45.4595  113.2840 C.3       3 GLC5        0.0000 
     54 CA          2.5260   45.7180  112.6390 C.3       9 GLL5        0.0000 
     55 CA          5.5450   45.2010  113.9290 C.3       6 GLP5        0.0000 
     56 CA          2.9195   45.6325  110.9185 C.3       3 GLC5        0.0000 
     57 CA          3.3130   45.5470  109.1980 C.3       6 GLP5        0.0000 
     58 CA         -1.6590   47.1610  109.3755 C.3       3 GLC5        0.0000 
     59 CA         -1.2430   45.1510  110.2880 C.3       9 GLL5        0.0000 
     60 CA         -2.0750   49.1710  108.4630 C.3       6 GLP5        0.0000 
     61 N           0.5340   46.3800  108.1425 N.am      2 SEC2        0.0000 
     62 N          -0.1660   45.1120  108.1410 N.am      8 SEL2        0.0000 
     63 N           1.2340   47.6480  108.1440 N.am      5 SEP2        0.0000 
     64 O          -2.7670   43.9960  106.9065 O.2       1 ALC1        0.0000 
     65 O          -2.3980   44.6360  108.1860 O.2       7 ALL1        0.0000 
     66 O          -3.1360   43.3560  105.6270 O.2       4 ALP1        0.0000 
     67 O          -3.9115   43.7510  106.8985 O.2       1 ALC1        0.0000 
     68 O          -4.6870   44.1460  108.1700 O.2       7 ALL1        0.0000 
     69 O          -5.6760   43.4925  109.0105 O.2       1 ALC1        0.0000 
     70 O          -6.6650   42.8390  109.8510 O.2       4 ALP1        0.0000 
     71 N          -5.0125   44.5145  110.7035 N.am      2 SEC2        0.0000 
     72 N          -3.5320   44.3890  110.2130 N.am      8 SEL2        0.0000 
     73 N          -6.4930   44.6400  111.1940 N.am      5 SEP2        0.0000 
     74 O          -3.7290   44.5325  113.0755 O.2       1 ALC1        0.0000 
     75 O          -2.6450   45.0110  112.3080 O.2       7 ALL1        0.0000 
     76 O          -4.8130   44.0540  113.8430 O.2       4 ALP1        0.0000 
     77 CA         -3.0340   46.1720  114.0870 C.3       3 GLC5        0.0000 
     78 CA         -1.4860   45.5830  113.0490 C.3       9 GLL5        0.0000 
     79 CA         -4.5820   46.7610  115.1250 C.3       6 GLP5        0.0000 
     80 CA         -2.6673   53.2585  121.2645 C.3       3 GLC5        0.0000 
     81 CA         -3.1525   57.5145  121.7635 C.3       3 GLC5        0.0000 
     82 CA         -3.6980   58.7750  123.2730 C.3       6 GLP5        0.0000 
     83 CA         -2.1295   57.9592  123.2060 C.3       3 GLC5        0.0000 
     84 CA         -0.1338   47.8257  116.7685 C.3       3 GLC5        0.0000 
     85 CA          0.8420   47.6250  118.6730 C.3       6 GLP5        0.0000 
     86 CA         -2.8457   47.3937  114.9945 C.3       3 GLC5        0.0000 
     87 CA         -0.1683   45.2948  115.1945 C.3       3 GLC5        0.0000 
     88 CA         -0.9550   47.3330  114.5620 C.3       9 GLL5        0.0000 
     89 CA         -0.1210   43.4390  116.0200 C.3       6 GLP5        0.0000 
     90 CA         -1.2515   43.3965  112.3365 C.3       3 GLC5        0.0000 
     91 CA         -0.1320   45.2390  112.4130 C.3       9 GLL5        0.0000 
     92 CA         -1.6940   41.3820  111.9420 C.3       6 GLP5        0.0000 
     93 CA         -0.3390   44.5306  114.4756 C.3       3 GLC5        0.0000 
@<TRIPOS>BOND
@<TRIPOS>SUBSTRUCTURE
     1 ALC1       20 GROUP        1 X    ALC  0     ROOT ALC X 1
     2 SEC2        1 GROUP        1 X    SEC  0     **** SEC X 2
     3 GLC5       14 GROUP        1 X    GLC  0     **** GLC X 6
     4 ALP1       22 GROUP        1 Y    ALP  0     ROOT ALP Y 8
     5 SEP2        3 GROUP        1 Y    SEP  0     **** SEP Y 9
     6 GLP5       16 GROUP        1 Y    GLP  0     **** GLP Y 13
     7 ALL1       21 GROUP        1 Z    ALL  0     ROOT ALL Z 15
     8 SEL2        2 GROUP        1 Z    SEL  0     **** SEL Z 16
     9 GLL5       15 GROUP        1 Z    GLL  0     **** GLL Z 20
@<TRIPOS>SET

