#    Name: 1kqf_MGD_1_ligand
#    Modification time : Mon Apr  7 13:43:20 2014

@<TRIPOS>MOLECULE
1kqf_MGD_1_ligand
   69    74     1     0     0
SMALL
NO_CHARGES


@<TRIPOS>ATOM
      1 PB         -2.7370   52.6930  116.1180 P.3       1 MGD1018     0.0000 
      2 O1B        -3.6880   53.3230  115.2670 O.co2     1 MGD1018     0.0000 
      3 O2B        -1.2520   52.8780  115.8170 O.co2     1 MGD1018     0.0000 
      4 O3B        -3.1170   51.0780  116.0850 O.3       1 MGD1018     0.0000 
      5 O3A        -2.2920   48.8990  115.3570 O.3       1 MGD1018     0.0000 
      6 PA         -2.5700   49.7430  116.7170 P.3       1 MGD1018     0.0000 
      7 O1A        -1.3500   50.1040  117.5020 O.co2     1 MGD1018     0.0000 
      8 O2A        -3.7260   49.2760  117.4740 O.co2     1 MGD1018     0.0000 
      9 O5'        -3.1090   53.1510  117.6020 O.3       1 MGD1018     0.0000 
     10 C5'        -2.5890   53.0510  118.8430 C.3       1 MGD1018     0.0000 
     11 C4'        -2.8420   54.1310  119.8150 C.3       1 MGD1018     0.0000 
     12 O4'        -1.7930   54.8000  120.5170 O.3       1 MGD1018     0.0000 
     13 C3'        -3.5640   55.2800  119.0760 C.3       1 MGD1018     0.0000 
     14 O3'        -4.9940   55.3660  119.3610 O.3       1 MGD1018     0.0000 
     15 C2'        -2.7990   56.4930  119.5610 C.3       1 MGD1018     0.0000 
     16 O2'        -3.6560   57.6890  119.6810 O.3       1 MGD1018     0.0000 
     17 C1'        -2.4150   56.0150  120.9470 C.3       1 MGD1018     0.0000 
     18 N9         -1.3010   56.7440  121.6620 N.pl3     1 MGD1018     0.0000 
     19 C8         -0.4620   57.7720  121.1810 C.2       1 MGD1018     0.0000 
     20 N7          0.4110   58.2000  122.0880 N.2       1 MGD1018     0.0000 
     21 C5         -0.0210   57.5610  123.2610 C.2       1 MGD1018     0.0000 
     22 C6          0.3210   57.7600  124.6050 C.2       1 MGD1018     0.0000 
     23 O6          1.3500   58.3790  124.9230 O.2       1 MGD1018     0.0000 
     24 N1         -0.4020   57.0110  125.5640 N.am      1 MGD1018     0.0000 
     25 C2         -1.4870   56.2030  125.2390 C.2       1 MGD1018     0.0000 
     26 N2         -2.0540   55.6100  126.2950 N.pl3     1 MGD1018     0.0000 
     27 N3         -1.8700   56.0500  123.9330 N.2       1 MGD1018     0.0000 
     28 C4         -1.1010   56.7260  123.0170 C.2       1 MGD1018     0.0000 
     29 C10        -1.2640   48.7200  115.1660 C.3       1 MGD1018     0.0000 
     30 C11        -0.9550   47.3330  114.5620 C.3       1 MGD1018     0.0000 
     31 O11        -1.6620   46.9460  113.3760 O.3       1 MGD1018     0.0000 
     32 C12         0.5240   46.9680  114.1760 C.2       1 MGD1018     0.0000 
     33 S12         1.8530   47.8270  115.0080 S.3       1 MGD1018     0.0000 
     34 C13         0.8760   46.0840  113.2140 C.2       1 MGD1018     0.0000 
     35 S13         2.5260   45.7180  112.6390 S.3       1 MGD1018     0.0000 
     36 C14        -0.1320   45.2390  112.4130 C.3       1 MGD1018     0.0000 
     37 N15        -0.1320   45.5050  110.9880 N.pl3     1 MGD1018     0.0000 
     38 C16        -1.2430   45.1510  110.2880 C.2       1 MGD1018     0.0000 
     39 C17        -1.1910   44.9670  108.8500 C.2       1 MGD1018     0.0000 
     40 O17        -0.1660   45.1120  108.1410 O.2       1 MGD1018     0.0000 
     41 N18        -2.3980   44.6360  108.1860 N.am      1 MGD1018     0.0000 
     42 C19        -3.5440   44.3080  108.8670 C.2       1 MGD1018     0.0000 
     43 N19        -4.6870   44.1460  108.1700 N.pl3     1 MGD1018     0.0000 
     44 N20        -3.5320   44.3890  110.2130 N.2       1 MGD1018     0.0000 
     45 C21        -2.4920   44.9090  110.9440 C.2       1 MGD1018     0.0000 
     46 N22        -2.6450   45.0110  112.3080 N.pl3     1 MGD1018     0.0000 
     47 C23        -1.4860   45.5830  113.0490 C.3       1 MGD1018     0.0000 
     48 H          -1.4473   52.9056  118.8075 H         1 MGD1018     0.0000 
     49 H          -2.9118   52.0708  119.3538 H         1 MGD1018     0.0000 
     50 H          -3.6167   53.7902  120.5477 H         1 MGD1018     0.0000 
     51 H          -3.3532   55.1612  118.0288 H         1 MGD1018     0.0000 
     52 H          -1.9456   56.6289  118.9963 H         1 MGD1018     0.0000 
     53 H          -3.2302   55.8204  121.5233 H         1 MGD1018     0.0000 
     54 H          -0.5486   58.1103  120.2558 H         1 MGD1018     0.0000 
     55 H          -0.0979   57.0747  126.5636 H         1 MGD1018     0.0000 
     56 H          -2.8144   54.9915  126.0966 H         1 MGD1018     0.0000 
     57 H          -1.6668   55.8382  127.1883 H         1 MGD1018     0.0000 
     58 H          -0.4934   48.7462  116.0515 H         1 MGD1018     0.0000 
     59 H          -0.6800   49.4146  114.4210 H         1 MGD1018     0.0000 
     60 H          -1.2124   46.5471  115.3498 H         1 MGD1018     0.0000 
     61 H           0.0649   44.2023  112.6404 H         1 MGD1018     0.0000 
     62 H           0.6768   45.9351  110.5741 H         1 MGD1018     0.0000 
     63 H          -2.3969   44.6472  107.1427 H         1 MGD1018     0.0000 
     64 H          -4.5843   43.8676  107.2151 H         1 MGD1018     0.0000 
     65 H          -5.5355   44.3186  108.6701 H         1 MGD1018     0.0000 
     66 H          -3.4461   44.7392  112.8131 H         1 MGD1018     0.0000 
     67 H          -1.4716   44.9971  114.0535 H         1 MGD1018     0.0000 
     68 H          -5.0638   55.3008  120.3564 H         1 MGD1018     0.0000 
     69 H          -4.3027   57.4716  120.4121 H         1 MGD1018     0.0000 
@<TRIPOS>BOND
     1    2    1 ar   
     2    3    1 ar   
     3    4    1 1    
     4    9    1 1    
     5    6    4 1    
     6    6    5 1    
     7   29    5 1    
     8    7    6 ar   
     9    8    6 ar   
    10   10    9 1    
    11   11   10 1    
    12   48   10 1    
    13   49   10 1    
    14   12   11 1    
    15   13   11 1    
    16   50   11 1    
    17   17   12 1    
    18   14   13 1    
    19   15   13 1    
    20   51   13 1    
    21   68   14 1    
    22   16   15 1    
    23   17   15 1    
    24   52   15 1    
    25   69   16 1    
    26   18   17 1    
    27   53   17 1    
    28   19   18 1    
    29   28   18 1    
    30   20   19 2    
    31   54   19 1    
    32   21   20 1    
    33   22   21 1    
    34   28   21 2    
    35   23   22 2    
    36   24   22 am   
    37   25   24 1    
    38   55   24 1    
    39   26   25 1    
    40   27   25 2    
    41   56   26 1    
    42   57   26 1    
    43   28   27 1    
    44   30   29 1    
    45   58   29 1    
    46   59   29 1    
    47   31   30 1    
    48   32   30 1    
    49   60   30 1    
    50   47   31 1    
    51   33   32 1    
    52   34   32 2    
    53   35   34 1    
    54   36   34 1    
    55   37   36 1    
    56   47   36 1    
    57   61   36 1    
    58   38   37 1    
    59   62   37 1    
    60   39   38 1    
    61   45   38 2    
    62   40   39 2    
    63   41   39 am   
    64   42   41 1    
    65   63   41 1    
    66   43   42 1    
    67   44   42 2    
    68   64   43 1    
    69   65   43 1    
    70   45   44 1    
    71   46   45 1    
    72   47   46 1    
    73   66   46 1    
    74   67   47 1    
@<TRIPOS>SUBSTRUCTURE
     1 MGD1018     1 GROUP   
@<TRIPOS>SET

