#    Name: 1ppk_IVV_1_INTS_M
#    Modification time : Mon Mar 24 22:01:58 2014

@<TRIPOS>MOLECULE
1ppk_IVV_1_INTS_M
   75     0     9     0     0
SMALL
NO_CHARGES


@<TRIPOS>ATOM
      1 CA         16.5360    4.1445   15.9870 C.3       3 GLC5        0.0000 
      2 CA         15.8930    4.2760   17.6750 C.3       9 GLL5        0.0000 
      3 CA         17.1790    4.0130   14.2990 C.3       6 GLP5        0.0000 
      4 CA         15.7785    6.0870   17.1225 C.3       3 GLC5        0.0000 
      5 CA         15.6640    7.8980   16.5700 C.3       6 GLP5        0.0000 
      6 CA         12.4050    3.7790   15.9680 C.3       3 GLC5        0.0000 
      7 CA         13.4810    3.5480   17.4890 C.3       9 GLL5        0.0000 
      8 CA         11.3290    4.0100   14.4470 C.3       6 GLP5        0.0000 
      9 CA         11.5405    3.6025   17.8515 C.3       3 GLC5        0.0000 
     10 CA          9.6000    3.6570   18.2140 C.3       6 GLP5        0.0000 
     11 CA         14.9765    6.4055   17.9070 C.3       3 GLC5        0.0000 
     12 CA         14.2890    4.9130   19.2440 C.3       9 GLL5        0.0000 
     13 CA         12.9450    6.0770   19.4890 C.3       3 GLC5        0.0000 
     14 CA         11.6010    7.2410   19.7340 C.3       6 GLP5        0.0000 
     15 O          17.4015    6.3540   17.4265 O.2       1 ALC1        0.0000 
     16 O          17.8940    5.5230   18.4500 O.2       7 ALL1        0.0000 
     17 O          16.9090    7.1850   16.4030 O.2       4 ALP1        0.0000 
     18 N          17.5750    8.8365   18.6120 N.am      2 SEC2        0.0000 
     19 N          18.1120    7.8900   19.6950 N.am      8 SEL2        0.0000 
     20 N          17.0380    9.7830   17.5290 N.am      5 SEP2        0.0000 
     21 O          20.6110    5.9885   21.4585 O.2       1 ALC1        0.0000 
     22 O          19.7610    7.1140   21.1610 O.2       7 ALL1        0.0000 
     23 O          21.4610    4.8630   21.7560 O.2       4 ALP1        0.0000 
     24 CA         18.9750   10.1575   20.8930 C.3       3 GLC5        0.0000 
     25 CA         19.8050    8.3850   21.8980 C.3       9 GLL5        0.0000 
     26 CA         18.1450   11.9300   19.8880 C.3       6 GLP5        0.0000 
     27 N          21.7500    7.3270   24.1945 N.am      2 SEC2        0.0000 
     28 N          21.9430    8.2540   22.9760 N.am      8 SEL2        0.0000 
     29 N          21.5570    6.4000   25.4130 N.am      5 SEP2        0.0000 
     30 CA         17.9890   10.5945   22.2140 C.3       3 GLC5        0.0000 
     31 CA         19.1270    9.7510   23.8990 C.3       9 GLL5        0.0000 
     32 CA         16.8510   11.4380   20.5290 C.3       6 GLP5        0.0000 
     33 CA         17.1125   10.2605   23.8900 C.3       3 GLC5        0.0000 
     34 CA         15.0980   10.7700   23.8810 C.3       6 GLP5        0.0000 
     35 CA         18.3505   11.6275   24.4970 C.3       3 GLC5        0.0000 
     36 CA         17.5740   13.5040   25.0950 C.3       6 GLP5        0.0000 
     37 CA         16.4135    9.3215   23.5425 C.3       3 GLC5        0.0000 
     38 CA         17.7290    7.8730   23.2040 C.3       9 GLL5        0.0000 
     39 O          21.5150    9.7450   19.4960 O.2       1 ALC1        0.0000 
     40 O          21.8380    9.4640   21.0120 O.2       7 ALL1        0.0000 
     41 O          21.1920   10.0260   17.9800 O.2       4 ALP1        0.0000 
     42 N          23.6900    9.7165   25.1330 N.am      2 SEC2        0.0000 
     43 N          24.0020   10.8590   24.3690 N.am      8 SEL2        0.0000 
     44 N          23.3780    8.5740   25.8970 N.am      5 SEP2        0.0000 
     45 CA         27.3965   13.6950   23.0705 C.3       3 GLC5        0.0000 
     46 CA         26.5940   13.7920   24.7560 C.3       9 GLL5        0.0000 
     47 CA         28.1990   13.5980   21.3850 C.3       6 GLP5        0.0000 
     48 CA         25.8355    9.4245   18.7150 C.3       3 GLC5        0.0000 
     49 CA         23.8860    9.3780   19.6540 C.3       9 GLL5        0.0000 
     50 CA         27.7850    9.4710   17.7760 C.3       6 GLP5        0.0000 
     51 CA         22.9460   10.6915   18.2880 C.3       3 GLC5        0.0000 
     52 CA         22.0060   12.0050   16.9220 C.3       6 GLP5        0.0000 
     53 N          22.0495   13.4130   19.7590 N.am      2 SEC2        0.0000 
     54 N          22.4380   12.2440   20.1120 N.am      8 SEL2        0.0000 
     55 N          21.6610   14.5820   19.4060 N.am      5 SEP2        0.0000 
     56 N          20.8480   11.9890   20.4605 N.am      2 SEC2        0.0000 
     57 N          19.2580   11.7340   20.8090 N.am      5 SEP2        0.0000 
     58 CA         26.0505    8.4905   17.9215 C.3       3 GLC5        0.0000 
     59 CA         24.3160    7.5100   18.0670 C.3       9 GLL5        0.0000 
     60 CA         25.4350    7.4645   21.7695 C.3       3 GLC5        0.0000 
     61 CA         24.2960    6.9500   20.5220 C.3       9 GLL5        0.0000 
     62 CA         26.5740    7.9790   23.0170 C.3       6 GLP5        0.0000 
     63 CA         25.9155    5.6720   20.2070 C.3       3 GLC5        0.0000 
     64 CA         27.5350    4.3940   19.8920 C.3       6 GLP5        0.0000 
     65 CA         20.6055    8.7697   25.0817 C.3       3 GLC5        0.0000 
     66 CA         19.1490    8.3320   23.2880 C.3       9 GLL5        0.0000 
     67 CA         22.0730    8.4980   26.5700 C.3       6 GLP5        0.0000 
     68 CA         19.5300    6.4449   23.3908 C.3       3 GLC5        0.0000 
     69 CA         20.4570    4.7740   23.8830 C.3       6 GLP5        0.0000 
     70 CA         25.3920   15.3498   25.1225 C.3       3 GLC5        0.0000 
     71 CA         25.4700   12.9130   25.2580 C.3       9 GLL5        0.0000 
     72 CA         24.7520   17.3470   25.2380 C.3       6 GLP5        0.0000 
     73 CA         25.1557    9.4470   21.4402 C.3       3 GLC5        0.0000 
     74 CA         23.2210    9.8740   20.9950 C.3       9 GLL5        0.0000 
     75 CA         26.7580    9.2680   22.5560 C.3       6 GLP5        0.0000 
@<TRIPOS>BOND
@<TRIPOS>SUBSTRUCTURE
     1 ALC1       15 GROUP        1 X    ALC  0     ROOT ALC X 1
     2 SEC2       18 GROUP        1 X    SEC  0     **** SEC X 2
     3 GLC5        1 GROUP        1 X    GLC  0     **** GLC X 6
     4 ALP1       17 GROUP        1 Y    ALP  0     ROOT ALP Y 8
     5 SEP2       20 GROUP        1 Y    SEP  0     **** SEP Y 9
     6 GLP5        3 GROUP        1 Y    GLP  0     **** GLP Y 13
     7 ALL1       16 GROUP        1 Z    ALL  0     ROOT ALL Z 15
     8 SEL2       19 GROUP        1 Z    SEL  0     **** SEL Z 16
     9 GLL5        2 GROUP        1 Z    GLL  0     **** GLL Z 20
@<TRIPOS>SET

