#    Name: 1ppk_IVV_1_ligand
#    Modification time : Mon Mar 24 22:01:58 2014

@<TRIPOS>MOLECULE
1ppk_IVV_1_ligand
   80    79     1     0     0
SMALL
NO_CHARGES


@<TRIPOS>ATOM
      1 CA1        15.8930    4.2760   17.6750 C.3       1 IVV700      0.0000 
      2 CB1        14.6850    3.7270   18.3960 C.3       1 IVV700      0.0000 
      3 CG11       13.4810    3.5480   17.4890 C.3       1 IVV700      0.0000 
      4 CG21       14.2890    4.9130   19.2440 C.3       1 IVV700      0.0000 
      5 C1         17.0470    4.5420   18.6790 C.2       1 IVV700      0.0000 
      6 O1         17.1330    3.7770   19.6530 O.2       1 IVV700      0.0000 
      7 N1         17.8940    5.5230   18.4500 N.am      1 IVV700      0.0000 
      8 CA2        19.0350    5.6660   19.4260 C.3       1 IVV700      0.0000 
      9 C2         18.9010    6.9930   20.1440 C.2       1 IVV700      0.0000 
     10 O2         18.1120    7.8900   19.6950 O.2       1 IVV700      0.0000 
     11 CB2        20.3170    5.6050   18.5680 C.3       1 IVV700      0.0000 
     12 CG12       20.3710    4.2270   17.8660 C.3       1 IVV700      0.0000 
     13 CG22       20.2470    6.6320   17.4280 C.3       1 IVV700      0.0000 
     14 N3         19.7610    7.1140   21.1610 N.am      1 IVV700      0.0000 
     15 CA3        19.8050    8.3850   21.8980 C.3       1 IVV700      0.0000 
     16 C3         21.3340    8.7140   22.0180 C.2       1 IVV700      0.0000 
     17 O3         21.9430    8.2540   22.9760 O.2       1 IVV700      0.0000 
     18 CB3        19.1490    8.3320   23.2880 C.3       1 IVV700      0.0000 
     19 CG13       19.1270    9.7510   23.8990 C.3       1 IVV700      0.0000 
     20 CG23       17.7290    7.8730   23.2040 C.3       1 IVV700      0.0000 
     21 N4         21.8380    9.4640   21.0120 N.am      1 IVV700      0.0000 
     22 O4         24.0020   10.8590   24.3690 O.2       1 IVV700      0.0000 
     23 P          23.2870   11.6820   21.2020 P.3       1 IVV700      0.0000 
     24 C5         23.6070   11.9730   23.9730 C.2       1 IVV700      0.0000 
     25 C6         25.4700   12.9130   25.2580 C.3       1 IVV700      0.0000 
     26 O6         24.3280   13.1020   24.4460 O.3       1 IVV700      0.0000 
     27 C7         26.5940   13.7920   24.7560 C.3       1 IVV700      0.0000 
     28 CA4        23.2210    9.8740   20.9950 C.3       1 IVV700      0.0000 
     29 CB4        23.8860    9.3780   19.6540 C.3       1 IVV700      0.0000 
     30 CG4        23.7080    7.8240   19.4250 C.3       1 IVV700      0.0000 
     31 CP         22.6230   12.0970   22.8160 C.3       1 IVV700      0.0000 
     32 O1P        22.4380   12.2440   20.1120 O.co2     1 IVV700      0.0000 
     33 O2P        24.7330   12.0620   21.0820 O.co2     1 IVV700      0.0000 
     34 CD1        24.3160    7.5100   18.0670 C.3       1 IVV700      0.0000 
     35 CD2        24.2960    6.9500   20.5220 C.3       1 IVV700      0.0000 
     36 H          15.6421    5.2121   17.1845 H         1 IVV700      0.0000 
     37 H          16.2411    3.5635   16.9328 H         1 IVV700      0.0000 
     38 H          14.8847    2.9298   18.9732 H         1 IVV700      0.0000 
     39 H          17.8641    6.1836   17.7003 H         1 IVV700      0.0000 
     40 H          19.0276    4.8605   20.1020 H         1 IVV700      0.0000 
     41 H          21.1668    5.7442   19.1394 H         1 IVV700      0.0000 
     42 H          20.3946    6.3804   21.4647 H         1 IVV700      0.0000 
     43 H          19.3691    9.1727   21.3140 H         1 IVV700      0.0000 
     44 H          19.7095    7.6992   23.9289 H         1 IVV700      0.0000 
     45 H          21.2476    9.7717   20.2157 H         1 IVV700      0.0000 
     46 H          25.8198   11.8725   25.2376 H         1 IVV700      0.0000 
     47 H          25.2762   13.1776   26.3058 H         1 IVV700      0.0000 
     48 H          23.7711    9.5204   21.8330 H         1 IVV700      0.0000 
     49 H          24.9472    9.6041   19.6860 H         1 IVV700      0.0000 
     50 H          23.4297    9.9052   18.8220 H         1 IVV700      0.0000 
     51 H          22.6322    7.6449   19.3499 H         1 IVV700      0.0000 
     52 H          21.7760   11.4234   22.9039 H         1 IVV700      0.0000 
     53 H          22.2633   13.1110   22.6704 H         1 IVV700      0.0000 
     54 H          13.1921    4.4136   17.0801 H         1 IVV700      0.0000 
     55 H          13.6733    2.9181   16.7365 H         1 IVV700      0.0000 
     56 H          12.6939    3.1809   17.9847 H         1 IVV700      0.0000 
     57 H          14.9407    5.0737   19.9852 H         1 IVV700      0.0000 
     58 H          14.2429    5.7550   18.7065 H         1 IVV700      0.0000 
     59 H          13.3913    4.7849   19.6657 H         1 IVV700      0.0000 
     60 H          21.1842    4.1345   17.2914 H         1 IVV700      0.0000 
     61 H          20.3906    3.4750   18.5249 H         1 IVV700      0.0000 
     62 H          19.5770    4.0793   17.2762 H         1 IVV700      0.0000 
     63 H          21.0696    6.6126   16.8596 H         1 IVV700      0.0000 
     64 H          19.4688    6.4630   16.8232 H         1 IVV700      0.0000 
     65 H          20.1519    7.5653   17.7742 H         1 IVV700      0.0000 
     66 H          20.0485   10.1259   24.0006 H         1 IVV700      0.0000 
     67 H          18.6108   10.3920   23.3310 H         1 IVV700      0.0000 
     68 H          18.7059    9.7583   24.8060 H         1 IVV700      0.0000 
     69 H          17.6577    6.9562   22.8111 H         1 IVV700      0.0000 
     70 H          17.2953    7.8406   24.1045 H         1 IVV700      0.0000 
     71 H          17.1756    8.4801   22.6338 H         1 IVV700      0.0000 
     72 H          27.4209   13.6896   25.3090 H         1 IVV700      0.0000 
     73 H          26.8434   13.5734   23.8126 H         1 IVV700      0.0000 
     74 H          26.3457   14.7605   24.7767 H         1 IVV700      0.0000 
     75 H          25.2867    7.7474   18.0309 H         1 IVV700      0.0000 
     76 H          24.2434    6.5380   17.8434 H         1 IVV700      0.0000 
     77 H          23.8633    8.0145   17.3318 H         1 IVV700      0.0000 
     78 H          25.2806    7.0928   20.6230 H         1 IVV700      0.0000 
     79 H          23.8796    7.1397   21.4112 H         1 IVV700      0.0000 
     80 H          24.1586    5.9772   20.3355 H         1 IVV700      0.0000 
@<TRIPOS>BOND
     1    2    1 1    
     2    5    1 1    
     3   36    1 1    
     4   37    1 1    
     5    3    2 1    
     6    4    2 1    
     7   38    2 1    
     8   54    3 1    
     9   55    3 1    
    10   56    3 1    
    11   57    4 1    
    12   58    4 1    
    13   59    4 1    
    14    6    5 2    
    15    7    5 am   
    16    8    7 1    
    17   39    7 1    
    18    9    8 1    
    19   11    8 1    
    20   40    8 1    
    21   10    9 2    
    22   14    9 am   
    23   12   11 1    
    24   13   11 1    
    25   41   11 1    
    26   60   12 1    
    27   61   12 1    
    28   62   12 1    
    29   63   13 1    
    30   64   13 1    
    31   65   13 1    
    32   15   14 1    
    33   42   14 1    
    34   16   15 1    
    35   18   15 1    
    36   43   15 1    
    37   17   16 2    
    38   21   16 am   
    39   19   18 1    
    40   20   18 1    
    41   44   18 1    
    42   66   19 1    
    43   67   19 1    
    44   68   19 1    
    45   69   20 1    
    46   70   20 1    
    47   71   20 1    
    48   28   21 1    
    49   45   21 1    
    50   24   22 2    
    51   28   23 1    
    52   31   23 1    
    53   32   23 ar   
    54   33   23 ar   
    55   26   24 1    
    56   31   24 1    
    57   26   25 1    
    58   27   25 1    
    59   46   25 1    
    60   47   25 1    
    61   72   27 1    
    62   73   27 1    
    63   74   27 1    
    64   29   28 1    
    65   48   28 1    
    66   30   29 1    
    67   49   29 1    
    68   50   29 1    
    69   34   30 1    
    70   35   30 1    
    71   51   30 1    
    72   52   31 1    
    73   53   31 1    
    74   75   34 1    
    75   76   34 1    
    76   77   34 1    
    77   78   35 1    
    78   79   35 1    
    79   80   35 1    
@<TRIPOS>SUBSTRUCTURE
     1 IVV700      1 GROUP   
@<TRIPOS>SET

