#    Name: 4g09_0VD_1_INTS_M
#    Modification time : Mon Mar 24 21:08:21 2014

@<TRIPOS>MOLECULE
4g09_0VD_1_INTS_M
   36     0     6     0     0
SMALL
NO_CHARGES


@<TRIPOS>ATOM
      1 Zn         59.8505   38.2280   92.1970 Zn        1 ZIC7        0.0000 
      2 Zn         60.0830   38.0720   91.1390 Zn        5 ZIL7        0.0000 
      3 Zn         59.6180   38.3840   93.2550 Zn        3 ZIP7        0.0000 
      4 CA         54.9605   42.8130   92.8800 C.3       2 GLC5        0.0000 
      5 CA         55.8120   42.3780   90.9620 C.3       6 GLL5        0.0000 
      6 CA         54.1090   43.2480   94.7980 C.3       4 GLP5        0.0000 
      7 CA         58.5360   36.3390   90.9415 C.3       2 GLC5        0.0000 
      8 CA         57.6470   37.9960   90.4840 C.3       6 GLL5        0.0000 
      9 CA         59.4250   34.6820   91.3990 C.3       4 GLP5        0.0000 
     10 CA         58.1055   40.0065   92.8670 C.3       2 GLC5        0.0000 
     11 CA         57.1160   38.6910   91.7530 C.3       6 GLL5        0.0000 
     12 CA         59.0950   41.3220   93.9810 C.3       4 GLP5        0.0000 
     13 CA         54.2995   42.6365   87.0335 C.3       2 GLC5        0.0000 
     14 CA         55.8480   41.6520   88.2570 C.3       6 GLL5        0.0000 
     15 CA         52.7510   43.6210   85.8100 C.3       4 GLP5        0.0000 
     16 CA         54.4940   41.6845   93.2395 C.3       2 GLC5        0.0000 
     17 CA         54.8790   40.1210   91.6810 C.3       6 GLL5        0.0000 
     18 CA         59.6275   43.7805   88.0105 C.3       2 GLC5        0.0000 
     19 CA         58.0410   44.4030   87.7460 C.3       6 GLL5        0.0000 
     20 CA         61.2140   43.1580   88.2750 C.3       4 GLP5        0.0000 
     21 Zn         58.5625   38.1650   93.1090 Zn        1 ZIC7        0.0000 
     22 Zn         57.5070   37.9460   92.9630 Zn        5 ZIL7        0.0000 
     23 CA         59.4215   36.5083   90.5033 C.3       2 GLC5        0.0000 
     24 CA         59.1040   38.1850   90.1910 C.3       6 GLL5        0.0000 
     25 CA         57.2338   36.8833   89.2252 C.3       2 GLC5        0.0000 
     26 CA         56.0920   35.6760   88.1130 C.3       4 GLP5        0.0000 
     27 CA         57.0877   47.1085   85.1442 C.3       2 GLC5        0.0000 
     28 CA         57.3500   46.6580   86.8360 C.3       6 GLL5        0.0000 
     29 CA         56.8970   46.8630   83.3950 C.3       4 GLP5        0.0000 
     30 CA         59.1025   48.0547   86.9048 C.3       2 GLC5        0.0000 
     31 CA         57.2070   48.0500   86.9510 C.3       6 GLL5        0.0000 
     32 CA         60.7950   47.7410   86.2680 C.3       4 GLP5        0.0000 
     33 CA         59.5092   47.4928   87.6950 C.3       2 GLC5        0.0000 
     34 CA         58.1560   47.9400   89.1890 C.3       6 GLL5        0.0000 
     35 CA         59.2080   47.0072   86.8130 C.3       2 GLC5        0.0000 
     36 CA         57.8920   45.8890   87.8800 C.3       6 GLL5        0.0000 
@<TRIPOS>BOND
@<TRIPOS>SUBSTRUCTURE
     1 ZIC7        1 GROUP        1 X    ZIC  0     ROOT ZIC X 5
     2 GLC5        4 GROUP        1 X    GLC  0     **** GLC X 6
     3 ZIP7        3 GROUP        1 Y    ZIP  0     ROOT ZIP Y 12
     4 GLP5        6 GROUP        1 Y    GLP  0     **** GLP Y 13
     5 ZIL7        2 GROUP        1 Z    ZIL  0     ROOT ZIL Z 19
     6 GLL5        5 GROUP        1 Z    GLL  0     **** GLL Z 20
@<TRIPOS>SET

