#    Name: 4g09_0VD_1_ligand
#    Modification time : Mon Mar 24 21:08:21 2014

@<TRIPOS>MOLECULE
4g09_0VD_1_ligand
   46    48     1     0     0
SMALL
NO_CHARGES


@<TRIPOS>ATOM
      1 C1         59.7320   38.4840   89.0240 C.2       1 0VD505      0.0000 
      2 N1         61.0830   38.5500   89.2750 N.pl3     1 0VD505      0.0000 
      3 C2         61.2630   38.2980   90.5510 C.2       1 0VD505      0.0000 
      4 N2         60.0830   38.0720   91.1390 N.2       1 0VD505      0.0000 
      5 C12        56.2660   43.2970   90.0060 C.ar      1 0VD505      0.0000 
      6 C13        55.8120   42.3780   90.9620 C.ar      1 0VD505      0.0000 
      7 C4         57.6470   37.9960   90.4840 C.3       1 0VD505      0.0000 
      8 C5         57.1160   38.6910   91.7530 C.3       1 0VD505      0.0000 
      9 C6         55.5790   38.7470   91.7020 C.2       1 0VD505      0.0000 
     10 C8         55.3680   41.0900   90.6130 C.ar      1 0VD505      0.0000 
     11 C10        55.8480   41.6520   88.2570 C.ar      1 0VD505      0.0000 
     12 C9         55.3970   40.7520   89.2380 C.ar      1 0VD505      0.0000 
     13 C7         54.8790   40.1210   91.6810 C.3       1 0VD505      0.0000 
     14 C11        56.2890   42.9390   88.6340 C.ar      1 0VD505      0.0000 
     15 C19        57.2070   48.0500   86.9510 C.ar      1 0VD505      0.0000 
     16 C18        57.6130   48.6870   88.1320 C.ar      1 0VD505      0.0000 
     17 C17        58.1560   47.9400   89.1890 C.ar      1 0VD505      0.0000 
     18 C20        57.3500   46.6580   86.8360 C.ar      1 0VD505      0.0000 
     19 C16        58.2910   46.5490   89.0550 C.ar      1 0VD505      0.0000 
     20 C15        57.8920   45.8890   87.8800 C.ar      1 0VD505      0.0000 
     21 C14        58.0410   44.4030   87.7460 C.3       1 0VD505      0.0000 
     22 N3         57.5070   37.9460   92.9630 N.3       1 0VD505      0.0000 
     23 C3         59.1040   38.1850   90.1910 C.2       1 0VD505      0.0000 
     24 O1         54.9040   37.6900   91.6930 O.2       1 0VD505      0.0000 
     25 O2         56.7260   43.8290   87.6690 O.3       1 0VD505      0.0000 
     26 H          59.3179   38.6253   88.1744 H         1 0VD505      0.0000 
     27 H          61.7486   38.7485   88.6079 H         1 0VD505      0.0000 
     28 H          62.1289   38.2755   91.0174 H         1 0VD505      0.0000 
     29 H          56.5818   44.2262   90.2901 H         1 0VD505      0.0000 
     30 H          55.8024   42.6561   91.9638 H         1 0VD505      0.0000 
     31 H          57.0435   38.3553   89.6198 H         1 0VD505      0.0000 
     32 H          57.4223   36.9087   90.5705 H         1 0VD505      0.0000 
     33 H          57.4884   39.6910   91.7848 H         1 0VD505      0.0000 
     34 H          55.8577   41.3782   87.2733 H         1 0VD505      0.0000 
     35 H          55.0745   39.8099   88.9504 H         1 0VD505      0.0000 
     36 H          55.0010   40.5893   92.6781 H         1 0VD505      0.0000 
     37 H          53.7910   39.9556   91.5492 H         1 0VD505      0.0000 
     38 H          56.8117   48.5912   86.1828 H         1 0VD505      0.0000 
     39 H          57.5130   49.7043   88.2249 H         1 0VD505      0.0000 
     40 H          58.4505   48.4044   90.0486 H         1 0VD505      0.0000 
     41 H          57.0505   46.1884   85.9654 H         1 0VD505      0.0000 
     42 H          58.6903   46.0007   89.8327 H         1 0VD505      0.0000 
     43 H          58.5880   44.0258   88.6112 H         1 0VD505      0.0000 
     44 H          58.6204   44.1882   86.8470 H         1 0VD505      0.0000 
     45 H          57.1663   38.3838   93.7950 H         1 0VD505      0.0000 
     46 H          57.1496   37.0121   92.9558 H         1 0VD505      0.0000 
@<TRIPOS>BOND
     1    2    1 1    
     2   23    1 2    
     3   26    1 1    
     4    3    2 1    
     5   27    2 1    
     6    4    3 2    
     7   28    3 1    
     8   23    4 1    
     9    6    5 ar   
    10   14    5 ar   
    11   29    5 1    
    12   10    6 ar   
    13   30    6 1    
    14    8    7 1    
    15   23    7 1    
    16   31    7 1    
    17   32    7 1    
    18    9    8 1    
    19   22    8 1    
    20   33    8 1    
    21   13    9 1    
    22   24    9 2    
    23   12   10 ar   
    24   13   10 1    
    25   12   11 ar   
    26   14   11 ar   
    27   34   11 1    
    28   35   12 1    
    29   36   13 1    
    30   37   13 1    
    31   25   14 1    
    32   16   15 ar   
    33   18   15 ar   
    34   38   15 1    
    35   17   16 ar   
    36   39   16 1    
    37   19   17 ar   
    38   40   17 1    
    39   20   18 ar   
    40   41   18 1    
    41   20   19 ar   
    42   42   19 1    
    43   21   20 1    
    44   25   21 1    
    45   43   21 1    
    46   44   21 1    
    47   45   22 1    
    48   46   22 1    
@<TRIPOS>SUBSTRUCTURE
     1 0VD505      1 GROUP   
@<TRIPOS>SET

