#    Name: 1ly3_COG_1_INTS_M
#    Modification time : Tue Mar 25 11:18:47 2014

@<TRIPOS>MOLECULE
1ly3_COG_1_INTS_M
   64     0     9     0     0
SMALL
NO_CHARGES


@<TRIPOS>ATOM
      1 CA          8.4315    2.7840   12.9185 C.3       3 GLC5        0.0000 
      2 CA         10.3710    2.3520   12.5400 C.3       9 GLL5        0.0000 
      3 CA          6.4920    3.2160   13.2970 C.3       6 GLP5        0.0000 
      4 CA          9.7670    1.7500   14.4245 C.3       3 GLC5        0.0000 
      5 CA          9.1630    1.1480   16.3090 C.3       6 GLP5        0.0000 
      6 CA         11.3750    0.6685   12.9840 C.3       3 GLC5        0.0000 
      7 CA         12.3790   -1.0150   13.4280 C.3       6 GLP5        0.0000 
      8 CA          9.9605    3.4750   10.7045 C.3       3 GLC5        0.0000 
      9 CA          9.5500    4.5980    8.8690 C.3       6 GLP5        0.0000 
     10 CA          9.9960    2.7270   15.0930 C.3       3 GLC5        0.0000 
     11 CA         10.8290    4.3060   13.8770 C.3       9 GLL5        0.0000 
     12 CA         10.9145    4.1445   10.4505 C.3       3 GLC5        0.0000 
     13 CA         12.2790    3.6910   12.0320 C.3       9 GLL5        0.0000 
     14 CA         20.8980    5.6335   14.0900 C.3       3 GLC5        0.0000 
     15 CA         19.6790    6.5150   12.4390 C.3       9 GLL5        0.0000 
     16 CA         22.1170    4.7520   15.7410 C.3       6 GLP5        0.0000 
     17 CA         18.8540    4.6925   13.0105 C.3       3 GLC5        0.0000 
     18 CA         18.0290    2.8700   13.5820 C.3       6 GLP5        0.0000 
     19 CA         19.5690    7.9820   13.9765 C.3       3 GLC5        0.0000 
     20 CA         19.4590    9.4490   15.5140 C.3       6 GLP5        0.0000 
     21 CA         11.9180    7.9250   12.5245 C.3       3 GLC5        0.0000 
     22 CA         13.7850    8.0160   13.4420 C.3       9 GLL5        0.0000 
     23 CA         10.0510    7.8340   11.6070 C.3       6 GLP5        0.0000 
     24 CA         14.2515    8.6910   15.2055 C.3       3 GLC5        0.0000 
     25 CA         14.7180    9.3660   16.9690 C.3       6 GLP5        0.0000 
     26 CA         14.9885    9.7725   13.0685 C.3       3 GLC5        0.0000 
     27 CA         16.1920   11.5290   12.6950 C.3       6 GLP5        0.0000 
     28 CA         12.1580    9.2245   13.9410 C.3       3 GLC5        0.0000 
     29 CA         10.5310   10.4330   14.4400 C.3       6 GLP5        0.0000 
     30 CA         16.2705   10.3790    9.7345 C.3       3 GLC5        0.0000 
     31 CA         15.9920    8.2720    9.1890 C.3       9 GLL5        0.0000 
     32 CA         16.5490   12.4860   10.2800 C.3       6 GLP5        0.0000 
     33 CA         16.0905   10.9875    6.8930 C.3       3 GLC5        0.0000 
     34 CA         15.5100    9.4900    7.0640 C.3       9 GLL5        0.0000 
     35 CA         16.6710   12.4850    6.7220 C.3       6 GLP5        0.0000 
     36 N          11.8465    1.6585   10.7900 N.am      2 SEC2        0.0000 
     37 N          11.4920    2.5930   11.7700 N.am      8 SEL2        0.0000 
     38 N          12.2010    0.7240    9.8100 N.am      5 SEP2        0.0000 
     39 O           9.8470    0.4925   11.1730 O.2       1 ALC1        0.0000 
     40 O           9.5240    1.2660   12.2400 O.2       7 ALL1        0.0000 
     41 O          10.1700   -0.2810   10.1060 O.2       4 ALP1        0.0000 
     42 O           9.3730    4.4960   15.8055 O.2       1 ALC1        0.0000 
     43 O          10.4460    5.0870   14.9870 O.2       7 ALL1        0.0000 
     44 O           8.3000    3.9050   16.6240 O.2       4 ALP1        0.0000 
     45 O          10.8000    5.9775   15.9505 O.2       1 ALC1        0.0000 
     46 O          11.1540    6.8680   16.9140 O.2       4 ALP1        0.0000 
     47 CA         14.4473    4.9350   10.2150 C.3       3 GLC5        0.0000 
     48 CA         14.2450    4.9620   11.5330 C.3       9 GLL5        0.0000 
     49 CA         14.7920    4.4660    8.3860 C.3       6 GLP5        0.0000 
     50 CA         13.8250    4.1227   10.0080 C.3       3 GLC5        0.0000 
     51 CA         13.4370    3.8680   11.2280 C.3       9 GLL5        0.0000 
     52 CA         17.0536    5.1206   11.9369 C.3       3 GLC5        0.0000 
     53 CA         16.4850    7.3100   11.3330 C.3       9 GLL5        0.0000 
     54 CA         17.0950    3.2060   12.4050 C.3       6 GLP5        0.0000 
     55 CA         18.7180    8.7323    9.6828 C.3       3 GLC5        0.0000 
     56 CA         17.7240    6.8790   10.8680 C.3       9 GLL5        0.0000 
     57 CA         19.5390   10.4590    9.1620 C.3       6 GLP5        0.0000 
     58 CA         18.0698    9.2515    9.0523 C.3       3 GLC5        0.0000 
     59 CA         17.2090    7.8160    8.6960 C.3       9 GLL5        0.0000 
     60 CA         16.0809    9.5689   11.9924 C.3       3 GLC5        0.0000 
     61 CA         15.6390    8.0260   10.5100 C.3       9 GLL5        0.0000 
     62 CA         15.4324    3.9210   12.0205 C.3       3 GLC5        0.0000 
     63 CA         15.8126    6.0940    8.9862 C.3       3 GLC5        0.0000 
     64 CA         18.0700    7.1320    9.5390 C.3       9 GLL5        0.0000 
@<TRIPOS>BOND
@<TRIPOS>SUBSTRUCTURE
     1 ALC1       39 GROUP        1 X    ALC  0     ROOT ALC X 1
     2 SEC2       36 GROUP        1 X    SEC  0     **** SEC X 2
     3 GLC5        1 GROUP        1 X    GLC  0     **** GLC X 6
     4 ALP1       41 GROUP        1 Y    ALP  0     ROOT ALP Y 8
     5 SEP2       38 GROUP        1 Y    SEP  0     **** SEP Y 9
     6 GLP5        3 GROUP        1 Y    GLP  0     **** GLP Y 13
     7 ALL1       40 GROUP        1 Z    ALL  0     ROOT ALL Z 15
     8 SEL2       37 GROUP        1 Z    SEL  0     **** SEL Z 16
     9 GLL5        2 GROUP        1 Z    GLL  0     **** GLL Z 20
@<TRIPOS>SET

