#    Name: 1ly3_COG_1_ligand
#    Modification time : Tue Mar 25 11:18:47 2014

@<TRIPOS>MOLECULE
1ly3_COG_1_ligand
   46    48     1     0     0
SMALL
NO_CHARGES


@<TRIPOS>ATOM
      1 C2B        10.3710    2.3520   12.5400 C.ar      1 COG307      0.0000 
      2 C4B        10.8290    4.3060   13.8770 C.ar      1 COG307      0.0000 
      3 C4A        11.9780    4.5560   13.1020 C.ar      1 COG307      0.0000 
      4 C5B        12.8140    5.6610   13.3540 C.ar      1 COG307      0.0000 
      5 C6B        13.9600    5.8460   12.5550 C.ar      1 COG307      0.0000 
      6 C7B        14.2450    4.9620   11.5330 C.ar      1 COG307      0.0000 
      7 C8A        12.2790    3.6910   12.0320 C.ar      1 COG307      0.0000 
      8 C21        19.6790    6.5150   12.4390 C.3       1 COG307      0.0000 
      9 C7'        16.1160    7.0730   12.8060 C.3       1 COG307      0.0000 
     10 C61        13.7850    8.0160   13.4420 C.3       1 COG307      0.0000 
     11 C1'        16.4850    7.3100   11.3330 C.ar      1 COG307      0.0000 
     12 C2'        17.7240    6.8790   10.8680 C.ar      1 COG307      0.0000 
     13 C3'        18.0700    7.1320    9.5390 C.ar      1 COG307      0.0000 
     14 C4'        17.2090    7.8160    8.6960 C.ar      1 COG307      0.0000 
     15 C5'        15.9920    8.2720    9.1890 C.ar      1 COG307      0.0000 
     16 C51        15.5100    9.4900    7.0640 C.3       1 COG307      0.0000 
     17 C6'        15.6390    8.0260   10.5100 C.ar      1 COG307      0.0000 
     18 N1'        11.4920    2.5930   11.7700 N.ar      1 COG307      0.0000 
     19 N2'         9.5240    1.2660   12.2400 N.pl3     1 COG307      0.0000 
     20 N3'        10.0290    3.2370   13.5860 N.ar      1 COG307      0.0000 
     21 N4'        10.4460    5.0870   14.9870 N.pl3     1 COG307      0.0000 
     22 C8'        13.4370    3.8680   11.2280 C.ar      1 COG307      0.0000 
     23 O2'        18.5940    6.1730   11.6300 O.3       1 COG307      0.0000 
     24 O5'        15.1520    8.9450    8.2870 O.3       1 COG307      0.0000 
     25 N6'        14.6840    6.9990   12.9200 N.pl3     1 COG307      0.0000 
     26 H          12.5949    6.3141   14.0993 H         1 COG307      0.0000 
     27 H          15.1091    5.1166   10.9559 H         1 COG307      0.0000 
     28 H          16.5259    7.8980   13.3890 H         1 COG307      0.0000 
     29 H          16.5954    6.1472   13.1247 H         1 COG307      0.0000 
     30 H          18.9840    6.8018    9.1830 H         1 COG307      0.0000 
     31 H          17.4651    7.9851    7.7183 H         1 COG307      0.0000 
     32 H          14.7412    8.3811   10.8732 H         1 COG307      0.0000 
     33 H           9.8028    0.6897   11.4718 H         1 COG307      0.0000 
     34 H           8.7163    1.1643   12.8209 H         1 COG307      0.0000 
     35 H          11.0688    5.8273   15.2401 H         1 COG307      0.0000 
     36 H           9.5842    4.8340   15.4266 H         1 COG307      0.0000 
     37 H          13.6495    3.2346   10.4863 H         1 COG307      0.0000 
     38 H          20.0952    5.7101   12.8620 H         1 COG307      0.0000 
     39 H          20.3976    6.9781   11.9203 H         1 COG307      0.0000 
     40 H          19.4102    7.1298   13.1805 H         1 COG307      0.0000 
     41 H          14.2771    8.8437   13.7117 H         1 COG307      0.0000 
     42 H          13.1006    8.2891   12.7660 H         1 COG307      0.0000 
     43 H          13.2885    7.6944   14.2483 H         1 COG307      0.0000 
     44 H          16.2173   10.1900    7.1621 H         1 COG307      0.0000 
     45 H          15.8686    8.7966    6.4391 H         1 COG307      0.0000 
     46 H          14.7319    9.9215    6.6076 H         1 COG307      0.0000 
@<TRIPOS>BOND
     1   18    1 ar   
     2   19    1 1    
     3   20    1 ar   
     4    3    2 ar   
     5   20    2 ar   
     6   21    2 1    
     7    4    3 ar   
     8    7    3 ar   
     9    5    4 ar   
    10   26    4 1    
    11    6    5 ar   
    12   25    5 1    
    13   22    6 ar   
    14   27    6 1    
    15   18    7 ar   
    16   22    7 ar   
    17   23    8 1    
    18   38    8 1    
    19   39    8 1    
    20   40    8 1    
    21   11    9 1    
    22   25    9 1    
    23   28    9 1    
    24   29    9 1    
    25   25   10 1    
    26   41   10 1    
    27   42   10 1    
    28   43   10 1    
    29   12   11 ar   
    30   17   11 ar   
    31   13   12 ar   
    32   23   12 1    
    33   14   13 ar   
    34   30   13 1    
    35   15   14 ar   
    36   31   14 1    
    37   17   15 ar   
    38   24   15 1    
    39   24   16 1    
    40   44   16 1    
    41   45   16 1    
    42   46   16 1    
    43   32   17 1    
    44   33   19 1    
    45   34   19 1    
    46   35   21 1    
    47   36   21 1    
    48   37   22 1    
@<TRIPOS>SUBSTRUCTURE
     1 COG307      1 GROUP   
@<TRIPOS>SET

