#    Name: 3dl9_V2H_4_INTS_M
#    Modification time : Mon Mar 24 23:39:31 2014

@<TRIPOS>MOLECULE
3dl9_V2H_4_INTS_M
  103     0     6     0     0
SMALL
NO_CHARGES


@<TRIPOS>ATOM
      1 CA        -25.4420   17.5035  -20.1675 C.3       2 GLC5        0.0000 
      2 CA        -25.3290   16.5810  -18.1940 C.3       6 GLL5        0.0000 
      3 CA        -25.5550   18.4260  -22.1410 C.3       4 GLP5        0.0000 
      4 CA        -24.2990   18.3025  -19.1505 C.3       2 GLC5        0.0000 
      5 CA        -23.2690   20.0240  -20.1070 C.3       4 GLP5        0.0000 
      6 CA        -25.9030   13.4720  -19.6325 C.3       2 GLC5        0.0000 
      7 CA        -25.8730   15.2090  -18.6170 C.3       6 GLL5        0.0000 
      8 CA        -25.9330   11.7350  -20.6480 C.3       4 GLP5        0.0000 
      9 CA        -24.8260   14.6735  -20.3555 C.3       2 GLC5        0.0000 
     10 CA        -23.7790   14.1380  -22.0940 C.3       4 GLP5        0.0000 
     11 CA        -24.1295   14.1505  -18.3475 C.3       2 GLC5        0.0000 
     12 CA        -22.3860   13.0920  -18.0780 C.3       4 GLP5        0.0000 
     13 CA        -27.6280   13.5405  -19.2555 C.3       2 GLC5        0.0000 
     14 CA        -26.9160   14.6230  -17.6530 C.3       6 GLL5        0.0000 
     15 CA        -28.3400   12.4580  -20.8580 C.3       4 GLP5        0.0000 
     16 O         -29.1600   14.5905  -18.0590 O.2       1 ALC1        0.0000 
     17 O         -28.1040   15.4290  -17.6710 O.2       5 ALL1        0.0000 
     18 O         -30.2160   13.7520  -18.4470 O.2       3 ALP1        0.0000 
     19 CA        -23.5995   14.7920  -17.4290 C.3       2 GLC5        0.0000 
     20 CA        -24.8130   16.4920  -16.7800 C.3       6 GLL5        0.0000 
     21 CA        -22.2165   16.1815  -17.7540 C.3       2 GLC5        0.0000 
     22 CA        -23.5900   16.8820  -16.4370 C.3       6 GLL5        0.0000 
     23 CA        -20.8430   15.4810  -19.0710 C.3       4 GLP5        0.0000 
     24 CA        -22.1085   17.9685  -16.0215 C.3       2 GLC5        0.0000 
     25 CA        -20.6270   19.0550  -15.6060 C.3       4 GLP5        0.0000 
     26 CA        -27.2700   14.0790  -14.4615 C.3       2 GLC5        0.0000 
     27 CA        -26.3730   14.5630  -16.2320 C.3       6 GLL5        0.0000 
     28 CA        -28.1670   13.5950  -12.6910 C.3       4 GLP5        0.0000 
     29 CA        -27.7090   16.8410   -8.9630 C.3       2 GLC5        0.0000 
     30 CA        -27.4240   17.9570  -10.7580 C.3       6 GLL5        0.0000 
     31 CA        -27.9940   15.7250   -7.1680 C.3       4 GLP5        0.0000 
     32 CA        -29.2155   16.7620  -10.7615 C.3       2 GLC5        0.0000 
     33 CA        -31.0070   15.5670  -10.7650 C.3       4 GLP5        0.0000 
     34 CA        -24.2390   17.5500   -8.8045 C.3       2 GLC5        0.0000 
     35 CA        -24.4590   18.3580  -10.6280 C.3       6 GLL5        0.0000 
     36 CA        -24.0190   16.7420   -6.9810 C.3       4 GLP5        0.0000 
     37 CA        -26.4175   22.2680  -11.4995 C.3       2 GLC5        0.0000 
     38 CA        -24.8880   20.8740  -10.6920 C.3       6 GLL5        0.0000 
     39 CA        -27.9470   23.6620  -12.3070 C.3       4 GLP5        0.0000 
     40 CA        -21.9930   20.8455  -11.3335 C.3       2 GLC5        0.0000 
     41 CA        -23.9520   21.0910  -11.8840 C.3       6 GLL5        0.0000 
     42 CA        -20.0340   20.6000  -10.7830 C.3       4 GLP5        0.0000 
     43 CA        -26.9490   20.5175   -7.5580 C.3       2 GLC5        0.0000 
     44 CA        -25.1300   21.0570   -8.1340 C.3       6 GLL5        0.0000 
     45 CA        -28.7680   19.9780   -6.9820 C.3       4 GLP5        0.0000 
     46 CA        -26.0640   22.1860   -6.9120 C.3       2 GLC5        0.0000 
     47 CA        -26.9980   23.3150   -5.6900 C.3       4 GLP5        0.0000 
     48 CA        -21.5790   23.2670   -8.5275 C.3       2 GLC5        0.0000 
     49 CA        -23.4030   22.4060   -9.3180 C.3       6 GLL5        0.0000 
     50 CA        -19.7550   24.1280   -7.7370 C.3       4 GLP5        0.0000 
     51 CA        -25.8885   24.3225   -9.9140 C.3       2 GLC5        0.0000 
     52 CA        -23.9410   23.5830   -9.6410 C.3       6 GLL5        0.0000 
     53 CA        -27.8360   25.0620  -10.1870 C.3       4 GLP5        0.0000 
     54 CA        -25.3925   24.1140   -8.0300 C.3       2 GLC5        0.0000 
     55 CA        -26.8440   24.6450   -6.4190 C.3       4 GLP5        0.0000 
     56 CA        -22.7535   27.2405   -7.4790 C.3       2 GLC5        0.0000 
     57 CA        -23.6710   25.7690   -8.5120 C.3       6 GLL5        0.0000 
     58 CA        -21.8360   28.7120   -6.4460 C.3       4 GLP5        0.0000 
     59 CA        -25.2575   25.2070   -7.4655 C.3       2 GLC5        0.0000 
     60 CA        -24.8910   27.1905   -8.8855 C.3       2 GLC5        0.0000 
     61 CA        -26.1110   28.6120   -9.2590 C.3       4 GLP5        0.0000 
     62 CA        -21.5770   24.0105  -11.6575 C.3       2 GLC5        0.0000 
     63 CA        -23.0410   25.5340  -10.9540 C.3       6 GLL5        0.0000 
     64 CA        -20.1130   22.4870  -12.3610 C.3       4 GLP5        0.0000 
     65 CA        -21.9670   26.6265  -13.1015 C.3       2 GLC5        0.0000 
     66 CA        -21.9670   26.6350  -10.9470 C.3       6 GLL5        0.0000 
     67 CA        -21.9670   26.6180  -15.2560 C.3       4 GLP5        0.0000 
     68 CA        -22.3930   28.4030  -11.4620 C.3       2 GLC5        0.0000 
     69 CA        -22.8190   30.1710  -11.9770 C.3       4 GLP5        0.0000 
     70 CA        -20.5335   25.3320  -10.0325 C.3       2 GLC5        0.0000 
     71 CA        -19.1000   24.0290   -9.1180 C.3       4 GLP5        0.0000 
     72 CA        -26.1215   25.5680  -10.7805 C.3       2 GLC5        0.0000 
     73 CA        -24.4070   26.0740  -11.3740 C.3       6 GLL5        0.0000 
     74 CA        -23.6130   28.1225  -11.6755 C.3       2 GLC5        0.0000 
     75 CA        -25.2590   27.3430  -10.3165 C.3       2 GLC5        0.0000 
     76 CA        -27.2795   16.9570  -19.1453 C.3       2 GLC5        0.0000 
     77 CA        -28.9580   18.0190  -19.8850 C.3       4 GLP5        0.0000 
     78 CA        -28.5708   14.2950  -16.0892 C.3       2 GLC5        0.0000 
     79 CA        -30.4970   13.9970  -15.2360 C.3       4 GLP5        0.0000 
     80 CA        -25.6792   14.7043  -13.8220 C.3       2 GLC5        0.0000 
     81 CA        -25.7590   15.8970  -15.8300 C.3       6 GLL5        0.0000 
     82 CA        -25.4180   13.2370  -12.3990 C.3       4 GLP5        0.0000 
     83 CA        -23.5506   15.2295  -15.2066 C.3       2 GLC5        0.0000 
     84 CA        -22.1210   14.1670  -14.1940 C.3       4 GLP5        0.0000 
     85 CA        -25.5854   18.1891  -16.8245 C.3       2 GLC5        0.0000 
     86 CA        -26.1260   20.0750  -17.2530 C.3       4 GLP5        0.0000 
     87 CA        -26.4025   18.7058  -15.2660 C.3       2 GLC5        0.0000 
     88 CA        -25.6300   17.7310  -14.1480 C.3       6 GLL5        0.0000 
     89 CA        -26.9290   20.3230  -16.1280 C.3       4 GLP5        0.0000 
     90 CA        -26.9943   15.6770  -11.5785 C.3       2 GLC5        0.0000 
     91 CA        -27.1790   17.5110  -12.2060 C.3       6 GLL5        0.0000 
     92 CA        -26.6870   13.6200  -11.6750 C.3       4 GLP5        0.0000 
     93 CA        -29.1992   18.6350  -12.1070 C.3       2 GLC5        0.0000 
     94 CA        -31.0970   19.5360  -12.7320 C.3       4 GLP5        0.0000 
     95 CA        -27.9337   19.2923   -8.7550 C.3       2 GLC5        0.0000 
     96 CA        -24.4282   21.9850  -13.9635 C.3       2 GLC5        0.0000 
     97 CA        -24.6990   23.3720  -15.4920 C.3       4 GLP5        0.0000 
     98 CA        -26.0278   19.9117  -14.4934 C.3       2 GLC5        0.0000 
     99 CA        -24.3630   20.1050  -12.9860 C.3       6 GLL5        0.0000 
    100 CA        -21.9153   21.1752  -10.0560 C.3       2 GLC5        0.0000 
    101 CA        -24.1900   21.0950   -9.3400 C.3       6 GLL5        0.0000 
    102 CA        -21.5708   24.7175   -8.3925 C.3       2 GLC5        0.0000 
    103 CA        -23.1020   24.8450   -9.5840 C.3       6 GLL5        0.0000 
@<TRIPOS>BOND
@<TRIPOS>SUBSTRUCTURE
     1 ALC1       16 GROUP        1 X    ALC  0     ROOT ALC X 1
     2 GLC5        1 GROUP        1 X    GLC  0     **** GLC X 6
     3 ALP1       18 GROUP        1 Y    ALP  0     ROOT ALP Y 8
     4 GLP5        3 GROUP        1 Y    GLP  0     **** GLP Y 13
     5 ALL1       17 GROUP        1 Z    ALL  0     ROOT ALL Z 15
     6 GLL5        2 GROUP        1 Z    GLL  0     **** GLL Z 20
@<TRIPOS>SET

