#    Name: 3dl9_V2H_4_ligand
#    Modification time : Mon Mar 24 23:39:32 2014

@<TRIPOS>MOLECULE
3dl9_V2H_4_ligand
   72    74     1     0     0
SMALL
NO_CHARGES


@<TRIPOS>ATOM
      1 O30       -24.2960   16.9460  -19.1020 O.3       1 V2H602      0.0000 
      2 CAN       -25.3290   16.5810  -18.1940 C.3       1 V2H602      0.0000 
      3 CAO       -25.8730   15.2090  -18.6170 C.3       1 V2H602      0.0000 
      4 CAZ       -26.9160   14.6230  -17.6530 C.3       1 V2H602      0.0000 
      5 OAG       -28.1040   15.4290  -17.6710 O.3       1 V2H602      0.0000 
      6 CAT       -24.8130   16.4920  -16.7800 C.2       1 V2H602      0.0000 
      7 CAA       -23.5900   16.8820  -16.4370 C.2       1 V2H602      0.0000 
      8 CAU       -25.7590   15.8970  -15.8300 C.2       1 V2H602      0.0000 
      9 CAS       -26.3730   14.5630  -16.2320 C.3       1 V2H602      0.0000 
     10 CAH       -26.1220   16.4460  -14.6600 C.2       1 V2H602      0.0000 
     11 CAI       -25.6300   17.7310  -14.1480 C.2       1 V2H602      0.0000 
     12 CAV       -26.1140   18.2410  -12.9980 C.2       1 V2H602      0.0000 
     13 CAM       -27.1790   17.5110  -12.2060 C.3       1 V2H602      0.0000 
     14 CAL       -27.4240   17.9570  -10.7580 C.3       1 V2H602      0.0000 
     15 CAR       -26.7750   19.2560  -10.2980 C.3       1 V2H602      0.0000 
     16 CBC       -25.4350   19.4810  -10.9710 C.3       1 V2H602      0.0000 
     17 CBA       -25.6660   19.5510  -12.4650 C.3       1 V2H602      0.0000 
     18 CAF       -24.4590   18.3580  -10.6280 C.3       1 V2H602      0.0000 
     19 CBB       -24.8880   20.8740  -10.6920 C.3       1 V2H602      0.0000 
     20 CAQ       -23.9520   21.0910  -11.8840 C.3       1 V2H602      0.0000 
     21 CAP       -24.3630   20.1050  -12.9860 C.3       1 V2H602      0.0000 
     22 CAY       -24.1900   21.0950   -9.3400 C.3       1 V2H602      0.0000 
     23 CAE       -25.1300   21.0570   -8.1340 C.3       1 V2H602      0.0000 
     24 CAK       -23.4030   22.4060   -9.3180 C.2       1 V2H602      0.0000 
     25 CAJ       -23.9410   23.5830   -9.6410 C.2       1 V2H602      0.0000 
     26 CAX       -23.1020   24.8450   -9.5840 C.3       1 V2H602      0.0000 
     27 CAD       -23.6710   25.7690   -8.5120 C.3       1 V2H602      0.0000 
     28 CAW       -23.0410   25.5340  -10.9540 C.3       1 V2H602      0.0000 
     29 CAB       -21.9670   26.6350  -10.9470 C.3       1 V2H602      0.0000 
     30 CAC       -24.4070   26.0740  -11.3740 C.3       1 V2H602      0.0000 
     31 H         -26.1499   17.2764  -18.2264 H         1 V2H602      0.0000 
     32 H         -25.0319   14.5033  -18.7022 H         1 V2H602      0.0000 
     33 H         -26.3244   15.2980  -19.6176 H         1 V2H602      0.0000 
     34 H         -27.1357   13.6126  -17.9738 H         1 V2H602      0.0000 
     35 H         -25.6139   13.7834  -16.1689 H         1 V2H602      0.0000 
     36 H         -27.1842   14.3185  -15.5462 H         1 V2H602      0.0000 
     37 H         -26.8117   15.9547  -14.0233 H         1 V2H602      0.0000 
     38 H         -24.9108   18.2045  -14.7092 H         1 V2H602      0.0000 
     39 H         -26.9363   16.4175  -12.1960 H         1 V2H602      0.0000 
     40 H         -28.1508   17.5784  -12.7591 H         1 V2H602      0.0000 
     41 H         -27.0945   17.1319  -10.0777 H         1 V2H602      0.0000 
     42 H         -28.5289   18.0328  -10.5979 H         1 V2H602      0.0000 
     43 H         -26.6353   19.2220   -9.2134 H         1 V2H602      0.0000 
     44 H         -27.4424   20.0914  -10.5298 H         1 V2H602      0.0000 
     45 H         -26.4354   20.3146  -12.6149 H         1 V2H602      0.0000 
     46 H         -25.7067   21.5809  -10.8144 H         1 V2H602      0.0000 
     47 H         -22.9385   20.8926  -11.5868 H         1 V2H602      0.0000 
     48 H         -24.0583   22.0970  -12.2468 H         1 V2H602      0.0000 
     49 H         -24.5201   20.6327  -13.8887 H         1 V2H602      0.0000 
     50 H         -23.6383   19.3385  -13.0596 H         1 V2H602      0.0000 
     51 H         -23.4512   20.2814   -9.2055 H         1 V2H602      0.0000 
     52 H         -22.4108   22.2901   -9.0275 H         1 V2H602      0.0000 
     53 H         -24.9088   23.7191   -9.9363 H         1 V2H602      0.0000 
     54 H         -22.0916   24.5694   -9.2915 H         1 V2H602      0.0000 
     55 H         -22.7322   24.7788  -11.6884 H         1 V2H602      0.0000 
     56 H         -23.5699   18.4922  -11.0655 H         1 V2H602      0.0000 
     57 H         -24.2949   18.2964   -9.6435 H         1 V2H602      0.0000 
     58 H         -24.8001   17.4660  -10.9247 H         1 V2H602      0.0000 
     59 H         -24.6389   21.2047   -7.2755 H         1 V2H602      0.0000 
     60 H         -25.8372   21.7616   -8.1920 H         1 V2H602      0.0000 
     61 H         -25.5986   20.1771   -8.0560 H         1 V2H602      0.0000 
     62 H         -23.6638   25.3391   -7.6092 H         1 V2H602      0.0000 
     63 H         -23.1471   26.6175   -8.4368 H         1 V2H602      0.0000 
     64 H         -24.6177   26.0254   -8.7070 H         1 V2H602      0.0000 
     65 H         -21.0592   26.2670  -10.7460 H         1 V2H602      0.0000 
     66 H         -21.9059   27.0998  -11.8303 H         1 V2H602      0.0000 
     67 H         -22.1580   27.3358  -10.2596 H         1 V2H602      0.0000 
     68 H         -24.3701   26.5239  -12.2663 H         1 V2H602      0.0000 
     69 H         -25.0896   25.3462  -11.4407 H         1 V2H602      0.0000 
     70 H         -24.7575   26.7457  -10.7213 H         1 V2H602      0.0000 
     71 H         -23.4890   17.0933  -18.5301 H         1 V2H602      0.0000 
     72 H         -28.8342   14.8072  -17.9541 H         1 V2H602      0.0000 
@<TRIPOS>BOND
     1    2    1 1    
     2   71    1 1    
     3    3    2 1    
     4    6    2 1    
     5   31    2 1    
     6    4    3 1    
     7   32    3 1    
     8   33    3 1    
     9    5    4 1    
    10    9    4 1    
    11   34    4 1    
    12   72    5 1    
    13    7    6 2    
    14    8    6 1    
    15    9    8 1    
    16   10    8 2    
    17   35    9 1    
    18   36    9 1    
    19   11   10 1    
    20   37   10 1    
    21   12   11 2    
    22   38   11 1    
    23   13   12 1    
    24   17   12 1    
    25   14   13 1    
    26   39   13 1    
    27   40   13 1    
    28   15   14 1    
    29   41   14 1    
    30   42   14 1    
    31   16   15 1    
    32   43   15 1    
    33   44   15 1    
    34   17   16 1    
    35   18   16 1    
    36   19   16 1    
    37   21   17 1    
    38   45   17 1    
    39   56   18 1    
    40   57   18 1    
    41   58   18 1    
    42   20   19 1    
    43   22   19 1    
    44   46   19 1    
    45   21   20 1    
    46   47   20 1    
    47   48   20 1    
    48   49   21 1    
    49   50   21 1    
    50   23   22 1    
    51   24   22 1    
    52   51   22 1    
    53   59   23 1    
    54   60   23 1    
    55   61   23 1    
    56   25   24 2    
    57   52   24 1    
    58   26   25 1    
    59   53   25 1    
    60   27   26 1    
    61   28   26 1    
    62   54   26 1    
    63   62   27 1    
    64   63   27 1    
    65   64   27 1    
    66   29   28 1    
    67   30   28 1    
    68   55   28 1    
    69   65   29 1    
    70   66   29 1    
    71   67   29 1    
    72   68   30 1    
    73   69   30 1    
    74   70   30 1    
@<TRIPOS>SUBSTRUCTURE
     1 V2H602      1 GROUP   
@<TRIPOS>SET

