#    Name: 2zsd_COA_1_INTS_M
#    Modification time : Tue Mar 25 11:01:45 2014

@<TRIPOS>MOLECULE
2zsd_COA_1_INTS_M
  111     0     9     0     0
SMALL
NO_CHARGES


@<TRIPOS>ATOM
      1 CA         50.0390   34.4715   29.0310 C.3       3 GLC5        0.0000 
      2 CA         50.1520   33.9860   27.2590 C.3       9 GLL5        0.0000 
      3 CA         49.9260   34.9570   30.8030 C.3       6 GLP5        0.0000 
      4 CA         49.1490   34.6495   25.6785 C.3       3 GLC5        0.0000 
      5 CA         48.1460   35.3130   24.0980 C.3       6 GLP5        0.0000 
      6 CA         50.7955   33.2155   25.8590 C.3       3 GLC5        0.0000 
      7 CA         51.4390   32.4450   24.4590 C.3       6 GLP5        0.0000 
      8 CA         47.7655   33.3760   25.6955 C.3       3 GLC5        0.0000 
      9 CA         48.1040   32.9970   27.7210 C.3       9 GLL5        0.0000 
     10 CA         47.4270   33.7550   23.6700 C.3       6 GLP5        0.0000 
     11 CA         47.8500   37.0205   29.4695 C.3       3 GLC5        0.0000 
     12 CA         48.0080   37.8470   27.6730 C.3       9 GLL5        0.0000 
     13 CA         47.6920   36.1940   31.2660 C.3       6 GLP5        0.0000 
     14 NZ         49.9055   43.6495   28.1700 N.4       2 LYC4        0.0000 
     15 NZ         49.2850   42.5010   27.9990 N.4       8 LYL4        0.0000 
     16 NZ         50.7410   45.5990   27.3060 N.4       5 LYP4        0.0000 
     17 N          48.1350   43.3000   27.9575 N.am      1 SEC2        0.0000 
     18 N          49.2850   42.5010   27.9990 N.am      7 SEL2        0.0000 
     19 N          46.9850   44.0990   27.9160 N.am      4 SEP2        0.0000 
     20 N          49.9055   43.6495   28.1700 N.am      1 SEC2        0.0000 
     21 N          50.5260   44.7980   28.3410 N.am      4 SEP2        0.0000 
     22 N          47.6955   43.3170   26.7390 N.am      1 SEC2        0.0000 
     23 N          48.4060   42.5350   25.5620 N.am      7 SEL2        0.0000 
     24 N          49.2410   43.9685   25.8700 N.am      1 SEC2        0.0000 
     25 N          50.0760   45.4020   26.1780 N.am      4 SEP2        0.0000 
     26 NZ         50.7945   43.7360   26.6780 N.4       2 LYC4        0.0000 
     27 NZ         50.8480   41.8730   26.0500 N.4       8 LYL4        0.0000 
     28 CA         47.6610   38.0330   30.0065 C.3       3 GLC5        0.0000 
     29 CA         47.6300   39.8720   28.7470 C.3       9 GLL5        0.0000 
     30 CA         46.6955   42.4440   29.2925 C.3       3 GLC5        0.0000 
     31 CA         46.2820   40.2730   29.3520 C.3       9 GLL5        0.0000 
     32 CA         47.1090   44.6150   29.2330 C.3       6 GLP5        0.0000 
     33 NZ         43.7140   39.6870   26.3395 N.4       2 LYC4        0.0000 
     34 NZ         42.8760   39.8030   27.8010 N.4       8 LYL4        0.0000 
     35 NZ         44.0460   38.3560   24.7320 N.4       5 LYP4        0.0000 
     36 N          41.7865   40.1275   27.2125 N.am      1 SEC2        0.0000 
     37 N          42.8760   39.8030   27.8010 N.am      7 SEL2        0.0000 
     38 N          40.6970   40.4520   26.6240 N.am      4 SEP2        0.0000 
     39 N          43.7140   39.6870   26.3395 N.am      1 SEC2        0.0000 
     40 N          44.5520   39.5710   24.8780 N.am      4 SEP2        0.0000 
     41 N          43.0585   38.8300   26.7295 N.am      1 SEC2        0.0000 
     42 N          43.2410   37.8570   25.6580 N.am      4 SEP2        0.0000 
     43 NZ         43.1245   42.2090   30.6230 N.4       2 LYC4        0.0000 
     44 NZ         43.7290   41.4360   29.5510 N.4       8 LYL4        0.0000 
     45 NZ         42.5200   42.9820   31.6950 N.4       5 LYP4        0.0000 
     46 N          43.1245   42.2090   30.6230 N.am      1 SEC2        0.0000 
     47 N          43.7290   41.4360   29.5510 N.am      7 SEL2        0.0000 
     48 N          42.5200   42.9820   31.6950 N.am      4 SEP2        0.0000 
     49 NZ         42.5760   41.7405   31.9240 N.4       2 LYC4        0.0000 
     50 NZ         42.6320   40.4990   32.1530 N.4       8 LYL4        0.0000 
     51 N          42.5760   41.7405   31.9240 N.am      1 SEC2        0.0000 
     52 N          42.6320   40.4990   32.1530 N.am      7 SEL2        0.0000 
     53 N          45.9285   39.3095   33.1800 N.am      1 SEC2        0.0000 
     54 N          44.8940   39.3470   31.9890 N.am      7 SEL2        0.0000 
     55 N          46.9630   39.2720   34.3710 N.am      4 SEP2        0.0000 
     56 N          46.1460   38.3860   31.8945 N.am      1 SEC2        0.0000 
     57 N          47.3980   37.4250   31.8000 N.am      4 SEP2        0.0000 
     58 CA         45.6745   36.5760   32.0615 C.3       3 GLC5        0.0000 
     59 CA         43.6570   36.9580   32.8570 C.3       9 GLL5        0.0000 
     60 CA         43.0485   35.7595   35.9855 C.3       3 GLC5        0.0000 
     61 CA         41.8200   35.9140   34.1850 C.3       9 GLL5        0.0000 
     62 CA         44.2770   35.6050   37.7860 C.3       6 GLP5        0.0000 
     63 CA         41.5780   33.9610   35.2655 C.3       3 GLC5        0.0000 
     64 CA         41.3360   32.0080   36.3460 C.3       6 GLP5        0.0000 
     65 CA         40.1570   35.9170   35.2380 C.3       3 GLC5        0.0000 
     66 CA         38.4940   35.9200   36.2910 C.3       6 GLP5        0.0000 
     67 CA         40.4715   37.4615   34.2120 C.3       3 GLC5        0.0000 
     68 CA         39.1230   39.0090   34.2390 C.3       6 GLP5        0.0000 
     69 CA         44.0315   35.0725   35.6230 C.3       3 GLC5        0.0000 
     70 CA         43.7860   34.5400   33.4600 C.3       9 GLL5        0.0000 
     71 CA         43.7755   33.0015   34.9480 C.3       3 GLC5        0.0000 
     72 CA         43.7650   31.4630   36.4360 C.3       6 GLP5        0.0000 
     73 CA         45.4815   34.0145   34.4330 C.3       3 GLC5        0.0000 
     74 CA         47.1770   33.4890   35.4060 C.3       6 GLP5        0.0000 
     75 CA         44.0200   32.4420   33.0850 C.3       3 GLC5        0.0000 
     76 CA         44.2540   30.3440   32.7100 C.3       6 GLP5        0.0000 
     77 CA         40.7525   36.7070   31.0235 C.3       3 GLC5        0.0000 
     78 CA         42.1130   35.3450   31.7710 C.3       9 GLL5        0.0000 
     79 CA         39.3920   38.0690   30.2760 C.3       6 GLP5        0.0000 
     80 CA         39.6460   32.0775   34.0690 C.3       3 GLC5        0.0000 
     81 CA         39.3240   32.7400   31.9880 C.3       9 GLL5        0.0000 
     82 CA         39.9680   31.4150   36.1500 C.3       6 GLP5        0.0000 
     83 CA         41.7700   30.3960   32.3780 C.3       3 GLC5        0.0000 
     84 CA         40.0850   31.4790   31.5760 C.3       9 GLL5        0.0000 
     85 CA         43.4550   29.3130   33.1800 C.3       6 GLP5        0.0000 
     86 N          39.9615   32.2360   27.6830 N.am      1 SEC2        0.0000 
     87 N          40.1980   32.4230   29.3500 N.am      7 SEL2        0.0000 
     88 N          39.7250   32.0490   26.0160 N.am      4 SEP2        0.0000 
     89 N          38.8225   33.1615   28.6855 N.am      1 SEC2        0.0000 
     90 N          37.4470   33.9000   28.0210 N.am      4 SEP2        0.0000 
     91 CA         39.7705   30.0535   28.0920 C.3       3 GLC5        0.0000 
     92 CA         41.6400   30.2350   28.3380 C.3       9 GLL5        0.0000 
     93 CA         37.9010   29.8720   27.8460 C.3       6 GLP5        0.0000 
     94 CA         43.0355   29.4900   24.9780 C.3       3 GLC5        0.0000 
     95 CA         43.8520   30.0390   26.6490 C.3       9 GLL5        0.0000 
     96 CA         42.2190   28.9410   23.3070 C.3       6 GLP5        0.0000 
     97 CA         45.0740   29.9855   25.3285 C.3       3 GLC5        0.0000 
     98 CA         46.2960   29.9320   24.0080 C.3       6 GLP5        0.0000 
     99 CA         44.1255   28.5095   27.8505 C.3       3 GLC5        0.0000 
    100 CA         44.3990   26.9800   29.0520 C.3       6 GLP5        0.0000 
    101 CA         43.6440   27.9660   25.9915 C.3       3 GLC5        0.0000 
    102 CA         43.4360   25.8930   25.3340 C.3       6 GLP5        0.0000 
    103 CA         48.0350   35.0628   25.8857 C.3       3 GLC5        0.0000 
    104 CA         48.3270   35.3680   27.5680 C.3       9 GLL5        0.0000 
    105 CA         48.9700   34.4309   29.2501 C.3       3 GLC5        0.0000 
    106 CA         47.5210   34.2570   27.7790 C.3       9 GLL5        0.0000 
    107 CA         47.8663   36.7952   25.6508 C.3       3 GLC5        0.0000 
    108 CA         37.7672   32.0337   32.0610 C.3       3 GLC5        0.0000 
    109 CA         35.8300   31.9580   32.3400 C.3       6 GLP5        0.0000 
    110 CA         43.6208   29.1390   29.1115 C.3       3 GLC5        0.0000 
    111 CA         44.8380   28.0080   29.8920 C.3       6 GLP5        0.0000 
@<TRIPOS>BOND
@<TRIPOS>SUBSTRUCTURE
     1 SEC2       17 GROUP        1 X    SEC  0     ROOT SEC X 2
     2 LYC4       14 GROUP        1 X    LYC  0     **** LYC X 4
     3 GLC5        1 GROUP        1 X    GLC  0     **** GLC X 6
     4 SEP2       19 GROUP        1 Y    SEP  0     ROOT SEP Y 9
     5 LYP4       16 GROUP        1 Y    LYP  0     **** LYP Y 11
     6 GLP5        3 GROUP        1 Y    GLP  0     **** GLP Y 13
     7 SEL2       18 GROUP        1 Z    SEL  0     ROOT SEL Z 16
     8 LYL4       15 GROUP        1 Z    LYL  0     **** LYL Z 18
     9 GLL5        2 GROUP        1 Z    GLL  0     **** GLL Z 20
@<TRIPOS>SET

