#    Name: 2zsd_COA_1_ligand
#    Modification time : Tue Mar 25 11:01:45 2014

@<TRIPOS>MOLECULE
2zsd_COA_1_ligand
   79    81     1     0     0
SMALL
NO_CHARGES


@<TRIPOS>ATOM
      1 N1A        49.4160   32.9060   27.4590 N.ar      1 COA650      0.0000 
      2 C2A        50.1520   33.9860   27.2590 C.ar      1 COA650      0.0000 
      3 N3A        49.6310   35.2000   27.3090 N.ar      1 COA650      0.0000 
      4 C4A        48.3270   35.3680   27.5680 C.ar      1 COA650      0.0000 
      5 C5A        47.5210   34.2570   27.7790 C.ar      1 COA650      0.0000 
      6 C6A        48.1040   32.9970   27.7210 C.ar      1 COA650      0.0000 
      7 N6A        47.3830   31.9030   27.9500 N.pl3     1 COA650      0.0000 
      8 N7A        46.2930   34.6990   28.0300 N.2       1 COA650      0.0000 
      9 C8A        46.3180   36.0290   27.9870 C.2       1 COA650      0.0000 
     10 N9A        47.5540   36.4390   27.7110 N.pl3     1 COA650      0.0000 
     11 C1B        48.0080   37.8470   27.6730 C.3       1 COA650      0.0000 
     12 C2B        47.1650   38.7080   26.7340 C.3       1 COA650      0.0000 
     13 O2B        47.5900   38.4940   25.3840 O.3       1 COA650      0.0000 
     14 C3B        47.6260   40.0740   27.2310 C.3       1 COA650      0.0000 
     15 O3B        48.9500   40.3060   26.7470 O.3       1 COA650      0.0000 
     16 P3B        49.4560   41.8190   26.5500 P.3       1 COA650      0.0000 
     17 O7A        49.2850   42.5010   27.9990 O.co2     1 COA650      0.0000 
     18 O8A        48.4060   42.5350   25.5620 O.co2     1 COA650      0.0000 
     19 O9A        50.8480   41.8730   26.0500 O.co2     1 COA650      0.0000 
     20 C4B        47.6300   39.8720   28.7470 C.3       1 COA650      0.0000 
     21 O4B        47.8220   38.4600   28.9590 O.3       1 COA650      0.0000 
     22 C5B        46.2820   40.2730   29.3520 C.3       1 COA650      0.0000 
     23 O5B        45.1940   39.6010   28.7120 O.3       1 COA650      0.0000 
     24 P1A        43.6800   40.0570   29.0160 P.3       1 COA650      0.0000 
     25 O1A        42.8760   39.8030   27.8010 O.co2     1 COA650      0.0000 
     26 O2A        43.7290   41.4360   29.5510 O.co2     1 COA650      0.0000 
     27 O3A        43.1990   39.0400   30.1720 O.3       1 COA650      0.0000 
     28 P2A        43.4340   39.3260   31.7410 P.3       1 COA650      0.0000 
     29 O4A        42.6320   40.4990   32.1530 O.co2     1 COA650      0.0000 
     30 O5A        44.8940   39.3470   31.9890 O.co2     1 COA650      0.0000 
     31 O6A        42.8000   38.0140   32.4230 O.3       1 COA650      0.0000 
     32 CBP        42.8440   35.6820   33.0720 C.3       1 COA650      0.0000 
     33 CCP        43.6570   36.9580   32.8570 C.3       1 COA650      0.0000 
     34 CDP        41.8200   35.9140   34.1850 C.3       1 COA650      0.0000 
     35 CEP        43.7860   34.5400   33.4600 C.3       1 COA650      0.0000 
     36 CAP        42.1130   35.3450   31.7710 C.3       1 COA650      0.0000 
     37 OAP        43.0400   35.3720   30.6820 O.3       1 COA650      0.0000 
     38 C9P        41.4840   33.9550   31.8850 C.2       1 COA650      0.0000 
     39 O9P        42.1940   32.9540   31.9660 O.2       1 COA650      0.0000 
     40 N8P        40.1540   33.9490   31.8780 N.am      1 COA650      0.0000 
     41 C7P        39.3240   32.7400   31.9880 C.3       1 COA650      0.0000 
     42 C6P        40.0850   31.4790   31.5760 C.3       1 COA650      0.0000 
     43 C5P        40.4860   31.4900   30.0980 C.2       1 COA650      0.0000 
     44 O5P        40.1980   32.4230   29.3500 O.2       1 COA650      0.0000 
     45 N4P        41.1710   30.4150   29.7190 N.am      1 COA650      0.0000 
     46 C3P        41.6400   30.2350   28.3380 C.3       1 COA650      0.0000 
     47 C2P        43.1670   30.3050   28.3240 C.3       1 COA650      0.0000 
     48 S1P        43.8520   30.0390   26.6490 S.3       1 COA650      0.0000 
     49 H          51.1882   33.8754   27.0529 H         1 COA650      0.0000 
     50 H          46.4068   32.0456   28.1135 H         1 COA650      0.0000 
     51 H          47.8821   31.0366   27.9380 H         1 COA650      0.0000 
     52 H          45.5476   36.6146   28.1352 H         1 COA650      0.0000 
     53 H          49.0259   37.9214   27.3687 H         1 COA650      0.0000 
     54 H          46.1775   38.5752   26.9405 H         1 COA650      0.0000 
     55 H          46.9249   40.7871   26.9734 H         1 COA650      0.0000 
     56 H          48.4040   40.4413   29.1761 H         1 COA650      0.0000 
     57 H          46.1906   41.3693   29.2619 H         1 COA650      0.0000 
     58 H          46.3212   40.0443   30.4311 H         1 COA650      0.0000 
     59 H          44.1541   37.2007   33.8043 H         1 COA650      0.0000 
     60 H          44.4365   36.7366   32.1176 H         1 COA650      0.0000 
     61 H          41.3232   36.0623   31.6347 H         1 COA650      0.0000 
     62 H          39.6019   34.8490   31.7895 H         1 COA650      0.0000 
     63 H          38.4312   32.8258   31.3498 H         1 COA650      0.0000 
     64 H          38.9729   32.6062   33.0226 H         1 COA650      0.0000 
     65 H          39.4569   30.6020   31.7690 H         1 COA650      0.0000 
     66 H          40.9880   31.3884   32.1902 H         1 COA650      0.0000 
     67 H          41.4124   29.6438   30.3767 H         1 COA650      0.0000 
     68 H          41.2529   31.0186   27.6920 H         1 COA650      0.0000 
     69 H          41.3355   29.2672   27.9483 H         1 COA650      0.0000 
     70 H          43.6393   29.5262   28.8838 H         1 COA650      0.0000 
     71 H          43.5566   31.2689   28.5732 H         1 COA650      0.0000 
     72 H          42.2597   36.1597   35.0489 H         1 COA650      0.0000 
     73 H          41.1860   36.6533   33.9582 H         1 COA650      0.0000 
     74 H          41.2686   35.0980   34.3584 H         1 COA650      0.0000 
     75 H          44.4690   34.3648   32.7509 H         1 COA650      0.0000 
     76 H          44.2841   34.7399   34.3038 H         1 COA650      0.0000 
     77 H          43.2907   33.6840   33.6078 H         1 COA650      0.0000 
     78 H          48.5223   38.8537   25.3463 H         1 COA650      0.0000 
     79 H          43.1465   36.3405   30.4569 H         1 COA650      0.0000 
@<TRIPOS>BOND
     1    2    1 ar   
     2    6    1 ar   
     3    3    2 ar   
     4   49    2 1    
     5    4    3 ar   
     6    5    4 ar   
     7   10    4 1    
     8    6    5 ar   
     9    8    5 1    
    10    7    6 1    
    11   50    7 1    
    12   51    7 1    
    13    9    8 2    
    14   10    9 1    
    15   52    9 1    
    16   11   10 1    
    17   12   11 1    
    18   21   11 1    
    19   53   11 1    
    20   13   12 1    
    21   14   12 1    
    22   54   12 1    
    23   78   13 1    
    24   15   14 1    
    25   20   14 1    
    26   55   14 1    
    27   16   15 1    
    28   17   16 ar   
    29   18   16 ar   
    30   19   16 ar   
    31   21   20 1    
    32   22   20 1    
    33   56   20 1    
    34   23   22 1    
    35   57   22 1    
    36   58   22 1    
    37   24   23 1    
    38   25   24 ar   
    39   26   24 ar   
    40   27   24 1    
    41   28   27 1    
    42   29   28 ar   
    43   30   28 ar   
    44   31   28 1    
    45   33   31 1    
    46   33   32 1    
    47   34   32 1    
    48   35   32 1    
    49   36   32 1    
    50   59   33 1    
    51   60   33 1    
    52   72   34 1    
    53   73   34 1    
    54   74   34 1    
    55   75   35 1    
    56   76   35 1    
    57   77   35 1    
    58   37   36 1    
    59   38   36 1    
    60   61   36 1    
    61   79   37 1    
    62   39   38 2    
    63   40   38 am   
    64   41   40 1    
    65   62   40 1    
    66   42   41 1    
    67   63   41 1    
    68   64   41 1    
    69   43   42 1    
    70   65   42 1    
    71   66   42 1    
    72   44   43 2    
    73   45   43 am   
    74   46   45 1    
    75   67   45 1    
    76   47   46 1    
    77   68   46 1    
    78   69   46 1    
    79   48   47 1    
    80   70   47 1    
    81   71   47 1    
@<TRIPOS>SUBSTRUCTURE
     1 COA650      1 GROUP   
@<TRIPOS>SET

