#    Name: 2GYW_2_CAVITY_N1_6.mol2
#    Modification time : Mon Mar 10 15:43:05 2014

@<TRIPOS>MOLECULE
2GYW_2_CAVITY_N1_6.mol2
  128     0     6     0     0
SMALL
NO_CHARGES


@<TRIPOS>ATOM
      1 CZ         11.7372   -4.6410  -35.2805 C.ar      4 PHE5        0.0000 
      2 CZ          8.6875   -5.2539  -34.0260 C.ar      4 PHE5        0.0000 
      3 CZ          9.6931   -5.1896  -35.1372 C.ar      4 PHE5        0.0000 
      4 CZ         10.6986   -5.1253  -36.2484 C.ar      4 PHE5        0.0000 
      5 CZ         11.7042   -5.0610  -37.3596 C.ar      4 PHE5        0.0000 
      6 CZ          7.6489   -5.7382  -34.9939 C.ar      4 PHE5        0.0000 
      7 OG          8.6545   -5.6739  -36.1051 O.2       1 SER1        0.0000 
      8 CZ          6.6103   -6.2224  -35.9618 C.ar      4 PHE5        0.0000 
      9 OG          7.6159   -6.1582  -37.0730 O.2       1 SER1        0.0000 
     10 OG          6.5773   -6.6424  -38.0409 O.2       1 SER1        0.0000 
     11 OG          7.5829   -6.5782  -39.1521 O.2       1 SER1        0.0000 
     12 CA          5.5387   -7.1267  -39.0088 C.3       5 GLY6        0.0000 
     13 CZ          8.2873   -3.8357  -34.3062 C.ar      4 PHE5        0.0000 
     14 CZ          9.2928   -3.7714  -35.4174 C.ar      4 PHE5        0.0000 
     15 CZ         10.2984   -3.7071  -36.5286 C.ar      4 PHE5        0.0000 
     16 CZ         11.3040   -3.6428  -37.6397 C.ar      4 PHE5        0.0000 
     17 CZ          7.2487   -4.3199  -35.2741 C.ar      4 PHE5        0.0000 
     18 DU          8.2543   -4.2557  -36.3853 H         6 CUB7        0.0000 
     19 OG          9.2598   -4.1914  -37.4964 O.2       1 SER1        0.0000 
     20 OG         10.2654   -4.1271  -38.6076 O.2       1 SER1        0.0000 
     21 CZ          6.2101   -4.8042  -36.2420 C.ar      4 PHE5        0.0000 
     22 DU          7.2157   -4.7399  -37.3531 H         6 CUB7        0.0000 
     23 OG          8.2212   -4.6757  -38.4643 O.2       1 SER1        0.0000 
     24 OG          6.1771   -5.2242  -38.3210 O.2       1 SER1        0.0000 
     25 OG          7.1826   -5.1600  -39.4322 O.2       1 SER1        0.0000 
     26 CA          5.1385   -5.7085  -39.2889 C.3       5 GLY6        0.0000 
     27 CA          6.1440   -5.6442  -40.4001 C.3       5 GLY6        0.0000 
     28 CZ         12.5707   -7.0575  -32.6412 C.ar      4 PHE5        0.0000 
     29 O          13.5763   -6.9932  -33.7524 O.2       2 ALA2        0.0000 
     30 O          14.5818   -6.9289  -34.8635 O.2       2 ALA2        0.0000 
     31 CA         11.5321   -7.5418  -33.6091 C.3       5 GLY6        0.0000 
     32 DU         12.5377   -7.4775  -34.7202 H         6 CUB7        0.0000 
     33 CZ         13.5432   -7.4132  -35.8314 C.ar      4 PHE5        0.0000 
     34 CZ         10.4935   -8.0260  -34.5769 C.ar      4 PHE5        0.0000 
     35 CZ         11.4991   -7.9618  -35.6881 C.ar      4 PHE5        0.0000 
     36 CZ         13.5102   -7.8332  -37.9105 C.ar      4 PHE5        0.0000 
     37 CZ          9.4549   -8.5103  -35.5448 C.ar      4 PHE5        0.0000 
     38 OG         10.4605   -8.4460  -36.6560 O.2       1 SER1        0.0000 
     39 CZ         12.4716   -8.3175  -38.8784 C.ar      4 PHE5        0.0000 
     40 NZ          9.4219   -8.9303  -37.6239 N.2       3 LYS4        0.0000 
     41 O          13.1760   -5.5750  -34.0325 O.2       2 ALA2        0.0000 
     42 CZ         14.1816   -5.5107  -35.1437 C.ar      4 PHE5        0.0000 
     43 CZ         11.1319   -6.1235  -33.8892 C.ar      4 PHE5        0.0000 
     44 CZ         12.1375   -6.0593  -35.0004 C.ar      4 PHE5        0.0000 
     45 CZ         13.1430   -5.9950  -36.1116 C.ar      4 PHE5        0.0000 
     46 CZ          9.0877   -6.6721  -33.7459 C.ar      4 PHE5        0.0000 
     47 CZ         10.0933   -6.6078  -34.8571 C.ar      4 PHE5        0.0000 
     48 OG         11.0989   -6.5435  -35.9683 O.2       1 SER1        0.0000 
     49 OG         12.1044   -6.4793  -37.0795 O.2       1 SER1        0.0000 
     50 CZ          8.0492   -7.1564  -34.7138 C.ar      4 PHE5        0.0000 
     51 CZ          9.0547   -7.0921  -35.8250 C.ar      4 PHE5        0.0000 
     52 CZ          7.0106   -7.6407  -35.6817 C.ar      4 PHE5        0.0000 
     53 CZ          8.0161   -7.5764  -36.7929 C.ar      4 PHE5        0.0000 
     54 OG          5.9720   -8.1249  -36.6496 O.2       1 SER1        0.0000 
     55 OG          6.9775   -8.0607  -37.7607 O.2       1 SER1        0.0000 
     56 OG          7.9831   -7.9964  -38.8719 O.2       1 SER1        0.0000 
     57 CA          5.9389   -8.5449  -38.7286 C.3       5 GLY6        0.0000 
     58 N          14.3767   -9.8296  -33.1921 N.2       2 ALA2        0.0000 
     59 O          15.3823   -9.7653  -34.3033 O.2       2 ALA2        0.0000 
     60 N          13.3381  -10.3139  -34.1600 N.2       2 ALA2        0.0000 
     61 O          14.3437  -10.2496  -35.2711 O.2       2 ALA2        0.0000 
     62 CZ         12.2995  -10.7982  -35.1278 C.ar      4 PHE5        0.0000 
     63 O          13.3051  -10.7339  -36.2390 O.2       2 ALA2        0.0000 
     64 O          14.3106  -10.6696  -37.3502 O.2       2 ALA2        0.0000 
     65 CZ         12.2665  -11.2182  -37.2069 C.ar      4 PHE5        0.0000 
     66 CZ         13.2721  -11.1539  -38.3181 C.ar      4 PHE5        0.0000 
     67 OG         11.2279  -11.7025  -38.1748 O.2       1 SER1        0.0000 
     68 N          12.0944  -13.6989  -33.4564 N.2       2 ALA2        0.0000 
     69 N          13.1000  -13.6346  -34.5676 N.2       2 ALA2        0.0000 
     70 CA         11.0558  -14.1832  -34.4243 C.3       5 GLY6        0.0000 
     71 CZ         12.0614  -14.1189  -35.5354 C.ar      4 PHE5        0.0000 
     72 OG         13.0670  -14.0546  -36.6466 O.2       1 SER1        0.0000 
     73 OG         11.0228  -14.6032  -36.5033 O.2       1 SER1        0.0000 
     74 OG         12.0284  -14.5389  -37.6145 O.2       1 SER1        0.0000 
     75 N          15.7825  -11.1836  -34.0231 N.2       2 ALA2        0.0000 
     76 N          14.7439  -11.6678  -34.9910 N.2       2 ALA2        0.0000 
     77 N          12.6998  -12.2164  -34.8477 N.2       2 ALA2        0.0000 
     78 DU         13.7053  -12.1521  -35.9589 H         6 CUB7        0.0000 
     79 CA         14.7109  -12.0879  -37.0701 C.3       5 GLY6        0.0000 
     80 CZ         11.6612  -12.7007  -35.8156 C.ar      4 PHE5        0.0000 
     81 OG         12.6667  -12.6364  -36.9268 O.2       1 SER1        0.0000 
     82 OG         13.6723  -12.5721  -38.0379 O.2       1 SER1        0.0000 
     83 CZ         10.6226  -13.1850  -36.7835 C.ar      4 PHE5        0.0000 
     84 CZ         10.9368   -1.8046  -35.8408 C.ar      4 PHE5        0.0000 
     85 CZ          8.8926   -2.3532  -35.6975 C.ar      4 PHE5        0.0000 
     86 CZ          9.8982   -2.2889  -36.8087 C.ar      4 PHE5        0.0000 
     87 O          10.9037   -2.2246  -37.9199 O.2       2 ALA2        0.0000 
     88 CA          6.8485   -2.9017  -35.5542 C.3       5 GLY6        0.0000 
     89 CA          7.8540   -2.8375  -36.6654 C.3       5 GLY6        0.0000 
     90 CA          8.8596   -2.7732  -37.7766 C.3       5 GLY6        0.0000 
     91 O           9.8651   -2.7089  -38.8878 O.2       2 ALA2        0.0000 
     92 CZ          5.8099   -3.3860  -36.5221 C.ar      4 PHE5        0.0000 
     93 DU          6.8154   -3.3217  -37.6333 H         6 CUB7        0.0000 
     94 CA          7.8210   -3.2575  -38.7445 C.3       5 GLY6        0.0000 
     95 CZ          4.7713   -3.8703  -37.4900 C.ar      4 PHE5        0.0000 
     96 CA          5.7768   -3.8060  -38.6012 C.3       5 GLY6        0.0000 
     97 CA          6.7824   -3.7417  -39.7123 C.3       5 GLY6        0.0000 
     98 CA          5.7438   -4.2260  -40.6802 C.3       5 GLY6        0.0000 
     99 OG          9.4980   -0.8707  -37.0888 O.2       1 SER1        0.0000 
    100 O          10.5035   -0.8064  -38.2000 O.2       2 ALA2        0.0000 
    101 CA          7.4538   -1.4192  -36.9455 C.3       5 GLY6        0.0000 
    102 O           8.4594   -1.3550  -38.0567 O.2       2 ALA2        0.0000 
    103 CA          5.4097   -1.9678  -36.8022 C.3       5 GLY6        0.0000 
    104 DU          6.4152   -1.9035  -37.9134 H         6 CUB7        0.0000 
    105 O           7.4208   -1.8392  -39.0246 O.2       2 ALA2        0.0000 
    106 CZ          4.3711   -2.4521  -37.7701 C.ar      4 PHE5        0.0000 
    107 CZ          5.3766   -2.3878  -38.8813 C.ar      4 PHE5        0.0000 
    108 CA          6.3822   -2.3235  -39.9925 C.3       5 GLY6        0.0000 
    109 N           7.0536   -0.0010  -37.2257 N.2       2 ALA2        0.0000 
    110 OG          8.0591    0.0633  -38.3369 O.2       1 SER1        0.0000 
    111 NZ          5.0094   -0.5496  -37.0824 N.2       3 LYS4        0.0000 
    112 NZ          6.0150   -0.4853  -38.1936 N.2       3 LYS4        0.0000 
    113 O           7.0205   -0.4210  -39.3047 O.2       2 ALA2        0.0000 
    114 CZ          4.9764   -0.9696  -39.1614 C.ar      4 PHE5        0.0000 
    115 O           5.9819   -0.9053  -40.2726 O.2       2 ALA2        0.0000 
    116 N          16.0206   -7.8628  -33.6155 N.2       2 ALA2        0.0000 
    117 CA         13.9765   -8.4114  -33.4722 C.3       5 GLY6        0.0000 
    118 O          14.9821   -8.3471  -34.5834 O.2       2 ALA2        0.0000 
    119 CA         12.9379   -8.8957  -34.4401 C.3       5 GLY6        0.0000 
    120 O          13.9435   -8.8314  -35.5513 O.2       2 ALA2        0.0000 
    121 CZ         11.8993   -9.3800  -35.4080 C.ar      4 PHE5        0.0000 
    122 DU         12.9049   -9.3157  -36.5192 H         6 CUB7        0.0000 
    123 CZ         13.9104   -9.2514  -37.6303 C.ar      4 PHE5        0.0000 
    124 CZ         10.8607   -9.8643  -36.3759 C.ar      4 PHE5        0.0000 
    125 OG         11.8663   -9.8000  -37.4870 O.2       1 SER1        0.0000 
    126 OG         12.8718   -9.7357  -38.5982 O.2       1 SER1        0.0000 
    127 NZ         10.8277  -10.2843  -38.4549 N.2       3 LYS4        0.0000 
    128 CZ         11.8332  -10.2200  -39.5661 C.ar      4 PHE5        0.0000 
@<TRIPOS>BOND
@<TRIPOS>SUBSTRUCTURE
     1 SER1        7 GROUP   
     2 ALA2       29 GROUP   
     3 LYS4       40 GROUP   
     4 PHE5        1 GROUP   
     5 GLY6       12 GROUP   
     6 CUB7       18 GROUP   
@<TRIPOS>SET

