#    Name: 2gyw_OBI_2_INTS_M
#    Modification time : Tue Mar 25 15:13:34 2014

@<TRIPOS>MOLECULE
2gyw_OBI_2_INTS_M
   24     0     3     0     0
SMALL
NO_CHARGES


@<TRIPOS>ATOM
      1 CA          6.9150   -5.3875  -33.5665 C.3       1 GLC5        0.0000 
      2 CA          7.9670   -4.5090  -34.5220 C.3       3 GLL5        0.0000 
      3 CA          5.8630   -6.2660  -32.6110 C.3       2 GLP5        0.0000 
      4 CA          9.4590   -3.7890  -33.9985 C.3       1 GLC5        0.0000 
      5 CA         10.9510   -3.0690  -33.4750 C.3       2 GLP5        0.0000 
      6 CA         10.7185   -8.7690  -33.7090 C.3       1 GLC5        0.0000 
      7 CA         10.4430   -7.2920  -35.1470 C.3       3 GLL5        0.0000 
      8 CA         10.9940  -10.2460  -32.2710 C.3       2 GLP5        0.0000 
      9 CA          9.5180  -10.2250  -35.8395 C.3       1 GLC5        0.0000 
     10 CA         10.4640   -9.1940  -36.6510 C.3       3 GLL5        0.0000 
     11 CA          8.5720  -11.2560  -35.0280 C.3       2 GLP5        0.0000 
     12 CA         14.4820   -8.5915  -37.5855 C.3       1 GLC5        0.0000 
     13 CA         12.7540   -9.6210  -36.9070 C.3       3 GLL5        0.0000 
     14 CA         16.2100   -7.5620  -38.2640 C.3       2 GLP5        0.0000 
     15 CA         11.2230  -10.4145  -35.5610 C.3       1 GLC5        0.0000 
     16 CA          9.6920  -11.2080  -34.2150 C.3       2 GLP5        0.0000 
     17 CA         13.7190  -12.1165  -42.5350 C.3       1 GLC5        0.0000 
     18 CA         15.1100  -11.3660  -41.7370 C.3       3 GLL5        0.0000 
     19 CA         12.3280  -12.8670  -43.3330 C.3       2 GLP5        0.0000 
     20 CA         16.1595  -10.0460  -41.1980 C.3       1 GLC5        0.0000 
     21 CA         17.2090   -8.7260  -40.6590 C.3       2 GLP5        0.0000 
     22 CA         16.3672  -11.5877  -39.9977 C.3       1 GLC5        0.0000 
     23 CA         14.4890  -10.9060  -40.4850 C.3       3 GLL5        0.0000 
     24 CA         18.3040  -11.8300  -40.0430 C.3       2 GLP5        0.0000 
@<TRIPOS>BOND
@<TRIPOS>SUBSTRUCTURE
     1 GLC5        1 GROUP        1 X    GLC  0     ROOT GLC X 6
     2 GLP5        3 GROUP        1 Y    GLP  0     ROOT GLP Y 13
     3 GLL5        2 GROUP        1 Z    GLL  0     ROOT GLL Z 20
@<TRIPOS>SET

