#    Name: 2gyw_OBI_2_ligand
#    Modification time : Tue Mar 25 15:13:34 2014

@<TRIPOS>MOLECULE
2gyw_OBI_2_ligand
   35    36     1     0     0
SMALL
NO_CHARGES


@<TRIPOS>ATOM
      1 O3          6.3490   -2.8110  -34.6620 O.2       1 OBI953      0.0000 
      2 N4          7.0090   -3.9500  -35.1290 N.2       1 OBI953      0.0000 
      3 C14         7.9670   -4.5090  -34.5220 C.2       1 OBI953      0.0000 
      4 C11         8.6080   -5.7260  -35.0900 C.2       1 OBI953      0.0000 
      5 C10         7.9930   -6.4690  -36.0960 C.2       1 OBI953      0.0000 
      6 C9          8.6260   -7.6090  -36.5940 C.2       1 OBI953      0.0000 
      7 C12         9.8430   -6.1580  -34.6130 C.2       1 OBI953      0.0000 
      8 C13        10.4430   -7.2920  -35.1470 C.2       1 OBI953      0.0000 
      9 N3          9.8230   -7.9920  -36.1140 N.pl3     1 OBI953      0.0000 
     10 C8         10.4640   -9.1940  -36.6510 C.3       1 OBI953      0.0000 
     11 O2         11.6540   -8.8300  -37.3140 O.3       1 OBI953      0.0000 
     12 C7         12.7540   -9.6210  -36.9070 C.3       1 OBI953      0.0000 
     13 N2         13.3660  -10.0520  -38.1550 N.pl3     1 OBI953      0.0000 
     14 C4         13.4610   -9.1820  -39.1620 C.2       1 OBI953      0.0000 
     15 C3         14.0300   -9.5940  -40.3600 C.2       1 OBI953      0.0000 
     16 C5         13.7970  -11.3170  -38.2520 C.2       1 OBI953      0.0000 
     17 C6         14.3720  -11.7850  -39.4200 C.2       1 OBI953      0.0000 
     18 C2         14.4890  -10.9060  -40.4850 C.2       1 OBI953      0.0000 
     19 C1         15.1100  -11.3660  -41.7370 C.2       1 OBI953      0.0000 
     20 N1         15.0290  -10.6310  -42.7480 N.2       1 OBI953      0.0000 
     21 O1         15.6000  -11.0230  -43.9530 O.2       1 OBI953      0.0000 
     22 H           8.3797   -4.1957  -33.6202 H         1 OBI953      0.0000 
     23 H           7.0836   -6.1816  -36.4677 H         1 OBI953      0.0000 
     24 H           8.1502   -8.1514  -37.3419 H         1 OBI953      0.0000 
     25 H          10.3128   -5.6337  -33.8609 H         1 OBI953      0.0000 
     26 H          11.3707   -7.5828  -34.7859 H         1 OBI953      0.0000 
     27 H           9.7634   -9.7001  -37.3361 H         1 OBI953      0.0000 
     28 H          10.6657   -9.8947  -35.8235 H         1 OBI953      0.0000 
     29 H          12.4334  -10.4848  -36.3368 H         1 OBI953      0.0000 
     30 H          13.4657   -9.0446  -36.3280 H         1 OBI953      0.0000 
     31 H          13.1235   -8.2101  -39.0769 H         1 OBI953      0.0000 
     32 H          14.1134   -8.9436  -41.1460 H         1 OBI953      0.0000 
     33 H          13.7062  -11.9741  -37.4451 H         1 OBI953      0.0000 
     34 H          14.6991  -12.7442  -39.4959 H         1 OBI953      0.0000 
     35 H          15.5760  -12.2848  -41.6787 H         1 OBI953      0.0000 
@<TRIPOS>BOND
     1    2    1 2    
     2    3    2 1    
     3    4    3 2    
     4   22    3 1    
     5    5    4 1    
     6    7    4 1    
     7    6    5 2    
     8   23    5 1    
     9    9    6 1    
    10   24    6 1    
    11    8    7 2    
    12   25    7 1    
    13    9    8 1    
    14   26    8 1    
    15   10    9 1    
    16   11   10 1    
    17   27   10 1    
    18   28   10 1    
    19   12   11 1    
    20   13   12 1    
    21   29   12 1    
    22   30   12 1    
    23   14   13 1    
    24   16   13 1    
    25   15   14 2    
    26   31   14 1    
    27   18   15 1    
    28   32   15 1    
    29   17   16 2    
    30   33   16 1    
    31   18   17 1    
    32   34   17 1    
    33   19   18 2    
    34   20   19 1    
    35   35   19 1    
    36   21   20 2    
@<TRIPOS>SUBSTRUCTURE
     1 OBI953      1 GROUP   
@<TRIPOS>SET

