#    Name: 2bz0_G2P_1_INTS_M
#    Modification time : Mon Mar 24 21:58:09 2014

@<TRIPOS>MOLECULE
2bz0_G2P_1_INTS_M
   75     0     9     0     0
SMALL
NO_CHARGES


@<TRIPOS>ATOM
      1 NZ         24.7255   -9.2800  -94.9100 N.4       2 LYC4        0.0000 
      2 NZ         23.5540   -9.0640  -95.9010 N.4       8 LYL4        0.0000 
      3 NZ         26.0270   -8.5100  -93.0370 N.4       5 LYP4        0.0000 
      4 NZ         23.7415   -7.5460  -96.8890 N.4       2 LYC4        0.0000 
      5 NZ         23.9290   -6.0280  -97.8770 N.4       5 LYP4        0.0000 
      6 N          24.7255   -9.2800  -94.9100 N.am      1 SEC2        0.0000 
      7 N          23.5540   -9.0640  -95.9010 N.am      7 SEL2        0.0000 
      8 N          25.8970   -9.4960  -93.9190 N.am      4 SEP2        0.0000 
      9 N          23.7925  -10.3280  -96.4580 N.am      1 SEC2        0.0000 
     10 N          24.0310  -11.5920  -97.0150 N.am      4 SEP2        0.0000 
     11 NZ         23.7245   -8.5545  -93.1495 N.4       2 LYC4        0.0000 
     12 NZ         22.5020   -9.1520  -93.8010 N.4       8 LYL4        0.0000 
     13 N          24.1995   -9.3240  -93.8600 N.am      1 SEC2        0.0000 
     14 N          22.5020   -9.1520  -93.8010 N.am      7 SEL2        0.0000 
     15 N          23.7245   -8.5545  -93.1495 N.am      1 SEC2        0.0000 
     16 N          24.9470   -7.9570  -92.4980 N.am      4 SEP2        0.0000 
     17 N          22.3935   -9.5070  -92.3110 N.am      1 SEC2        0.0000 
     18 N          22.2850   -9.8620  -90.8210 N.am      4 SEP2        0.0000 
     19 NZ         21.1325   -3.9175  -96.4375 N.4       2 LYC4        0.0000 
     20 NZ         20.9010   -5.3060  -96.3750 N.4       8 LYL4        0.0000 
     21 NZ         20.3620   -2.3530  -97.3530 N.4       5 LYP4        0.0000 
     22 NZ         22.4150   -5.6670  -97.1260 N.4       2 LYC4        0.0000 
     23 N          21.1325   -3.9175  -96.4375 N.am      1 SEC2        0.0000 
     24 N          20.9010   -5.3060  -96.3750 N.am      7 SEL2        0.0000 
     25 N          21.3640   -2.5290  -96.5000 N.am      4 SEP2        0.0000 
     26 N          20.2110   -4.3295  -96.9860 N.am      1 SEC2        0.0000 
     27 N          19.5210   -3.3530  -97.5970 N.am      4 SEP2        0.0000 
     28 N          22.4150   -5.6670  -97.1260 N.am      1 SEC2        0.0000 
     29 N          23.9290   -6.0280  -97.8770 N.am      4 SEP2        0.0000 
     30 NZ         23.3680   -5.9085  -96.3760 N.4       2 LYC4        0.0000 
     31 NZ         22.8070   -5.7890  -94.8750 N.4       8 LYL4        0.0000 
     32 N          23.3680   -5.9085  -96.3760 N.am      1 SEC2        0.0000 
     33 N          22.8070   -5.7890  -94.8750 N.am      7 SEL2        0.0000 
     34 NZ         16.6490   -5.3680  -93.6850 N.4       2 LYC4        0.0000 
     35 NZ         17.7860   -6.0710  -93.5960 N.4       8 LYL4        0.0000 
     36 NZ         15.1540   -3.5380  -94.3800 N.4       5 LYP4        0.0000 
     37 N          16.6490   -5.3680  -93.6850 N.am      1 SEC2        0.0000 
     38 N          17.7860   -6.0710  -93.5960 N.am      7 SEL2        0.0000 
     39 N          15.5120   -4.6650  -93.7740 N.am      4 SEP2        0.0000 
     40 NZ         17.4520   -3.6885  -95.2085 N.4       2 LYC4        0.0000 
     41 NZ         18.8330   -4.5780  -95.4160 N.4       8 LYL4        0.0000 
     42 NZ         19.1770   -3.9655  -96.5065 N.4       2 LYC4        0.0000 
     43 N          17.4520   -3.6885  -95.2085 N.am      1 SEC2        0.0000 
     44 N          18.8330   -4.5780  -95.4160 N.am      7 SEL2        0.0000 
     45 N          16.0710   -2.7990  -95.0010 N.am      4 SEP2        0.0000 
     46 N          19.1770   -3.9655  -96.5065 N.am      1 SEC2        0.0000 
     47 CA         18.3445   -1.3080  -94.5710 C.3       3 GLC5        0.0000 
     48 CA         19.5850   -1.8550  -93.2130 C.3       9 GLL5        0.0000 
     49 CA         17.1040   -0.7610  -95.9290 C.3       6 GLP5        0.0000 
     50 CA         19.6500   -2.2065  -89.7185 C.3       3 GLC5        0.0000 
     51 CA         18.9090   -0.8490  -91.1480 C.3       9 GLL5        0.0000 
     52 CA         20.3910   -3.5640  -88.2890 C.3       6 GLP5        0.0000 
     53 N          18.8600    1.8745  -91.3450 N.am      1 SEC2        0.0000 
     54 N          18.8680    0.4600  -90.5460 N.am      7 SEL2        0.0000 
     55 N          18.8520    3.2890  -92.1440 N.am      4 SEP2        0.0000 
     56 CA         17.3935   -0.9070  -93.9805 C.3       3 GLC5        0.0000 
     57 CA         17.6830   -1.0530  -92.0320 C.3       9 GLL5        0.0000 
     58 CA         12.7335   -2.6750  -92.1765 C.3       3 GLC5        0.0000 
     59 CA         14.4470   -2.3590  -90.8010 C.3       9 GLL5        0.0000 
     60 CA         11.0200   -2.9910  -93.5520 C.3       6 GLP5        0.0000 
     61 N          10.7750   -1.8960  -89.7610 N.am      1 SEC2        0.0000 
     62 N          12.1100   -2.9020  -90.2170 N.am      7 SEL2        0.0000 
     63 N           9.4400   -0.8900  -89.3050 N.am      4 SEP2        0.0000 
     64 N          10.9985   -3.4505  -90.9560 N.am      1 SEC2        0.0000 
     65 N           9.8870   -3.9990  -91.6950 N.am      4 SEP2        0.0000 
     66 CA         15.5055   -1.4885  -93.6215 C.3       3 GLC5        0.0000 
     67 CA         15.2070   -1.4470  -91.5590 C.3       9 GLL5        0.0000 
     68 CA         15.8040   -1.5300  -95.6840 C.3       6 GLP5        0.0000 
     69 CA         21.6766   -1.3430  -93.4891 C.3       3 GLC5        0.0000 
     70 CA         23.3530   -0.9000  -94.3560 C.3       6 GLP5        0.0000 
     71 CA         20.4665   -0.6273  -89.8080 C.3       3 GLC5        0.0000 
     72 CA         20.1290   -1.0120  -92.0700 C.3       9 GLL5        0.0000 
     73 CA         21.4140   -0.3240  -88.0070 C.3       6 GLP5        0.0000 
     74 CA         17.8930    0.9740  -92.0350 C.3       3 GLC5        0.0000 
     75 CA         17.4900    2.8990  -92.4800 C.3       6 GLP5        0.0000 
@<TRIPOS>BOND
@<TRIPOS>SUBSTRUCTURE
     1 SEC2        6 GROUP        1 X    SEC  0     ROOT SEC X 2
     2 LYC4        1 GROUP        1 X    LYC  0     **** LYC X 4
     3 GLC5       47 GROUP        1 X    GLC  0     **** GLC X 6
     4 SEP2        8 GROUP        1 Y    SEP  0     ROOT SEP Y 9
     5 LYP4        3 GROUP        1 Y    LYP  0     **** LYP Y 11
     6 GLP5       49 GROUP        1 Y    GLP  0     **** GLP Y 13
     7 SEL2        7 GROUP        1 Z    SEL  0     ROOT SEL Z 16
     8 LYL4        2 GROUP        1 Z    LYL  0     **** LYL Z 18
     9 GLL5       48 GROUP        1 Z    GLL  0     **** GLL Z 20
@<TRIPOS>SET

