#    Name: 2bz0_G2P_1_ligand
#    Modification time : Mon Mar 24 21:58:10 2014

@<TRIPOS>MOLECULE
2bz0_G2P_1_ligand
   46    48     1     0     0
SMALL
NO_CHARGES


@<TRIPOS>ATOM
      1 PG         22.2530   -9.1270  -95.2940 P.3       1 G2P1176     0.0000 
      2 O1G        21.5400  -10.3670  -95.6520 O.co2     1 G2P1176     0.0000 
      3 O2G        23.5540   -9.0640  -95.9010 O.co2     1 G2P1176     0.0000 
      4 O3G        22.5020   -9.1520  -93.8010 O.co2     1 G2P1176     0.0000 
      5 O3B        21.2730   -7.8510  -95.6280 O.3       1 G2P1176     0.0000 
      6 PB         21.5950   -6.2160  -95.4040 P.3       1 G2P1176     0.0000 
      7 O1B        20.9010   -5.3060  -96.3750 O.co2     1 G2P1176     0.0000 
      8 O2B        22.8070   -5.7890  -94.8750 O.co2     1 G2P1176     0.0000 
      9 C3A        20.5600   -6.1010  -93.9340 C.3       1 G2P1176     0.0000 
     10 PA         18.9390   -5.3280  -94.2220 P.3       1 G2P1176     0.0000 
     11 O1A        17.7860   -6.0710  -93.5960 O.co2     1 G2P1176     0.0000 
     12 O2A        18.8330   -4.5780  -95.4160 O.co2     1 G2P1176     0.0000 
     13 O5'        19.1350   -4.2500  -93.0440 O.3       1 G2P1176     0.0000 
     14 C5'        20.1580   -3.2650  -93.1360 C.3       1 G2P1176     0.0000 
     15 C4'        19.5850   -1.8550  -93.2130 C.3       1 G2P1176     0.0000 
     16 O4'        18.1260   -1.8510  -93.1390 O.3       1 G2P1176     0.0000 
     17 C3'        20.1290   -1.0120  -92.0700 C.3       1 G2P1176     0.0000 
     18 O3'        20.6800    0.2080  -92.6270 O.3       1 G2P1176     0.0000 
     19 C2'        18.9090   -0.8490  -91.1480 C.3       1 G2P1176     0.0000 
     20 O2'        18.8680    0.4600  -90.5460 O.3       1 G2P1176     0.0000 
     21 C1'        17.6830   -1.0530  -92.0320 C.3       1 G2P1176     0.0000 
     22 N9         16.5300   -1.7900  -91.3850 N.pl3     1 G2P1176     0.0000 
     23 C8         16.5010   -2.9050  -90.5270 C.2       1 G2P1176     0.0000 
     24 N7         15.3080   -3.2830  -90.1510 N.2       1 G2P1176     0.0000 
     25 C5         14.4470   -2.3590  -90.8010 C.2       1 G2P1176     0.0000 
     26 C6         12.9640   -2.2140  -90.8080 C.2       1 G2P1176     0.0000 
     27 O6         12.1100   -2.9020  -90.2170 O.2       1 G2P1176     0.0000 
     28 N1         12.5270   -1.1210  -91.6220 N.am      1 G2P1176     0.0000 
     29 C2         13.3680   -0.2510  -92.3540 C.2       1 G2P1176     0.0000 
     30 N2         12.8010    0.7340  -93.0770 N.pl3     1 G2P1176     0.0000 
     31 N3         14.7290   -0.3840  -92.3470 N.2       1 G2P1176     0.0000 
     32 C4         15.2070   -1.4470  -91.5590 C.2       1 G2P1176     0.0000 
     33 H          21.0625   -5.4888  -93.2511 H         1 G2P1176     0.0000 
     34 H          20.3691   -7.0784  -93.6150 H         1 G2P1176     0.0000 
     35 H          20.7898   -3.4173  -94.0312 H         1 G2P1176     0.0000 
     36 H          20.8373   -3.3015  -92.2636 H         1 G2P1176     0.0000 
     37 H          19.9127   -1.4008  -94.1415 H         1 G2P1176     0.0000 
     38 H          20.8588   -1.6076  -91.5638 H         1 G2P1176     0.0000 
     39 H          18.9310   -1.6329  -90.4235 H         1 G2P1176     0.0000 
     40 H          17.3468   -0.0969  -92.3893 H         1 G2P1176     0.0000 
     41 H          17.3647   -3.3442  -90.2520 H         1 G2P1176     0.0000 
     42 H          11.4830   -0.9548  -91.6766 H         1 G2P1176     0.0000 
     43 H          11.8018    0.7712  -93.0624 H         1 G2P1176     0.0000 
     44 H          13.4298    1.3403  -93.5639 H         1 G2P1176     0.0000 
     45 H          21.6716    0.1012  -92.5532 H         1 G2P1176     0.0000 
     46 H          19.5653    0.9891  -91.0296 H         1 G2P1176     0.0000 
@<TRIPOS>BOND
     1    2    1 ar   
     2    3    1 ar   
     3    4    1 ar   
     4    5    1 1    
     5    6    5 1    
     6    7    6 ar   
     7    8    6 ar   
     8    9    6 1    
     9   10    9 1    
    10   33    9 1    
    11   34    9 1    
    12   11   10 ar   
    13   12   10 ar   
    14   13   10 1    
    15   14   13 1    
    16   15   14 1    
    17   35   14 1    
    18   36   14 1    
    19   16   15 1    
    20   17   15 1    
    21   37   15 1    
    22   21   16 1    
    23   18   17 1    
    24   19   17 1    
    25   38   17 1    
    26   45   18 1    
    27   20   19 1    
    28   21   19 1    
    29   39   19 1    
    30   46   20 1    
    31   22   21 1    
    32   40   21 1    
    33   23   22 1    
    34   32   22 1    
    35   24   23 2    
    36   41   23 1    
    37   25   24 1    
    38   26   25 1    
    39   32   25 2    
    40   27   26 2    
    41   28   26 am   
    42   29   28 1    
    43   42   28 1    
    44   30   29 1    
    45   31   29 2    
    46   43   30 1    
    47   44   30 1    
    48   32   31 1    
@<TRIPOS>SUBSTRUCTURE
     1 G2P1176     1 GROUP   
@<TRIPOS>SET

