#    Name: 2X96_1_CAVITY_N1_6.mol2
#    Modification time : Mon Mar 10 22:41:34 2014

@<TRIPOS>MOLECULE
2X96_1_CAVITY_N1_6.mol2
  163     0     7     0     0
SMALL
NO_CHARGES


@<TRIPOS>ATOM
      1 CA         26.2774   -3.4117   26.2551 C.3       6 GLY6        0.0000 
      2 CA         24.5675   -2.6973   23.4593 C.3       6 GLY6        0.0000 
      3 CA         25.3538   -3.6076   24.3554 C.3       6 GLY6        0.0000 
      4 CA         26.1401   -4.5180   25.2515 C.3       6 GLY6        0.0000 
      5 OG         26.9265   -5.4284   26.1476 O.2       1 SER1        0.0000 
      6 OG         27.7128   -6.3387   27.0437 O.2       1 SER1        0.0000 
      7 N          24.4303   -3.8036   22.4558 N.2       2 ALA2        0.0000 
      8 CA         25.2166   -4.7140   23.3518 C.3       6 GLY6        0.0000 
      9 DU         26.0029   -5.6244   24.2479 H         7 CUB7        0.0000 
     10 DU         26.7892   -6.5347   25.1440 H         7 CUB7        0.0000 
     11 DU         27.5755   -7.4451   26.0401 H         7 CUB7        0.0000 
     12 NZ         28.3618   -8.3555   26.9362 N.2       4 LYS4        0.0000 
     13 N          22.7205   -3.0892   19.6600 N.2       2 ALA2        0.0000 
     14 N          24.2931   -4.9100   21.4522 N.2       2 ALA2        0.0000 
     15 DU         25.0794   -5.8203   22.3483 H         7 CUB7        0.0000 
     16 DU         28.2246   -9.4618   25.9326 H         7 CUB7        0.0000 
     17 OD1        29.0109  -10.3722   26.8287 O.3       3 ASP3        0.0000 
     18 N          23.3696   -5.1060   19.5525 N.2       2 ALA2        0.0000 
     19 N          24.1559   -6.0163   20.4486 N.2       2 ALA2        0.0000 
     20 DU         24.9422   -6.9267   21.3447 H         7 CUB7        0.0000 
     21 DU         28.0874  -10.5682   24.9290 H         7 CUB7        0.0000 
     22 CZ         22.4460   -5.3019   17.6529 C.ar      5 PHE5        0.0000 
     23 CZ         23.2323   -6.2123   18.5490 C.ar      5 PHE5        0.0000 
     24 DU         24.0186   -7.1227   19.4450 H         7 CUB7        0.0000 
     25 OG         23.0951   -7.3187   17.5454 O.2       1 SER1        0.0000 
     26 OG         23.8814   -8.2290   18.4415 O.2       1 SER1        0.0000 
     27 N          25.3257    0.8699   23.9072 N.2       2 ALA2        0.0000 
     28 CA         25.1885   -0.2365   22.9036 C.3       6 GLY6        0.0000 
     29 N          25.9748   -1.1468   23.7997 N.2       2 ALA2        0.0000 
     30 N          26.7611   -2.0572   24.6958 N.2       2 ALA2        0.0000 
     31 CZ         27.5474   -2.9676   25.5918 C.ar      5 PHE5        0.0000 
     32 O          25.0512   -1.3428   21.9000 O.2       2 ALA2        0.0000 
     33 CA         25.8375   -2.2532   22.7961 C.3       6 GLY6        0.0000 
     34 DU         26.6238   -3.1635   23.6922 H         7 CUB7        0.0000 
     35 DU         27.4101   -4.0739   24.5883 H         7 CUB7        0.0000 
     36 CA         28.1965   -4.9843   25.4843 C.3       6 GLY6        0.0000 
     37 OG         28.9828   -5.8946   26.3804 O.2       1 SER1        0.0000 
     38 CA         24.1277   -1.5388   20.0004 C.3       6 GLY6        0.0000 
     39 N          24.9140   -2.4492   20.8965 N.2       2 ALA2        0.0000 
     40 DU         25.7003   -3.3595   21.7925 H         7 CUB7        0.0000 
     41 DU         26.4866   -4.2699   22.6886 H         7 CUB7        0.0000 
     42 DU         27.2729   -5.1803   23.5847 H         7 CUB7        0.0000 
     43 CA         28.8455   -7.0010   25.3769 C.3       6 GLY6        0.0000 
     44 N          29.6318   -7.9114   26.2729 N.2       2 ALA2        0.0000 
     45 O          23.9905   -2.6451   18.9968 O.2       2 ALA2        0.0000 
     46 N          24.7768   -3.5555   19.8929 N.2       2 ALA2        0.0000 
     47 DU         25.5631   -4.4659   20.7890 H         7 CUB7        0.0000 
     48 DU         27.1357   -6.2866   22.5811 H         7 CUB7        0.0000 
     49 N          29.4946   -9.0177   25.2694 N.2       2 ALA2        0.0000 
     50 N          30.2809   -9.9281   26.1654 N.2       2 ALA2        0.0000 
     51 CZ         23.8533   -3.7515   17.9932 C.ar      5 PHE5        0.0000 
     52 DU         24.6396   -4.6619   18.8893 H         7 CUB7        0.0000 
     53 DU         25.4259   -5.5722   19.7854 H         7 CUB7        0.0000 
     54 DU         29.3574  -10.1241   24.2658 H         7 CUB7        0.0000 
     55 CZ         23.7160   -4.8578   16.9896 C.ar      5 PHE5        0.0000 
     56 DU         24.5023   -5.7682   17.8857 H         7 CUB7        0.0000 
     57 OG         23.5788   -5.9642   15.9861 O.2       1 SER1        0.0000 
     58 DU         24.3651   -6.8746   16.8822 H         7 CUB7        0.0000 
     59 N          27.3820    0.4036   24.1400 N.2       2 ALA2        0.0000 
     60 CA         28.1683   -0.5067   25.0361 C.3       6 GLY6        0.0000 
     61 OD1        26.4585    0.2076   22.2404 O.3       3 ASP3        0.0000 
     62 OG         27.2448   -0.7027   23.1364 O.2       1 SER1        0.0000 
     63 DU         28.0311   -1.6131   24.0325 H         7 CUB7        0.0000 
     64 CZ         28.8174   -2.5235   24.9286 C.ar      5 PHE5        0.0000 
     65 OD1        26.3212   -0.8987   21.2368 O.3       3 ASP3        0.0000 
     66 DU         27.1075   -1.8091   22.1329 H         7 CUB7        0.0000 
     67 DU         27.8938   -2.7194   23.0290 H         7 CUB7        0.0000 
     68 CA         28.6801   -3.6298   23.9250 C.3       6 GLY6        0.0000 
     69 N          25.3977   -1.0947   19.3371 N.2       2 ALA2        0.0000 
     70 NZ         26.1840   -2.0051   20.2332 N.2       4 LYS4        0.0000 
     71 O          26.9703   -2.9154   21.1293 O.2       2 ALA2        0.0000 
     72 O          27.7566   -3.8258   22.0254 O.2       2 ALA2        0.0000 
     73 CA         28.5429   -4.7362   22.9215 C.3       6 GLY6        0.0000 
     74 O          25.2605   -2.2010   18.3336 O.2       2 ALA2        0.0000 
     75 DU         26.0468   -3.1114   19.2296 H         7 CUB7        0.0000 
     76 O          26.8331   -4.0218   20.1257 O.2       2 ALA2        0.0000 
     77 O          27.6194   -4.9321   21.0218 O.2       2 ALA2        0.0000 
     78 N          30.7646   -8.5736   24.6061 N.2       2 ALA2        0.0000 
     79 O          25.1233   -3.3074   17.3300 O.2       2 ALA2        0.0000 
     80 DU         25.9096   -4.2178   18.2261 H         7 CUB7        0.0000 
     81 O          26.6959   -5.1281   19.1221 O.2       2 ALA2        0.0000 
     82 O          27.4822   -6.0385   20.0182 O.2       2 ALA2        0.0000 
     83 N          30.6274   -9.6800   23.6026 N.2       2 ALA2        0.0000 
     84 CA         24.9860   -4.4137   16.3264 C.3       6 GLY6        0.0000 
     85 DU         25.7723   -5.3241   17.2225 H         7 CUB7        0.0000 
     86 DU         26.5586   -6.2345   18.1186 H         7 CUB7        0.0000 
     87 OG         24.8488   -5.5201   15.3228 O.2       1 SER1        0.0000 
     88 OG         25.6351   -6.4305   16.2189 O.2       1 SER1        0.0000 
     89 OG         27.7285    0.6517   21.5771 O.2       1 SER1        0.0000 
     90 OG         29.3011   -1.1690   23.3693 O.2       1 SER1        0.0000 
     91 NZ         27.5912   -0.4546   20.5736 N.2       4 LYS4        0.0000 
     92 OG         28.3775   -1.3650   21.4696 O.2       1 SER1        0.0000 
     93 CA         29.1638   -2.2753   22.3657 C.3       6 GLY6        0.0000 
     94 O          28.2403   -2.4713   20.4661 O.2       2 ALA2        0.0000 
     95 O          29.0266   -3.3817   21.3621 O.2       2 ALA2        0.0000 
     96 NZ         26.5305   -1.7569   17.6703 N.2       4 LYS4        0.0000 
     97 O          27.3168   -2.6673   18.5664 O.2       2 ALA2        0.0000 
     98 CA         26.3933   -2.8633   16.6668 C.3       6 GLY6        0.0000 
     99 O          27.1796   -3.7737   17.5628 O.2       2 ALA2        0.0000 
    100 O          27.9659   -4.6840   18.4589 O.2       2 ALA2        0.0000 
    101 CA         26.2560   -3.9696   15.6632 C.3       6 GLY6        0.0000 
    102 DU         27.0423   -4.8800   16.5593 H         7 CUB7        0.0000 
    103 O          27.8286   -5.7904   17.4553 O.2       2 ALA2        0.0000 
    104 OG         26.1188   -5.0760   14.6596 O.2       1 SER1        0.0000 
    105 OG         26.9051   -5.9864   15.5557 O.2       1 SER1        0.0000 
    106 DU         27.6914   -6.8967   16.4518 H         7 CUB7        0.0000 
    107 CA         27.6633   -2.4192   16.0035 C.3       6 GLY6        0.0000 
    108 O          28.4496   -3.3296   16.8996 O.2       2 ALA2        0.0000 
    109 CA         27.5260   -3.5255   14.9999 C.3       6 GLY6        0.0000 
    110 O          28.3123   -4.4359   15.8960 O.2       2 ALA2        0.0000 
    111 O          29.0986   -5.3463   16.7921 O.2       2 ALA2        0.0000 
    112 OG         27.3888   -4.6319   13.9964 O.2       1 SER1        0.0000 
    113 OG         28.1751   -5.5423   14.8925 O.2       1 SER1        0.0000 
    114 O          28.9614   -6.4526   15.7885 O.2       2 ALA2        0.0000 
    115 CA         29.5823   -3.9918   15.2328 C.3       6 GLY6        0.0000 
    116 CA         24.0400   -6.5647   30.0369 C.3       6 GLY6        0.0000 
    117 CZ         23.9028   -7.6710   29.0334 C.ar      5 PHE5        0.0000 
    118 CZ         23.7655   -8.7774   28.0298 C.ar      5 PHE5        0.0000 
    119 OG         24.5237   -5.2102   28.4776 O.2       1 SER1        0.0000 
    120 NZ         25.3100   -6.1206   29.3737 N.2       4 LYS4        0.0000 
    121 CZ         24.3865   -6.3166   27.4740 C.ar      5 PHE5        0.0000 
    122 NZ         25.1728   -7.2269   28.3701 N.2       4 LYS4        0.0000 
    123 NZ         25.9591   -8.1373   29.2662 N.2       4 LYS4        0.0000 
    124 CZ         24.2492   -7.4229   26.4705 C.ar      5 PHE5        0.0000 
    125 CZ         25.0355   -8.3333   27.3666 C.ar      5 PHE5        0.0000 
    126 OD1        25.8218   -9.2437   28.2626 O.3       3 ASP3        0.0000 
    127 CZ         22.5394   -6.7085   23.6747 C.ar      5 PHE5        0.0000 
    128 CZ         23.3257   -7.6189   24.5708 C.ar      5 PHE5        0.0000 
    129 CZ         24.1120   -8.5293   25.4669 C.ar      5 PHE5        0.0000 
    130 CZ         24.8983   -9.4396   26.3630 C.ar      5 PHE5        0.0000 
    131 CA         21.6159   -6.9045   21.7751 C.3       6 GLY6        0.0000 
    132 CZ         22.4022   -7.8149   22.6712 C.ar      5 PHE5        0.0000 
    133 CZ         23.1885   -8.7253   23.5672 C.ar      5 PHE5        0.0000 
    134 CZ         23.9748   -9.6356   24.4633 C.ar      5 PHE5        0.0000 
    135 O          21.4786   -8.0109   20.7715 O.2       2 ALA2        0.0000 
    136 CA         22.2650   -8.9212   21.6676 C.3       6 GLY6        0.0000 
    137 CA         25.0074   -3.8558   26.9183 C.3       6 GLY6        0.0000 
    138 OG         25.7937   -4.7661   27.8144 O.2       1 SER1        0.0000 
    139 CA         24.8702   -4.9621   25.9147 C.3       6 GLY6        0.0000 
    140 OG         25.6565   -5.8725   26.8108 O.2       1 SER1        0.0000 
    141 NZ         26.4428   -6.7828   27.7069 N.2       4 LYS4        0.0000 
    142 CA         23.9466   -5.1581   24.0151 C.3       6 GLY6        0.0000 
    143 CZ         24.7329   -6.0685   24.9112 C.ar      5 PHE5        0.0000 
    144 DU         25.5192   -6.9788   25.8072 H         7 CUB7        0.0000 
    145 DU         26.3055   -7.8892   26.7033 H         7 CUB7        0.0000 
    146 NZ         27.0918   -8.7996   27.5994 N.2       4 LYS4        0.0000 
    147 N          23.8094   -6.2644   23.0115 N.2       2 ALA2        0.0000 
    148 DU         24.5957   -7.1748   23.9076 H         7 CUB7        0.0000 
    149 DU         25.3820   -8.0852   24.8037 H         7 CUB7        0.0000 
    150 DU         26.1683   -8.9955   25.6997 H         7 CUB7        0.0000 
    151 OD1        26.9546   -9.9059   26.5958 O.3       3 ASP3        0.0000 
    152 N          22.0996   -5.5501   20.2158 N.2       2 ALA2        0.0000 
    153 N          22.8859   -6.4604   21.1119 N.2       2 ALA2        0.0000 
    154 DU         23.6722   -7.3708   22.0079 H         7 CUB7        0.0000 
    155 DU         24.4585   -8.2812   22.9040 H         7 CUB7        0.0000 
    156 DU         26.0311  -10.1019   24.6962 H         7 CUB7        0.0000 
    157 OD1        26.8174  -11.0123   25.5923 O.3       3 ASP3        0.0000 
    158 O          21.9623   -6.6564   19.2122 O.2       2 ALA2        0.0000 
    159 DU         22.7486   -7.5668   20.1083 H         7 CUB7        0.0000 
    160 DU         23.5350   -8.4771   21.0044 H         7 CUB7        0.0000 
    161 OG         21.8251   -7.7628   18.2086 O.2       1 SER1        0.0000 
    162 OG         22.6114   -8.6731   19.1047 O.2       1 SER1        0.0000 
    163 OG         23.3977   -9.5835   20.0008 O.2       1 SER1        0.0000 
@<TRIPOS>BOND
@<TRIPOS>SUBSTRUCTURE
     1 SER1        5 GROUP   
     2 ALA2        7 GROUP   
     3 ASP3       17 GROUP   
     4 LYS4       12 GROUP   
     5 PHE5       22 GROUP   
     6 GLY6        1 GROUP   
     7 CUB7        9 GROUP   
@<TRIPOS>SET

