#    Name: 2x96_RX3_1_INTS_M
#    Modification time : Tue Mar 25 05:32:53 2014

@<TRIPOS>MOLECULE
2x96_RX3_1_INTS_M
   84     0    15     0     0
SMALL
NO_CHARGES


@<TRIPOS>ATOM
      1 NZ         33.7115    4.3835   26.5810 N.4       3 LYC4        0.0000 
      2 NZ         33.1000    4.5660   25.4020 N.4      13 LYL4        0.0000 
      3 NZ         34.3230    4.2010   27.7600 N.4       8 LYP4        0.0000 
      4 N          33.7115    4.3835   26.5810 N.am      2 SEC2        0.0000 
      5 N          33.1000    4.5660   25.4020 N.am     12 SEL2        0.0000 
      6 N          34.3230    4.2010   27.7600 N.am      7 SEP2        0.0000 
      7 N          34.0710    4.5905   24.5850 N.am      2 SEC2        0.0000 
      8 N          35.0420    4.6150   23.7680 N.am      7 SEP2        0.0000 
      9 NZ         32.6820    4.5735   26.8890 N.4       3 LYC4        0.0000 
     10 NZ         31.0410    4.9460   26.0180 N.4      13 LYL4        0.0000 
     11 CA         31.0725    3.7540   22.0310 C.3       5 GLC5        0.0000 
     12 CA         31.4650    4.5930   23.6750 C.3      15 GLL5        0.0000 
     13 CA         30.6800    2.9150   20.3870 C.3      10 GLP5        0.0000 
     14 CA         33.4980    6.3050   21.9760 C.3       5 GLC5        0.0000 
     15 CA         31.9830    5.7620   22.8240 C.3      15 GLL5        0.0000 
     16 CA         35.0130    6.8480   21.1280 C.3      10 GLP5        0.0000 
     17 CA         31.7930    4.7240   21.2550 C.3       5 GLC5        0.0000 
     18 CA         31.6030    3.6860   19.6860 C.3      10 GLP5        0.0000 
     19 CA         26.9700    7.3425   20.5110 C.3       5 GLC5        0.0000 
     20 CA         28.8620    8.4810   20.7860 C.3      15 GLL5        0.0000 
     21 CA         25.0780    6.2040   20.2360 C.3      10 GLP5        0.0000 
     22 O          31.4140   10.4875   24.5575 O.2       1 ALC1        0.0000 
     23 O          31.0240    9.0340   24.2800 O.2      11 ALL1        0.0000 
     24 O          31.8040   11.9410   24.8350 O.2       6 ALP1        0.0000 
     25 N          29.3180    2.1830   25.8400 N.am      2 SEC2        0.0000 
     26 N          29.6300    2.5640   24.5470 N.am     12 SEL2        0.0000 
     27 N          29.0060    1.8020   27.1330 N.am      7 SEP2        0.0000 
     28 CA         29.2280    3.3685   22.0355 C.3       5 GLC5        0.0000 
     29 CA         27.7760    3.8220   23.6840 C.3      15 GLL5        0.0000 
     30 CA         24.8110    5.8235   25.5755 C.3       5 GLC5        0.0000 
     31 CA         26.0070    4.3030   25.3310 C.3      15 GLL5        0.0000 
     32 CA         23.6150    7.3440   25.8200 C.3      10 GLP5        0.0000 
     33 Zn         27.0865    1.9665   20.8230 Zn        4 ZIC7        0.0000 
     34 Zn         27.5900    1.6350   21.6000 Zn       14 ZIL7        0.0000 
     35 Zn         26.5830    2.2980   20.0460 Zn        9 ZIP7        0.0000 
     36 N          28.8985    1.3365   21.6925 N.am      2 SEC2        0.0000 
     37 N          27.5900    1.6350   21.6000 N.am     12 SEL2        0.0000 
     38 N          30.2070    1.0380   21.7850 N.am      7 SEP2        0.0000 
     39 Zn         25.8890    2.0115   21.1770 Zn        4 ZIC7        0.0000 
     40 Zn         25.1950    1.7250   22.3080 Zn       14 ZIL7        0.0000 
     41 N          24.1805    2.4140   22.4750 N.am      2 SEC2        0.0000 
     42 N          25.1950    1.7250   22.3080 N.am     12 SEL2        0.0000 
     43 N          23.1660    3.1030   22.6420 N.am      7 SEP2        0.0000 
     44 CA         27.9340    0.0595   25.9825 C.3       5 GLC5        0.0000 
     45 CA         27.7150   -0.8050   24.2080 C.3      15 GLL5        0.0000 
     46 CA         28.1530    0.9240   27.7570 C.3      10 GLP5        0.0000 
     47 CA         30.0140   -3.3315   22.8540 C.3       5 GLC5        0.0000 
     48 CA         28.2430   -3.1780   23.3700 C.3      15 GLL5        0.0000 
     49 CA         31.7850   -3.4850   22.3380 C.3      10 GLP5        0.0000 
     50 O          27.5595   -1.1340   21.3800 O.2       1 ALC1        0.0000 
     51 O          26.1920   -1.1710   22.3110 O.2      11 ALL1        0.0000 
     52 O          28.9270   -1.0970   20.4490 O.2       6 ALP1        0.0000 
     53 N          22.8580   -1.6130   22.9245 N.am      2 SEC2        0.0000 
     54 N          24.0670   -1.8910   22.5870 N.am     12 SEL2        0.0000 
     55 N          21.6490   -1.3350   23.2620 N.am      7 SEP2        0.0000 
     56 CA         22.2610   -1.6620   20.5185 C.3       5 GLC5        0.0000 
     57 CA         23.9810   -2.6860   19.8400 C.3      15 GLL5        0.0000 
     58 CA         20.5410   -0.6380   21.1970 C.3      10 GLP5        0.0000 
     59 CA         23.5040   -0.8520   19.0845 C.3       5 GLC5        0.0000 
     60 CA         23.0270    0.9820   18.3290 C.3      10 GLP5        0.0000 
     61 CA         22.2190   -3.0720   18.8990 C.3       5 GLC5        0.0000 
     62 CA         20.4570   -3.4580   17.9580 C.3      10 GLP5        0.0000 
     63 CA         24.1625   -0.8870   18.0020 C.3       5 GLC5        0.0000 
     64 CA         25.2980   -2.7560   17.6750 C.3      15 GLL5        0.0000 
     65 CA         24.7080   -3.5260   14.8815 C.3       5 GLC5        0.0000 
     66 CA         25.1680   -4.6860   16.1920 C.3      15 GLL5        0.0000 
     67 CA         24.2480   -2.3660   13.5710 C.3      10 GLP5        0.0000 
     68 CA         33.6505    4.3498   23.1958 C.3       5 GLC5        0.0000 
     69 CA         35.5770    3.5220   23.1420 C.3      10 GLP5        0.0000 
     70 CA         24.6670    3.2458   26.3667 C.3       5 GLC5        0.0000 
     71 CA         23.2880    2.9470   27.4800 C.3      10 GLP5        0.0000 
     72 CA         27.3158    1.8188   26.1502 C.3       5 GLC5        0.0000 
     73 CA         26.0850    2.7860   25.1760 C.3      15 GLL5        0.0000 
     74 CA         26.1929    4.2210   22.3731 C.3       5 GLC5        0.0000 
     75 CA         26.8720    2.6410   23.9110 C.3      15 GLL5        0.0000 
     76 CA         25.1990    4.9430   20.7130 C.3      10 GLP5        0.0000 
     77 CA         25.0765   -2.9892   25.6247 C.3       5 GLC5        0.0000 
     78 CA         26.9190   -2.9030   25.3790 C.3      15 GLL5        0.0000 
     79 CA         23.2850   -2.3770   25.8110 C.3      10 GLP5        0.0000 
     80 CA         29.6130   -4.8527   24.2082 C.3       5 GLC5        0.0000 
     81 CA         27.4310   -5.1370   24.5500 C.3      15 GLL5        0.0000 
     82 CA         31.4390   -4.8500   24.4020 C.3      10 GLP5        0.0000 
     83 CA         25.1073   -2.1673   15.6297 C.3       5 GLC5        0.0000 
     84 CA         24.7250   -1.2500   14.1730 C.3      10 GLP5        0.0000 
@<TRIPOS>BOND
@<TRIPOS>SUBSTRUCTURE
     1 ALC1       22 GROUP        1 X    ALC  0     ROOT ALC X 1
     2 SEC2        4 GROUP        1 X    SEC  0     **** SEC X 2
     3 LYC4        1 GROUP        1 X    LYC  0     **** LYC X 4
     4 ZIC7       33 GROUP        1 X    ZIC  0     **** ZIC X 5
     5 GLC5       11 GROUP        1 X    GLC  0     **** GLC X 6
     6 ALP1       24 GROUP        1 Y    ALP  0     ROOT ALP Y 8
     7 SEP2        6 GROUP        1 Y    SEP  0     **** SEP Y 9
     8 LYP4        3 GROUP        1 Y    LYP  0     **** LYP Y 11
     9 ZIP7       35 GROUP        1 Y    ZIP  0     **** ZIP Y 12
    10 GLP5       13 GROUP        1 Y    GLP  0     **** GLP Y 13
    11 ALL1       23 GROUP        1 Z    ALL  0     ROOT ALL Z 15
    12 SEL2        5 GROUP        1 Z    SEL  0     **** SEL Z 16
    13 LYL4        2 GROUP        1 Z    LYL  0     **** LYL Z 18
    14 ZIL7       34 GROUP        1 Z    ZIL  0     **** ZIL Z 19
    15 GLL5       12 GROUP        1 Z    GLL  0     **** GLL Z 20
@<TRIPOS>SET

