#    Name: 2x96_RX3_1_ligand
#    Modification time : Tue Mar 25 05:32:53 2014

@<TRIPOS>MOLECULE
2x96_RX3_1_ligand
   78    82     1     0     0
SMALL
NO_CHARGES


@<TRIPOS>ATOM
      1 OXT        33.1000    4.5660   25.4020 O.co2     1 RX31615     0.0000 
      2 C24        31.8930    4.7100   25.1250 C.2       1 RX31615     0.0000 
      3 O6         31.0410    4.9460   26.0180 O.co2     1 RX31615     0.0000 
      4 C23        31.4650    4.5930   23.6750 C.3       1 RX31615     0.0000 
      5 C25        31.9830    5.7620   22.8240 C.3       1 RX31615     0.0000 
      6 C26        31.4150    7.1170   23.1830 C.2       1 RX31615     0.0000 
      7 C28        30.4650    7.8450   22.4780 C.ar      1 RX31615     0.0000 
      8 C30        29.7860    7.5530   21.2820 C.ar      1 RX31615     0.0000 
      9 C32        28.8620    8.4810   20.7860 C.ar      1 RX31615     0.0000 
     10 C33        28.6190    9.6810   21.4700 C.ar      1 RX31615     0.0000 
     11 C31        29.2960    9.9670   22.6680 C.ar      1 RX31615     0.0000 
     12 C29        30.2310    9.0380   23.1770 C.ar      1 RX31615     0.0000 
     13 N3         31.0240    9.0340   24.2800 N.pl3     1 RX31615     0.0000 
     14 C27        31.7430    7.8820   24.2990 C.2       1 RX31615     0.0000 
     15 N2         30.0120    4.5700   23.5210 N.am      1 RX31615     0.0000 
     16 C19        29.2330    3.5810   23.9640 C.2       1 RX31615     0.0000 
     17 O5         29.6300    2.5640   24.5470 O.2       1 RX31615     0.0000 
     18 C18        27.7760    3.8220   23.6840 C.3       1 RX31615     0.0000 
     19 C20        27.2270    4.8920   24.6270 C.3       1 RX31615     0.0000 
     20 C21        26.0070    4.3030   25.3310 C.3       1 RX31615     0.0000 
     21 C22        26.0850    2.7860   25.1760 C.3       1 RX31615     0.0000 
     22 C17        26.8720    2.6410   23.9110 C.3       1 RX31615     0.0000 
     23 P1         26.5990    1.4260   22.7290 P.3       1 RX31615     0.0000 
     24 O3         27.5900    1.6350   21.6000 O.co2     1 RX31615     0.0000 
     25 O4         25.1950    1.7250   22.3080 O.co2     1 RX31615     0.0000 
     26 C9         26.8470   -0.2640   23.0800 C.3       1 RX31615     0.0000 
     27 C10        27.7150   -0.8050   24.2080 C.3       1 RX31615     0.0000 
     28 C11        27.6380   -2.3260   24.3210 C.ar      1 RX31615     0.0000 
     29 C13        26.9190   -2.9030   25.3790 C.ar      1 RX31615     0.0000 
     30 C15        26.8170   -4.3000   25.4980 C.ar      1 RX31615     0.0000 
     31 C16        27.4310   -5.1370   24.5500 C.ar      1 RX31615     0.0000 
     32 C14        28.1430   -4.5740   23.4790 C.ar      1 RX31615     0.0000 
     33 C12        28.2430   -3.1780   23.3700 C.ar      1 RX31615     0.0000 
     34 N1         26.1920   -1.1710   22.3110 N.am      1 RX31615     0.0000 
     35 C1         25.0930   -1.8240   21.9450 C.2       1 RX31615     0.0000 
     36 O2         24.0670   -1.8910   22.5870 O.2       1 RX31615     0.0000 
     37 O1         25.1250   -2.5030   20.6670 O.3       1 RX31615     0.0000 
     38 C2         23.9810   -2.6860   19.8400 C.3       1 RX31615     0.0000 
     39 C3         24.4070   -3.3810   18.5600 C.ar      1 RX31615     0.0000 
     40 C4         25.2980   -2.7560   17.6750 C.ar      1 RX31615     0.0000 
     41 C5         23.8970   -4.6560   18.2540 C.ar      1 RX31615     0.0000 
     42 C7         24.2790   -5.3100   17.0720 C.ar      1 RX31615     0.0000 
     43 C8         25.1680   -4.6860   16.1920 C.ar      1 RX31615     0.0000 
     44 C6         25.6810   -3.4130   16.4980 C.ar      1 RX31615     0.0000 
     45 H          31.8865    3.6815   23.2522 H         1 RX31615     0.0000 
     46 H          31.7628    5.5434   21.7602 H         1 RX31615     0.0000 
     47 H          33.0873    5.7939   22.9104 H         1 RX31615     0.0000 
     48 H          29.9644    6.6833   20.7882 H         1 RX31615     0.0000 
     49 H          28.3566    8.2817   19.9125 H         1 RX31615     0.0000 
     50 H          27.9424   10.3558   21.0942 H         1 RX31615     0.0000 
     51 H          29.1164   10.8359   23.1677 H         1 RX31615     0.0000 
     52 H          31.0689    9.7350   24.9415 H         1 RX31615     0.0000 
     53 H          32.3815    7.6187   24.9678 H         1 RX31615     0.0000 
     54 H          29.6046    5.4064   23.0243 H         1 RX31615     0.0000 
     55 H          27.6328    4.1855   22.6800 H         1 RX31615     0.0000 
     56 H          26.9329    5.7557   24.0583 H         1 RX31615     0.0000 
     57 H          27.9753    5.1472   25.3556 H         1 RX31615     0.0000 
     58 H          25.1110    4.6671   24.8641 H         1 RX31615     0.0000 
     59 H          26.0335    4.5603   26.3733 H         1 RX31615     0.0000 
     60 H          25.1104    2.3936   25.0567 H         1 RX31615     0.0000 
     61 H          26.6139    2.3751   25.9942 H         1 RX31615     0.0000 
     62 H          27.8733    1.9005   24.5228 H         1 RX31615     0.0000 
     63 H          27.9685   -0.2469   22.1805 H         1 RX31615     0.0000 
     64 H          27.3934   -0.3594   25.1561 H         1 RX31615     0.0000 
     65 H          28.7565   -0.5118   24.0341 H         1 RX31615     0.0000 
     66 H          26.4620   -2.2991   26.0744 H         1 RX31615     0.0000 
     67 H          26.2937   -4.7094   26.2779 H         1 RX31615     0.0000 
     68 H          27.3588   -6.1526   24.6410 H         1 RX31615     0.0000 
     69 H          28.5855   -5.1764   22.7834 H         1 RX31615     0.0000 
     70 H          28.7656   -2.7638   22.5845 H         1 RX31615     0.0000 
     71 H          27.1044   -1.6312   21.5486 H         1 RX31615     0.0000 
     72 H          23.5180   -1.7324   19.5693 H         1 RX31615     0.0000 
     73 H          23.2228   -3.3072   20.3261 H         1 RX31615     0.0000 
     74 H          25.6655   -1.8265   17.8880 H         1 RX31615     0.0000 
     75 H          23.2413   -5.1100   18.9002 H         1 RX31615     0.0000 
     76 H          23.9073   -6.2383   16.8582 H         1 RX31615     0.0000 
     77 H          25.4477   -5.1525   15.3243 H         1 RX31615     0.0000 
     78 H          26.3415   -2.9630   15.8524 H         1 RX31615     0.0000 
@<TRIPOS>BOND
     1    2    1 ar   
     2    3    2 ar   
     3    4    2 1    
     4    5    4 1    
     5   15    4 1    
     6   45    4 1    
     7    6    5 1    
     8   46    5 1    
     9   47    5 1    
    10    7    6 1    
    11   14    6 2    
    12    8    7 ar   
    13   12    7 ar   
    14    9    8 ar   
    15   48    8 1    
    16   10    9 ar   
    17   49    9 1    
    18   11   10 ar   
    19   50   10 1    
    20   12   11 ar   
    21   51   11 1    
    22   13   12 1    
    23   14   13 1    
    24   52   13 1    
    25   53   14 1    
    26   16   15 am   
    27   54   15 1    
    28   17   16 2    
    29   18   16 1    
    30   19   18 1    
    31   22   18 1    
    32   55   18 1    
    33   20   19 1    
    34   56   19 1    
    35   57   19 1    
    36   21   20 1    
    37   58   20 1    
    38   59   20 1    
    39   22   21 1    
    40   60   21 1    
    41   61   21 1    
    42   23   22 1    
    43   62   22 1    
    44   24   23 ar   
    45   25   23 ar   
    46   26   23 1    
    47   27   26 1    
    48   34   26 1    
    49   63   26 1    
    50   28   27 1    
    51   64   27 1    
    52   65   27 1    
    53   29   28 ar   
    54   33   28 ar   
    55   30   29 ar   
    56   66   29 1    
    57   31   30 ar   
    58   67   30 1    
    59   32   31 ar   
    60   68   31 1    
    61   33   32 ar   
    62   69   32 1    
    63   70   33 1    
    64   35   34 am   
    65   71   34 1    
    66   36   35 2    
    67   37   35 1    
    68   38   37 1    
    69   39   38 1    
    70   72   38 1    
    71   73   38 1    
    72   40   39 ar   
    73   41   39 ar   
    74   44   40 ar   
    75   74   40 1    
    76   42   41 ar   
    77   75   41 1    
    78   43   42 ar   
    79   76   42 1    
    80   44   43 ar   
    81   77   43 1    
    82   78   44 1    
@<TRIPOS>SUBSTRUCTURE
     1 RX31615     1 GROUP   
@<TRIPOS>SET

