#    Name: 1m67_BOA_1_INTS_M
#    Modification time : Tue Mar 25 11:24:52 2014

@<TRIPOS>MOLECULE
1m67_BOA_1_INTS_M
   16     0     3     0     0
SMALL
NO_CHARGES


@<TRIPOS>ATOM
      1 CA         35.4020   56.6590   29.5380 C.3       1 GLC5        0.0000 
      2 CA         33.8920   55.9380   30.9070 C.3       3 GLL5        0.0000 
      3 CA         36.9120   57.3800   28.1690 C.3       2 GLP5        0.0000 
      4 CA         34.8810   53.7325   31.9270 C.3       1 GLC5        0.0000 
      5 CA         35.9390   54.8620   30.5870 C.3       3 GLL5        0.0000 
      6 CA         33.8230   52.6030   33.2670 C.3       2 GLP5        0.0000 
      7 CA         38.6460   53.3105   31.8425 C.3       1 GLC5        0.0000 
      8 CA         37.7700   54.8530   30.9930 C.3       3 GLL5        0.0000 
      9 CA         39.5220   51.7680   32.6920 C.3       2 GLP5        0.0000 
     10 CA         38.9625   54.9550   29.4585 C.3       1 GLC5        0.0000 
     11 CA         40.1550   55.0570   27.9240 C.3       2 GLP5        0.0000 
     12 CA         39.3705   56.1665   31.5215 C.3       1 GLC5        0.0000 
     13 CA         40.9710   57.4800   32.0500 C.3       2 GLP5        0.0000 
     14 CA         36.8833   56.1188   29.4795 C.3       1 GLC5        0.0000 
     15 CA         33.8471   53.6310   31.6155 C.3       1 GLC5        0.0000 
     16 CA         34.1570   53.8870   29.4630 C.3       3 GLL5        0.0000 
@<TRIPOS>BOND
@<TRIPOS>SUBSTRUCTURE
     1 GLC5        1 GROUP        1 X    GLC  0     ROOT GLC X 6
     2 GLP5        3 GROUP        1 Y    GLP  0     ROOT GLP Y 13
     3 GLL5        2 GROUP        1 Z    GLL  0     ROOT GLL Z 20
@<TRIPOS>SET

