#    Name: 1m67_BOA_1_ligand
#    Modification time : Tue Mar 25 11:24:52 2014

@<TRIPOS>MOLECULE
1m67_BOA_1_ligand
   14    15     1     0     0
SMALL
NO_CHARGES


@<TRIPOS>ATOM
      1 O6         33.2130   56.8540   31.4240 O.3       1 BOA402      0.0000 
      2 C6         33.8920   55.9380   30.9070 C.ar      1 BOA402      0.0000 
      3 N1         35.2010   55.8360   31.1340 N.ar      1 BOA402      0.0000 
      4 C2         35.9390   54.8620   30.5870 C.ar      1 BOA402      0.0000 
      5 BR         37.7700   54.8530   30.9930 Br        1 BOA402      0.0000 
      6 C5         33.2790   54.9240   30.0230 C.ar      1 BOA402      0.0000 
      7 C4         34.1570   53.8870   29.4630 C.ar      1 BOA402      0.0000 
      8 N3         35.4530   53.9120   29.7750 N.ar      1 BOA402      0.0000 
      9 N7         32.0520   54.6780   29.5620 N.pl3     1 BOA402      0.0000 
     10 C8         32.1100   53.5760   28.7690 C.2       1 BOA402      0.0000 
     11 N9         33.3800   53.0990   28.7080 N.2       1 BOA402      0.0000 
     12 H          31.2524   55.1854   29.7501 H         1 BOA402      0.0000 
     13 H          31.3452   53.1826   28.3078 H         1 BOA402      0.0000 
     14 H          33.8547   57.3559   32.0040 H         1 BOA402      0.0000 
@<TRIPOS>BOND
     1    2    1 1    
     2   14    1 1    
     3    3    2 ar   
     4    6    2 ar   
     5    4    3 ar   
     6    5    4 1    
     7    8    4 ar   
     8    7    6 ar   
     9    9    6 1    
    10    8    7 ar   
    11   11    7 1    
    12   10    9 1    
    13   12    9 1    
    14   11   10 2    
    15   13   10 1    
@<TRIPOS>SUBSTRUCTURE
     1 BOA402      1 GROUP   
@<TRIPOS>SET

