#    Name: 2c6l_DT4_1_INTS_M
#    Modification time : Mon Mar 24 22:43:55 2014

@<TRIPOS>MOLECULE
2c6l_DT4_1_INTS_M
   49     0    12     0     0
SMALL
NO_CHARGES


@<TRIPOS>ATOM
      1 N           4.5955  -12.4755    7.6485 N.am      2 SEC2        0.0000 
      2 N           5.8780  -12.0370    6.8320 N.am     10 SEL2        0.0000 
      3 N           3.3130  -12.9140    8.4650 N.am      6 SEP2        0.0000 
      4 N           5.7205   -8.9220    8.7860 N.am      2 SEC2        0.0000 
      5 N           5.5680   -9.8720    7.4710 N.am     10 SEL2        0.0000 
      6 N           5.8730   -7.9720   10.1010 N.am      6 SEP2        0.0000 
      7 CA         10.5475  -13.3735    8.6940 C.3       4 GLC5        0.0000 
      8 CA          8.9590  -12.4360    9.7320 C.3      12 GLL5        0.0000 
      9 CA         12.1360  -14.3110    7.6560 C.3       8 GLP5        0.0000 
     10 CA          7.4940  -12.8560   11.2230 C.3       4 GLC5        0.0000 
     11 CA          6.0290  -13.2760   12.7140 C.3       8 GLP5        0.0000 
     12 O           9.6305  -11.9860   12.2420 O.2       1 ALC1        0.0000 
     13 O          10.5080  -11.4970   11.2850 O.2       9 ALL1        0.0000 
     14 O           8.7530  -12.4750   13.1990 O.2       5 ALP1        0.0000 
     15 N          10.8200  -11.7680   14.7380 N.am      2 SEC2        0.0000 
     16 N          11.8770  -11.0470   13.7320 N.am     10 SEL2        0.0000 
     17 N           9.7630  -12.4890   15.7440 N.am      6 SEP2        0.0000 
     18 CA         14.1905  -10.9135    9.9190 C.3       4 GLC5        0.0000 
     19 CA         12.1390  -10.1100   10.2550 C.3      12 GLL5        0.0000 
     20 CA         16.2420  -11.7170    9.5830 C.3       8 GLP5        0.0000 
     21 CA         16.0345   -8.6300    7.9640 C.3       4 GLC5        0.0000 
     22 CA         14.4750   -7.2050    7.6630 C.3      12 GLL5        0.0000 
     23 CA         17.5940  -10.0550    8.2650 C.3       8 GLP5        0.0000 
     24 OD1        16.4430   -4.0830    9.6450 O.co2     3 ASC3        0.0000 
     25 OD1        15.5140   -3.5880    8.0860 O.co2    11 ASL3        0.0000 
     26 OD1        17.3720   -4.5780   11.2040 O.co2     7 ASP3        0.0000 
     27 CA         13.8445   -3.7045   10.6190 C.3       4 GLC5        0.0000 
     28 CA         14.6350   -5.1620    9.7460 C.3      12 GLL5        0.0000 
     29 CA         13.0540   -2.2470   11.4920 C.3       8 GLP5        0.0000 
     30 CA         15.8270   -7.9855   11.2675 C.3       4 GLC5        0.0000 
     31 CA         14.5020   -6.6430   10.0950 C.3      12 GLL5        0.0000 
     32 CA         17.1520   -9.3280   12.4400 C.3       8 GLP5        0.0000 
     33 CA          6.4430  -10.8562    9.7093 C.3       4 GLC5        0.0000 
     34 CA          7.7030  -10.9970    8.2720 C.3      12 GLL5        0.0000 
     35 CA          5.0270  -10.0790   10.9130 C.3       8 GLP5        0.0000 
     36 CA          6.9168  -10.0158   10.1182 C.3       4 GLC5        0.0000 
     37 CA          8.3340   -9.8720    8.8190 C.3      12 GLL5        0.0000 
     38 CA          8.0442   -8.0177    9.3418 C.3       4 GLC5        0.0000 
     39 CA          7.2820   -6.0830    9.3600 C.3       8 GLP5        0.0000 
     40 CA          9.0507   -8.5542   10.6807 C.3       4 GLC5        0.0000 
     41 CA          9.2950   -7.1560   12.0380 C.3       8 GLP5        0.0000 
     42 CA         12.4800  -12.2950   10.4093 C.3       4 GLC5        0.0000 
     43 CA         11.6070  -10.7240   11.3800 C.3      12 GLL5        0.0000 
     44 CA         13.0870  -14.1730   10.0010 C.3       8 GLP5        0.0000 
     45 CA         11.4280   -9.0635   12.3008 C.3       4 GLC5        0.0000 
     46 CA         10.9830   -7.7100   13.7840 C.3       8 GLP5        0.0000 
     47 CA         16.6940   -5.7700    6.6445 C.3       4 GLC5        0.0000 
     48 CA         14.6010   -5.7250    7.3210 C.3      12 GLL5        0.0000 
     49 CA         18.3980   -6.1700    5.4180 C.3       8 GLP5        0.0000 
@<TRIPOS>BOND
@<TRIPOS>SUBSTRUCTURE
     1 ALC1       12 GROUP        1 X    ALC  0     ROOT ALC X 1
     2 SEC2        1 GROUP        1 X    SEC  0     **** SEC X 2
     3 ASC3       24 GROUP        1 X    ASC  0     **** ASC X 3
     4 GLC5        7 GROUP        1 X    GLC  0     **** GLC X 6
     5 ALP1       14 GROUP        1 Y    ALP  0     ROOT ALP Y 8
     6 SEP2        3 GROUP        1 Y    SEP  0     **** SEP Y 9
     7 ASP3       26 GROUP        1 Y    ASP  0     **** ASP Y 10
     8 GLP5        9 GROUP        1 Y    GLP  0     **** GLP Y 13
     9 ALL1       13 GROUP        1 Z    ALL  0     ROOT ALL Z 15
    10 SEL2        2 GROUP        1 Z    SEL  0     **** SEL Z 16
    11 ASL3       25 GROUP        1 Z    ASL  0     **** ASL Z 17
    12 GLL5        8 GROUP        1 Z    GLL  0     **** GLL Z 20
@<TRIPOS>SET

