#    Name: 2c6l_DT4_1_ligand
#    Modification time : Mon Mar 24 22:43:55 2014

@<TRIPOS>MOLECULE
2c6l_DT4_1_ligand
   51    54     1     0     0
SMALL
NO_CHARGES


@<TRIPOS>ATOM
      1 O2          5.8780  -12.0370    6.8320 O.2       1 DT41299     0.0000 
      2 S1          6.4730  -10.8020    7.0150 S.o2      1 DT41299     0.0000 
      3 O3          5.5680   -9.8720    7.4710 O.2       1 DT41299     0.0000 
      4 N6          7.1820  -10.3250    5.7270 N.pl3     1 DT41299     0.0000 
      5 C16         7.7030  -10.9970    8.2720 C.ar      1 DT41299     0.0000 
      6 C15         8.0150  -12.2700    8.7390 C.ar      1 DT41299     0.0000 
      7 C14         8.9590  -12.4360    9.7320 C.ar      1 DT41299     0.0000 
      8 C13         9.6070  -11.3230   10.2760 C.ar      1 DT41299     0.0000 
      9 C18         9.2790  -10.0330    9.8280 C.ar      1 DT41299     0.0000 
     10 C17         8.3340   -9.8720    8.8190 C.ar      1 DT41299     0.0000 
     11 N5         10.5080  -11.4970   11.2850 N.pl3     1 DT41299     0.0000 
     12 C9         11.6070  -10.7240   11.3800 C.2       1 DT41299     0.0000 
     13 N2         12.2050  -10.5550   12.5570 N.pl3     1 DT41299     0.0000 
     14 N3         11.8770  -11.0470   13.7320 N.2       1 DT41299     0.0000 
     15 C11        12.7900  -10.5820   14.6340 C.2       1 DT41299     0.0000 
     16 C10        13.2850   -9.8110   12.6790 C.2       1 DT41299     0.0000 
     17 N4         13.6730   -9.8060   13.9580 N.2       1 DT41299     0.0000 
     18 N1         13.8370   -9.1820   11.6190 N.2       1 DT41299     0.0000 
     19 C7         13.2530   -9.3030   10.3950 C.2       1 DT41299     0.0000 
     20 C8         12.1390  -10.1100   10.2550 C.2       1 DT41299     0.0000 
     21 N7         13.8370   -8.7680    9.3050 N.pl3     1 DT41299     0.0000 
     22 C1         13.7310   -7.3600    8.9880 C.3       1 DT41299     0.0000 
     23 C2         14.4750   -7.2050    7.6630 C.3       1 DT41299     0.0000 
     24 C3         14.6010   -5.7250    7.3210 C.3       1 DT41299     0.0000 
     25 C4         15.3790   -5.0150    8.4210 C.3       1 DT41299     0.0000 
     26 N8         15.5140   -3.5880    8.0860 N.4       1 DT41299     0.0000 
     27 C5         14.6350   -5.1620    9.7460 C.3       1 DT41299     0.0000 
     28 C6         14.5020   -6.6430   10.0950 C.3       1 DT41299     0.0000 
     29 H           7.1039  -10.9276    4.9328 H         1 DT41299     0.0000 
     30 H           7.6637   -9.4508    5.7879 H         1 DT41299     0.0000 
     31 H           7.5353  -13.0911    8.3376 H         1 DT41299     0.0000 
     32 H           9.1919  -13.3771   10.0780 H         1 DT41299     0.0000 
     33 H           9.7365   -9.2177   10.2457 H         1 DT41299     0.0000 
     34 H           8.0979   -8.9364    8.4748 H         1 DT41299     0.0000 
     35 H          10.3354  -12.2478   11.9958 H         1 DT41299     0.0000 
     36 H          12.8004  -10.7719   15.5705 H         1 DT41299     0.0000 
     37 H          11.7116  -10.2537    9.3365 H         1 DT41299     0.0000 
     38 H          14.3916   -9.3511    8.6431 H         1 DT41299     0.0000 
     39 H          12.7685   -7.0326    8.9216 H         1 DT41299     0.0000 
     40 H          13.9228   -7.7109    6.8800 H         1 DT41299     0.0000 
     41 H          15.4631   -7.6403    7.7532 H         1 DT41299     0.0000 
     42 H          13.6122   -5.2889    7.2391 H         1 DT41299     0.0000 
     43 H          15.1266   -5.6165    6.3794 H         1 DT41299     0.0000 
     44 H          16.3428   -5.4725    8.5143 H         1 DT41299     0.0000 
     45 H          13.6482   -4.7240    9.6554 H         1 DT41299     0.0000 
     46 H          15.1890   -4.6567   10.5280 H         1 DT41299     0.0000 
     47 H          15.4884   -7.0808   10.1878 H         1 DT41299     0.0000 
     48 H          13.9662   -6.7454   11.0307 H         1 DT41299     0.0000 
     49 H          16.0234   -3.0886    8.7868 H         1 DT41299     0.0000 
     50 H          15.9971   -3.4537    7.2208 H         1 DT41299     0.0000 
     51 H          14.6236   -3.1416    7.9968 H         1 DT41299     0.0000 
@<TRIPOS>BOND
     1    2    1 2    
     2    3    2 2    
     3    4    2 1    
     4    5    2 1    
     5   29    4 1    
     6   30    4 1    
     7    6    5 ar   
     8   10    5 ar   
     9    7    6 ar   
    10   31    6 1    
    11    8    7 ar   
    12   32    7 1    
    13    9    8 ar   
    14   11    8 1    
    15   10    9 ar   
    16   33    9 1    
    17   34   10 1    
    18   12   11 1    
    19   35   11 1    
    20   13   12 1    
    21   20   12 2    
    22   14   13 1    
    23   16   13 1    
    24   15   14 2    
    25   17   15 1    
    26   36   15 1    
    27   17   16 2    
    28   18   16 1    
    29   19   18 2    
    30   20   19 1    
    31   21   19 1    
    32   37   20 1    
    33   22   21 1    
    34   38   21 1    
    35   23   22 1    
    36   28   22 1    
    37   39   22 1    
    38   24   23 1    
    39   40   23 1    
    40   41   23 1    
    41   25   24 1    
    42   42   24 1    
    43   43   24 1    
    44   26   25 1    
    45   27   25 1    
    46   44   25 1    
    47   49   26 1    
    48   50   26 1    
    49   51   26 1    
    50   28   27 1    
    51   45   27 1    
    52   46   27 1    
    53   47   28 1    
    54   48   28 1    
@<TRIPOS>SUBSTRUCTURE
     1 DT41299     1 GROUP   
@<TRIPOS>SET

