#    Name: 4fv8_E63_1_INTS_M
#    Modification time : Mon Mar 24 20:51:34 2014

@<TRIPOS>MOLECULE
4fv8_E63_1_INTS_M
   79     0     9     0     0
SMALL
NO_CHARGES


@<TRIPOS>ATOM
      1 CA        -13.6455    5.4245   14.7200 C.3       3 GLC5        0.0000 
      2 CA        -14.0600    3.9570   15.9360 C.3       9 GLL5        0.0000 
      3 CA        -13.2310    6.8920   13.5040 C.3       6 GLP5        0.0000 
      4 CA        -16.7660    5.5825   16.6050 C.3       3 GLC5        0.0000 
      5 CA        -15.2090    4.1470   16.6990 C.3       9 GLL5        0.0000 
      6 CA        -18.3230    7.0180   16.5110 C.3       6 GLP5        0.0000 
      7 CA        -15.3690    5.1240   14.8010 C.3       3 GLC5        0.0000 
      8 CA        -15.5290    6.1010   12.9030 C.3       6 GLP5        0.0000 
      9 CA        -15.3830    2.1855   20.0660 C.3       3 GLC5        0.0000 
     10 CA        -14.0950    3.3800   18.7290 C.3       9 GLL5        0.0000 
     11 CA        -16.6710    0.9910   21.4030 C.3       6 GLP5        0.0000 
     12 O         -12.2325    2.0670   19.5595 O.2       1 ALC1        0.0000 
     13 O         -11.7060    2.6720   18.3660 O.2       7 ALL1        0.0000 
     14 O         -12.7590    1.4620   20.7530 O.2       4 ALP1        0.0000 
     15 O         -10.5965    1.9845   19.0580 O.2       1 ALC1        0.0000 
     16 O          -9.4870    1.2970   19.7500 O.2       4 ALP1        0.0000 
     17 O          -9.4990    2.7410   17.1520 O.2       1 ALC1        0.0000 
     18 O         -10.8710    2.6660   17.1830 O.2       7 ALL1        0.0000 
     19 O          -8.1270    2.8160   17.1210 O.2       4 ALP1        0.0000 
     20 O         -16.3580    3.5545   20.1035 O.2       1 ALC1        0.0000 
     21 O         -16.4590    3.7820   18.7740 O.2       7 ALL1        0.0000 
     22 O         -16.2570    3.3270   21.4330 O.2       4 ALP1        0.0000 
     23 CA        -18.0245    5.2600   17.4145 C.3       3 GLC5        0.0000 
     24 CA        -17.7260    3.5020   18.3180 C.3       9 GLL5        0.0000 
     25 CA        -17.1985    2.2465   19.8605 C.3       3 GLC5        0.0000 
     26 CA        -18.0715    4.7400   20.0580 C.3       3 GLC5        0.0000 
     27 CA        -18.4170    5.9780   21.7980 C.3       6 GLP5        0.0000 
     28 CA        -16.9055    1.5425   17.9480 C.3       3 GLC5        0.0000 
     29 CA        -16.0850   -0.4170   17.5780 C.3       6 GLP5        0.0000 
     30 N         -18.7490    5.1465   19.7855 N.am      2 SEC2        0.0000 
     31 N         -18.7670    3.8780   19.1540 N.am      8 SEL2        0.0000 
     32 N         -18.7310    6.4150   20.4170 N.am      5 SEP2        0.0000 
     33 CA        -19.7990    4.4710   20.5520 C.3       3 GLC5        0.0000 
     34 CA        -20.0120    3.6610   18.6480 C.3       9 GLL5        0.0000 
     35 CA        -19.5860    5.2810   22.4560 C.3       6 GLP5        0.0000 
     36 O         -21.7630    1.6365   16.2540 O.2       1 ALC1        0.0000 
     37 O         -21.5530    2.8930   16.8540 O.2       7 ALL1        0.0000 
     38 O         -21.9730    0.3800   15.6540 O.2       4 ALP1        0.0000 
     39 CA        -21.0280    4.9395   15.1365 C.3       3 GLC5        0.0000 
     40 CA        -22.4520    3.9030   16.4870 C.3       9 GLL5        0.0000 
     41 CA        -19.6040    5.9760   13.7860 C.3       6 GLP5        0.0000 
     42 CA        -23.7845    1.5540   16.6790 C.3       3 GLC5        0.0000 
     43 CA        -23.6440    3.5250   15.8270 C.3       9 GLL5        0.0000 
     44 CA        -23.9250   -0.4170   17.5310 C.3       6 GLP5        0.0000 
     45 CA        -19.3610    4.3320   15.2025 C.3       3 GLC5        0.0000 
     46 CA        -19.1180    2.6880   16.6190 C.3       9 GLL5        0.0000 
     47 CA        -17.6015    1.1355   17.0985 C.3       3 GLC5        0.0000 
     48 O         -20.6070    1.1725   15.5465 O.2       1 ALC1        0.0000 
     49 O         -19.2410    1.9650   15.4390 O.2       7 ALL1        0.0000 
     50 CA        -19.9125    2.0360   13.5170 C.3       3 GLC5        0.0000 
     51 CA        -18.2280    1.4650   14.5920 C.3       9 GLL5        0.0000 
     52 CA        -21.5970    2.6070   12.4420 C.3       6 GLP5        0.0000 
     53 CA        -19.1885   -0.4670   15.1440 C.3       3 GLC5        0.0000 
     54 CA        -20.1490   -2.3990   15.6960 C.3       6 GLP5        0.0000 
     55 CA        -14.9580    0.0045   10.8690 C.3       3 GLC5        0.0000 
     56 CA        -15.0980    0.9420   12.7670 C.3       9 GLL5        0.0000 
     57 CA        -14.8180   -0.9330    8.9710 C.3       6 GLP5        0.0000 
     58 CA        -13.0045    0.2275   15.3050 C.3       3 GLC5        0.0000 
     59 CA        -13.9130    1.1830   13.6720 C.3       9 GLL5        0.0000 
     60 CA        -12.0960   -0.7280   16.9380 C.3       6 GLP5        0.0000 
     61 CA        -14.9285    4.1730   12.7835 C.3       3 GLC5        0.0000 
     62 CA        -14.3280    2.2450   12.6640 C.3       9 GLL5        0.0000 
     63 CA        -12.5207    1.2968   17.0970 C.3       3 GLC5        0.0000 
     64 CA        -12.9320    3.4670   16.5640 C.3       9 GLL5        0.0000 
     65 CA        -15.3760    1.5985   17.9958 C.3       3 GLC5        0.0000 
     66 CA        -19.2305    5.1947   17.2602 C.3       3 GLC5        0.0000 
     67 CA        -20.7255    2.0152   19.0792 C.3       3 GLC5        0.0000 
     68 CA        -21.3130    0.6590   20.1490 C.3       6 GLP5        0.0000 
     69 CA        -22.3225    3.1605   14.2995 C.3       3 GLC5        0.0000 
     70 CA        -21.3257    6.5350   15.6557 C.3       3 GLC5        0.0000 
     71 CA        -22.2600    5.2630   16.8990 C.3       9 GLL5        0.0000 
     72 CA        -19.8740    7.3500   14.5070 C.3       6 GLP5        0.0000 
     73 CA        -17.6803    1.9868   12.5665 C.3       3 GLC5        0.0000 
     74 CA        -17.8050    2.3270   10.6310 C.3       6 GLP5        0.0000 
     75 CA        -16.8203    0.6148   16.0400 C.3       3 GLC5        0.0000 
     76 CA        -16.8830    1.8280   14.4120 C.3       9 GLL5        0.0000 
     77 CA        -16.2590    1.9603   11.6732 C.3       3 GLC5        0.0000 
     78 CA        -15.1513   -0.3838   14.3797 C.3       3 GLC5        0.0000 
     79 CA        -15.7970   -1.8300   15.5400 C.3       6 GLP5        0.0000 
@<TRIPOS>BOND
@<TRIPOS>SUBSTRUCTURE
     1 ALC1       12 GROUP        1 X    ALC  0     ROOT ALC X 1
     2 SEC2       30 GROUP        1 X    SEC  0     **** SEC X 2
     3 GLC5        1 GROUP        1 X    GLC  0     **** GLC X 6
     4 ALP1       14 GROUP        1 Y    ALP  0     ROOT ALP Y 8
     5 SEP2       32 GROUP        1 Y    SEP  0     **** SEP Y 9
     6 GLP5        3 GROUP        1 Y    GLP  0     **** GLP Y 13
     7 ALL1       13 GROUP        1 Z    ALL  0     ROOT ALL Z 15
     8 SEL2       31 GROUP        1 Z    SEL  0     **** SEL Z 16
     9 GLL5        2 GROUP        1 Z    GLL  0     **** GLL Z 20
@<TRIPOS>SET

