#    Name: 4fv8_E63_1_ligand
#    Modification time : Mon Mar 24 20:51:34 2014

@<TRIPOS>MOLECULE
4fv8_E63_1_ligand
   54    59     1     0     0
SMALL
NO_CHARGES


@<TRIPOS>ATOM
      1 O         -11.1110    3.2770   14.9350 O.2       1 E63401      0.0000 
      2 C1        -11.6020    3.1610   16.0510 C.2       1 E63401      0.0000 
      3 C3        -12.9320    3.4670   16.5640 C.ar      1 E63401      0.0000 
      4 C4        -14.0600    3.9570   15.9360 C.ar      1 E63401      0.0000 
      5 C5        -15.2090    4.1470   16.6990 C.ar      1 E63401      0.0000 
      6 C6        -15.2390    3.8480   18.0980 C.ar      1 E63401      0.0000 
      7 C23       -14.0950    3.3800   18.7290 C.ar      1 E63401      0.0000 
      8 C2        -12.9590    3.1760   17.9480 C.ar      1 E63401      0.0000 
      9 N2        -11.7060    2.6720   18.3660 N.pl3     1 E63401      0.0000 
     10 N1        -10.8710    2.6660   17.1830 N.am      1 E63401      0.0000 
     11 N3        -16.4590    3.7820   18.7740 N.pl3     1 E63401      0.0000 
     12 C7        -17.7260    3.5020   18.3180 C.ar      1 E63401      0.0000 
     13 N9        -18.7670    3.8780   19.1540 N.ar      1 E63401      0.0000 
     14 C22       -20.0120    3.6610   18.6480 C.ar      1 E63401      0.0000 
     15 C15       -20.2640    3.0820   17.3710 C.ar      1 E63401      0.0000 
     16 N8        -21.5530    2.8930   16.8540 N.pl3     1 E63401      0.0000 
     17 C16       -22.4520    3.9030   16.4870 C.ar      1 E63401      0.0000 
     18 C21       -22.2600    5.2630   16.8990 C.ar      1 E63401      0.0000 
     19 C20       -23.2950    6.1770   16.7100 C.ar      1 E63401      0.0000 
     20 C19       -24.4980    5.7900   16.0980 C.ar      1 E63401      0.0000 
     21 C18       -24.6560    4.4710   15.6430 C.ar      1 E63401      0.0000 
     22 C17       -23.6440    3.5250   15.8270 C.ar      1 E63401      0.0000 
     23 C8        -19.1180    2.6880   16.6190 C.ar      1 E63401      0.0000 
     24 N4        -17.8640    2.9260   17.0830 N.ar      1 E63401      0.0000 
     25 N5        -19.2410    1.9650   15.4390 N.pl3     1 E63401      0.0000 
     26 C9        -18.2280    1.4650   14.5920 C.2       1 E63401      0.0000 
     27 C11       -16.8830    1.8280   14.4120 C.2       1 E63401      0.0000 
     28 C10       -16.4080    0.9670   13.3840 C.2       1 E63401      0.0000 
     29 N7        -17.3750    0.1430   12.9820 N.2       1 E63401      0.0000 
     30 N6        -18.4500    0.4570   13.7080 N.pl3     1 E63401      0.0000 
     31 C12       -15.0980    0.9420   12.7670 C.3       1 E63401      0.0000 
     32 C14       -13.9130    1.1830   13.6720 C.3       1 E63401      0.0000 
     33 C13       -14.3280    2.2450   12.6640 C.3       1 E63401      0.0000 
     34 H         -14.0569    4.1751   14.9422 H         1 E63401      0.0000 
     35 H         -16.0697    4.5122   16.2596 H         1 E63401      0.0000 
     36 H         -14.0833    3.1920   19.7243 H         1 E63401      0.0000 
     37 H         -11.4547    2.4007   19.2041 H         1 E63401      0.0000 
     38 H          -9.9733    2.3761   17.1656 H         1 E63401      0.0000 
     39 H         -16.3868    3.9913   19.8592 H         1 E63401      0.0000 
     40 H         -20.8602    3.9297   19.2177 H         1 E63401      0.0000 
     41 H         -21.8807    1.8838   16.7280 H         1 E63401      0.0000 
     42 H         -21.3797    5.5368   17.3188 H         1 E63401      0.0000 
     43 H         -23.1799    7.1540   17.0230 H         1 E63401      0.0000 
     44 H         -25.2561    6.4660   15.9841 H         1 E63401      0.0000 
     45 H         -25.5295    4.2003   15.1682 H         1 E63401      0.0000 
     46 H         -23.7569    2.5695   15.4913 H         1 E63401      0.0000 
     47 H         -20.2594    1.7493   15.1148 H         1 E63401      0.0000 
     48 H         -16.4065    2.4751   14.8538 H         1 E63401      0.0000 
     49 H         -19.3356    0.0037   13.6199 H         1 E63401      0.0000 
     50 H         -14.7726    0.3811   12.0463 H         1 E63401      0.0000 
     51 H         -13.1688    0.7203   13.3117 H         1 E63401      0.0000 
     52 H         -14.2402    1.4489   14.5205 H         1 E63401      0.0000 
     53 H         -14.8164    2.9076   13.1305 H         1 E63401      0.0000 
     54 H         -13.7451    2.1789   11.9217 H         1 E63401      0.0000 
@<TRIPOS>BOND
     1    2    1 2    
     2    3    2 1    
     3   10    2 am   
     4    4    3 ar   
     5    8    3 ar   
     6    5    4 ar   
     7   34    4 1    
     8    6    5 ar   
     9   35    5 1    
    10    7    6 ar   
    11   11    6 1    
    12    8    7 ar   
    13   36    7 1    
    14    9    8 1    
    15   10    9 1    
    16   37    9 1    
    17   38   10 1    
    18   12   11 1    
    19   39   11 1    
    20   13   12 ar   
    21   24   12 ar   
    22   14   13 ar   
    23   15   14 ar   
    24   40   14 1    
    25   16   15 1    
    26   23   15 ar   
    27   17   16 1    
    28   41   16 1    
    29   18   17 ar   
    30   22   17 ar   
    31   19   18 ar   
    32   42   18 1    
    33   20   19 ar   
    34   43   19 1    
    35   21   20 ar   
    36   44   20 1    
    37   22   21 ar   
    38   45   21 1    
    39   46   22 1    
    40   24   23 ar   
    41   25   23 1    
    42   26   25 1    
    43   47   25 1    
    44   27   26 2    
    45   30   26 1    
    46   28   27 1    
    47   48   27 1    
    48   29   28 2    
    49   31   28 1    
    50   30   29 1    
    51   49   30 1    
    52   32   31 1    
    53   33   31 1    
    54   50   31 1    
    55   33   32 1    
    56   51   32 1    
    57   52   32 1    
    58   53   33 1    
    59   54   33 1    
@<TRIPOS>SUBSTRUCTURE
     1 E63401      1 GROUP   
@<TRIPOS>SET

