#    Name: 3QUS_2_CAVITY_N1_ALL.mol2
#    Modification time : Mon Mar 10 18:44:39 2014

@<TRIPOS>MOLECULE
3QUS_2_CAVITY_N1_ALL.mol2
   58     0     4     0     0
SMALL
NO_CHARGES


@<TRIPOS>ATOM
      1 CA        -28.2928  -23.5393   29.1587 C.3       3 GLY6        0.0000 
      2 CA        -26.9822  -23.7368   28.4564 C.3       3 GLY6        0.0000 
      3 CA        -34.1636  -22.3208   30.6751 C.3       3 GLY6        0.0000 
      4 CA        -32.8530  -22.5183   29.9728 C.3       3 GLY6        0.0000 
      5 CA        -31.5423  -22.7157   29.2705 C.3       3 GLY6        0.0000 
      6 CA        -30.2317  -22.9132   28.5681 C.3       3 GLY6        0.0000 
      7 CA        -28.9211  -23.1106   27.8658 C.3       3 GLY6        0.0000 
      8 N         -27.6104  -23.3081   27.1635 N.2       2 ALA2        0.0000 
      9 CA        -26.2998  -23.5055   26.4612 C.3       3 GLY6        0.0000 
     10 CA        -34.7918  -21.8921   29.3822 C.3       3 GLY6        0.0000 
     11 DU        -33.4812  -22.0895   28.6799 H         4 CUB7        0.0000 
     12 CA        -32.1705  -22.2870   27.9776 C.3       3 GLY6        0.0000 
     13 DU        -30.8599  -22.4844   27.2753 H         4 CUB7        0.0000 
     14 DU        -29.5493  -22.6819   26.5729 H         4 CUB7        0.0000 
     15 OG        -28.2386  -22.8793   25.8706 O.2       1 SER1        0.0000 
     16 CA        -26.9280  -23.0768   25.1683 C.3       3 GLY6        0.0000 
     17 DU        -31.4881  -22.0557   25.9824 H         4 CUB7        0.0000 
     18 DU        -30.1775  -22.2531   25.2801 H         4 CUB7        0.0000 
     19 OG        -28.8669  -22.4506   24.5777 O.2       1 SER1        0.0000 
     20 O         -30.8057  -21.8244   23.9872 O.2       2 ALA2        0.0000 
     21 O         -29.4951  -22.0218   23.2849 O.2       2 ALA2        0.0000 
     22 CA        -32.4820  -21.0945   30.2647 C.3       3 GLY6        0.0000 
     23 N         -28.5501  -21.6868   28.1577 N.2       2 ALA2        0.0000 
     24 CA        -34.4209  -20.4683   29.6742 C.3       3 GLY6        0.0000 
     25 CA        -33.1102  -20.6657   28.9718 C.3       3 GLY6        0.0000 
     26 CA        -31.7996  -20.8632   28.2695 C.3       3 GLY6        0.0000 
     27 CA        -30.4890  -21.0606   27.5672 C.3       3 GLY6        0.0000 
     28 N         -29.1783  -21.2581   26.8649 N.2       2 ALA2        0.0000 
     29 N         -27.8677  -21.4555   26.1625 N.2       2 ALA2        0.0000 
     30 DU        -31.1172  -20.6319   26.2743 H         4 CUB7        0.0000 
     31 O         -29.8066  -20.8293   25.5720 O.2       2 ALA2        0.0000 
     32 O         -28.4959  -21.0268   24.8697 O.2       2 ALA2        0.0000 
     33 O         -33.5948  -25.3658   29.3890 O.2       2 ALA2        0.0000 
     34 N         -32.2842  -25.5633   28.6866 N.2       2 ALA2        0.0000 
     35 N         -30.9735  -25.7607   27.9843 N.2       2 ALA2        0.0000 
     36 DU        -32.9124  -25.1346   27.3938 H         4 CUB7        0.0000 
     37 N         -31.6018  -25.3320   26.6914 N.2       2 ALA2        0.0000 
     38 N         -30.2911  -25.5295   25.9891 N.2       2 ALA2        0.0000 
     39 O         -28.9805  -25.7269   25.2868 O.2       2 ALA2        0.0000 
     40 DU        -30.9194  -25.1007   24.6962 H         4 CUB7        0.0000 
     41 OG        -29.6087  -25.2982   23.9939 O.2       1 SER1        0.0000 
     42 O         -32.5957  -24.3708   30.9737 O.2       2 ALA2        0.0000 
     43 CA        -31.2850  -24.5682   30.2714 C.3       3 GLY6        0.0000 
     44 CA        -29.9744  -24.7657   29.5691 C.3       3 GLY6        0.0000 
     45 CA        -28.6638  -24.9631   28.8668 C.3       3 GLY6        0.0000 
     46 CA        -34.5345  -23.7446   30.3832 C.3       3 GLY6        0.0000 
     47 DU        -33.2239  -23.9421   29.6809 H         4 CUB7        0.0000 
     48 CA        -31.9133  -24.1395   28.9785 C.3       3 GLY6        0.0000 
     49 CA        -30.6026  -24.3370   28.2762 C.3       3 GLY6        0.0000 
     50 N         -29.2920  -24.5344   27.5739 N.2       2 ALA2        0.0000 
     51 CA        -27.9814  -24.7319   26.8716 C.3       3 GLY6        0.0000 
     52 CA        -26.6707  -24.9293   26.1693 C.3       3 GLY6        0.0000 
     53 DU        -33.8521  -23.5133   28.3880 H         4 CUB7        0.0000 
     54 DU        -32.5415  -23.7108   27.6857 H         4 CUB7        0.0000 
     55 DU        -31.2308  -23.9082   26.9834 H         4 CUB7        0.0000 
     56 DU        -29.9202  -24.1057   26.2810 H         4 CUB7        0.0000 
     57 OG        -28.6096  -24.3031   25.5787 O.2       1 SER1        0.0000 
     58 OG        -30.5484  -23.6769   24.9882 O.2       1 SER1        0.0000 
@<TRIPOS>BOND
@<TRIPOS>SUBSTRUCTURE
     1 SER1       15 GROUP   
     2 ALA2        8 GROUP   
     3 GLY6        1 GROUP   
     4 CUB7       11 GROUP   
@<TRIPOS>SET

