#    Name: 3QUS_2_CAVITY_N1_6.mol2
#    Modification time : Mon Mar 10 18:44:39 2014

@<TRIPOS>MOLECULE
3QUS_2_CAVITY_N1_6.mol2
   21     0     4     0     0
SMALL
NO_CHARGES


@<TRIPOS>ATOM
      1 DU        -29.5493  -22.6819   26.5729 H         4 CUB7        0.0000 
      2 OG        -28.2386  -22.8793   25.8706 O.2       1 SER1        0.0000 
      3 CA        -26.9280  -23.0768   25.1683 C.3       3 GLY6        0.0000 
      4 DU        -31.4881  -22.0557   25.9824 H         4 CUB7        0.0000 
      5 DU        -30.1775  -22.2531   25.2801 H         4 CUB7        0.0000 
      6 OG        -28.8669  -22.4506   24.5777 O.2       1 SER1        0.0000 
      7 O         -30.8057  -21.8244   23.9872 O.2       2 ALA2        0.0000 
      8 O         -29.4951  -22.0218   23.2849 O.2       2 ALA2        0.0000 
      9 N         -30.9735  -25.7607   27.9843 N.2       2 ALA2        0.0000 
     10 DU        -32.9124  -25.1346   27.3938 H         4 CUB7        0.0000 
     11 N         -31.6018  -25.3320   26.6914 N.2       2 ALA2        0.0000 
     12 N         -30.2911  -25.5295   25.9891 N.2       2 ALA2        0.0000 
     13 O         -28.9805  -25.7269   25.2868 O.2       2 ALA2        0.0000 
     14 DU        -30.9194  -25.1007   24.6962 H         4 CUB7        0.0000 
     15 OG        -29.6087  -25.2982   23.9939 O.2       1 SER1        0.0000 
     16 CA        -27.9814  -24.7319   26.8716 C.3       3 GLY6        0.0000 
     17 CA        -26.6707  -24.9293   26.1693 C.3       3 GLY6        0.0000 
     18 DU        -31.2308  -23.9082   26.9834 H         4 CUB7        0.0000 
     19 DU        -29.9202  -24.1057   26.2810 H         4 CUB7        0.0000 
     20 OG        -28.6096  -24.3031   25.5787 O.2       1 SER1        0.0000 
     21 OG        -30.5484  -23.6769   24.9882 O.2       1 SER1        0.0000 
@<TRIPOS>BOND
@<TRIPOS>SUBSTRUCTURE
     1 SER1        2 GROUP   
     2 ALA2        7 GROUP   
     3 GLY6        3 GROUP   
     4 CUB7        1 GROUP   
@<TRIPOS>SET

