#    Name: 3qus_AGS_2_INTS_M
#    Modification time : Tue Mar 25 10:10:08 2014

@<TRIPOS>MOLECULE
3qus_AGS_2_INTS_M
   35     0    12     0     0
SMALL
NO_CHARGES


@<TRIPOS>ATOM
      1 CA        -30.4455  -27.8095   18.7545 C.3       4 GLC5        0.0000 
      2 CA        -30.5930  -27.9570   19.9410 C.3      12 GLL5        0.0000 
      3 CA        -30.2980  -27.6620   17.5680 C.3       8 GLP5        0.0000 
      4 CA        -29.0370  -29.0330   20.1450 C.3       4 GLC5        0.0000 
      5 CA        -27.4810  -30.1090   20.3490 C.3       8 GLP5        0.0000 
      6 N         -28.6960  -28.5010   21.7485 N.am      2 SEC2        0.0000 
      7 N         -28.9240  -27.1420   22.1400 N.am     10 SEL2        0.0000 
      8 N         -28.4680  -29.8600   21.3570 N.am      6 SEP2        0.0000 
      9 N         -27.7900  -27.5010   21.4500 N.am      2 SEC2        0.0000 
     10 N         -26.6560  -27.8600   20.7600 N.am      6 SEP2        0.0000 
     11 NZ        -31.0470  -23.6050   18.5630 N.4       3 LYC4        0.0000 
     12 NZ        -30.5810  -24.5790   19.4700 N.4      11 LYL4        0.0000 
     13 NZ        -31.5130  -22.6310   17.6560 N.4       7 LYP4        0.0000 
     14 N         -31.0470  -23.6050   18.5630 N.am      2 SEC2        0.0000 
     15 N         -30.5810  -24.5790   19.4700 N.am     10 SEL2        0.0000 
     16 N         -31.5130  -22.6310   17.6560 N.am      6 SEP2        0.0000 
     17 N         -28.8915  -24.8400   19.7315 N.am      2 SEC2        0.0000 
     18 N         -27.2020  -25.1010   19.9930 N.am      6 SEP2        0.0000 
     19 NZ        -32.1900  -23.4180   19.1495 N.4       3 LYC4        0.0000 
     20 NZ        -32.8670  -24.2050   20.6430 N.4      11 LYL4        0.0000 
     21 N         -34.4770  -26.9405   17.3410 N.am      2 SEC2        0.0000 
     22 N         -34.4620  -26.3360   18.3630 N.am     10 SEL2        0.0000 
     23 N         -34.4920  -27.5450   16.3190 N.am      6 SEP2        0.0000 
     24 CA        -30.9610  -33.3555   21.5975 C.3       4 GLC5        0.0000 
     25 CA        -32.6180  -31.9280   22.1210 C.3      12 GLL5        0.0000 
     26 CA        -29.3040  -34.7830   21.0740 C.3       8 GLP5        0.0000 
     27 O         -31.9325  -33.2225   23.7805 O.2       1 ALC1        0.0000 
     28 O         -32.9080  -32.9700   23.0480 O.2       9 ALL1        0.0000 
     29 O         -30.9570  -33.4750   24.5130 O.2       5 ALP1        0.0000 
     30 O         -30.2515  -35.7350   15.2555 O.2       1 ALC1        0.0000 
     31 O         -30.3000  -35.1210   16.4420 O.2       9 ALL1        0.0000 
     32 O         -30.2030  -36.3490   14.0690 O.2       5 ALP1        0.0000 
     33 CA        -29.6208  -34.9552   18.4030 C.3       4 GLC5        0.0000 
     34 CA        -31.2360  -35.0960   17.4110 C.3      12 GLL5        0.0000 
     35 CA        -27.8900  -35.4360   19.0180 C.3       8 GLP5        0.0000 
@<TRIPOS>BOND
@<TRIPOS>SUBSTRUCTURE
     1 ALC1       27 GROUP        1 X    ALC  0     ROOT ALC X 1
     2 SEC2        6 GROUP        1 X    SEC  0     **** SEC X 2
     3 LYC4       11 GROUP        1 X    LYC  0     **** LYC X 4
     4 GLC5        1 GROUP        1 X    GLC  0     **** GLC X 6
     5 ALP1       29 GROUP        1 Y    ALP  0     ROOT ALP Y 8
     6 SEP2        8 GROUP        1 Y    SEP  0     **** SEP Y 9
     7 LYP4       13 GROUP        1 Y    LYP  0     **** LYP Y 11
     8 GLP5        3 GROUP        1 Y    GLP  0     **** GLP Y 13
     9 ALL1       28 GROUP        1 Z    ALL  0     ROOT ALL Z 15
    10 SEL2        7 GROUP        1 Z    SEL  0     **** SEL Z 16
    11 LYL4       12 GROUP        1 Z    LYL  0     **** LYL Z 18
    12 GLL5        2 GROUP        1 Z    GLL  0     **** GLL Z 20
@<TRIPOS>SET

