#    Name: 3qus_AGS_2_ligand
#    Modification time : Tue Mar 25 10:10:08 2014

@<TRIPOS>MOLECULE
3qus_AGS_2_ligand
   43    45     1     0     0
SMALL
NO_CHARGES


@<TRIPOS>ATOM
      1 PG        -30.4690  -27.1800   21.7280 P.3       1 AGS700      0.0000 
      2 S1G       -30.5930  -27.9570   19.9410 S.3       1 AGS700      0.0000 
      3 O2G       -31.2900  -28.0260   22.8230 O.co2     1 AGS700      0.0000 
      4 O3G       -28.9240  -27.1420   22.1400 O.co2     1 AGS700      0.0000 
      5 PB        -31.7060  -25.1130   20.3150 P.3       1 AGS700      0.0000 
      6 O1B       -30.5810  -24.5790   19.4700 O.co2     1 AGS700      0.0000 
      7 O2B       -32.8670  -24.2050   20.6430 O.co2     1 AGS700      0.0000 
      8 O3B       -31.0610  -25.6830   21.6770 O.3       1 AGS700      0.0000 
      9 PA        -33.8940  -26.7090   19.7030 P.3       1 AGS700      0.0000 
     10 O1A       -34.4620  -26.3360   18.3630 O.co2     1 AGS700      0.0000 
     11 O2A       -34.4360  -26.0600   20.9490 O.co2     1 AGS700      0.0000 
     12 O3A       -32.3100  -26.4510   19.6550 O.3       1 AGS700      0.0000 
     13 O5'       -33.9740  -28.2910   19.9670 O.3       1 AGS700      0.0000 
     14 C5'       -33.8630  -28.6220   21.3550 C.3       1 AGS700      0.0000 
     15 C4'       -34.1000  -30.0960   21.6320 C.3       1 AGS700      0.0000 
     16 O4'       -33.9340  -30.8950   20.4590 O.3       1 AGS700      0.0000 
     17 C3'       -33.1030  -30.5950   22.6630 C.3       1 AGS700      0.0000 
     18 O3'       -33.7640  -30.7420   23.9260 O.3       1 AGS700      0.0000 
     19 C2'       -32.6180  -31.9280   22.1210 C.3       1 AGS700      0.0000 
     20 O2'       -32.9080  -32.9700   23.0480 O.3       1 AGS700      0.0000 
     21 C1'       -33.3860  -32.1670   20.8270 C.3       1 AGS700      0.0000 
     22 N9        -32.5040  -32.6540   19.7340 N.pl3     1 AGS700      0.0000 
     23 C8        -31.5830  -31.9110   19.0950 C.2       1 AGS700      0.0000 
     24 N7        -30.9480  -32.6190   18.1360 N.2       1 AGS700      0.0000 
     25 C5        -31.4670  -33.8530   18.1650 C.ar      1 AGS700      0.0000 
     26 C6        -31.2360  -35.0960   17.4110 C.ar      1 AGS700      0.0000 
     27 N6        -30.3000  -35.1210   16.4420 N.pl3     1 AGS700      0.0000 
     28 N1        -31.9730  -36.1810   17.7230 N.ar      1 AGS700      0.0000 
     29 C2        -32.8980  -36.1270   18.7030 C.ar      1 AGS700      0.0000 
     30 N3        -33.1690  -35.0260   19.4310 N.ar      1 AGS700      0.0000 
     31 C4        -32.4940  -33.8770   19.2100 C.ar      1 AGS700      0.0000 
     32 H         -34.5886  -28.0436   21.9640 H         1 AGS700      0.0000 
     33 H         -32.8587  -28.3620   21.7497 H         1 AGS700      0.0000 
     34 H         -35.0892  -30.2183   22.0478 H         1 AGS700      0.0000 
     35 H         -32.2878  -29.9174   22.6936 H         1 AGS700      0.0000 
     36 H         -31.5848  -31.8505   21.8918 H         1 AGS700      0.0000 
     37 H         -34.1668  -32.8702   21.0220 H         1 AGS700      0.0000 
     38 H         -31.3921  -30.9640   19.2995 H         1 AGS700      0.0000 
     39 H         -30.4457  -35.7826   15.7064 H         1 AGS700      0.0000 
     40 H         -29.5430  -34.4758   16.5447 H         1 AGS700      0.0000 
     41 H         -33.4536  -37.0184   18.9163 H         1 AGS700      0.0000 
     42 H         -34.0931  -31.6863   23.9374 H         1 AGS700      0.0000 
     43 H         -32.3385  -32.7723   23.8458 H         1 AGS700      0.0000 
@<TRIPOS>BOND
     1    2    1 1    
     2    3    1 ar   
     3    4    1 ar   
     4    8    1 1    
     5    6    5 ar   
     6    7    5 ar   
     7    8    5 1    
     8   12    5 1    
     9   10    9 ar   
    10   11    9 ar   
    11   12    9 1    
    12   13    9 1    
    13   14   13 1    
    14   15   14 1    
    15   32   14 1    
    16   33   14 1    
    17   16   15 1    
    18   17   15 1    
    19   34   15 1    
    20   21   16 1    
    21   18   17 1    
    22   19   17 1    
    23   35   17 1    
    24   42   18 1    
    25   20   19 1    
    26   21   19 1    
    27   36   19 1    
    28   43   20 1    
    29   22   21 1    
    30   37   21 1    
    31   23   22 1    
    32   31   22 1    
    33   24   23 2    
    34   38   23 1    
    35   25   24 1    
    36   26   25 ar   
    37   31   25 ar   
    38   27   26 1    
    39   28   26 ar   
    40   39   27 1    
    41   40   27 1    
    42   29   28 ar   
    43   30   29 ar   
    44   41   29 1    
    45   31   30 ar   
@<TRIPOS>SUBSTRUCTURE
     1 AGS700      1 GROUP   
@<TRIPOS>SET

