#    Name: 1vjy_460_1_INTS_M
#    Modification time : Tue Mar 25 07:57:03 2014

@<TRIPOS>MOLECULE
1vjy_460_1_INTS_M
   68     0     6     0     0
SMALL
NO_CHARGES


@<TRIPOS>ATOM
      1 CA          9.2100   65.3135    5.9290 C.3       2 GLC5        0.0000 
      2 CA         10.4350   64.4240    4.9820 C.3       6 GLL5        0.0000 
      3 CA          7.9850   66.2030    6.8760 C.3       4 GLP5        0.0000 
      4 CA          8.6970   64.1350    4.0180 C.3       2 GLC5        0.0000 
      5 CA          6.9590   63.8460    3.0540 C.3       4 GLP5        0.0000 
      6 CA         11.9930   62.7750    1.8785 C.3       2 GLC5        0.0000 
      7 CA         12.4630   63.9310    3.5640 C.3       6 GLL5        0.0000 
      8 CA         11.5230   61.6190    0.1930 C.3       4 GLP5        0.0000 
      9 CA         14.8745   62.6865    2.2545 C.3       2 GLC5        0.0000 
     10 CA         13.8400   64.1450    3.2930 C.3       6 GLL5        0.0000 
     11 CA         15.9090   61.2280    1.2160 C.3       4 GLP5        0.0000 
     12 CA         16.5675   64.8770    4.1030 C.3       2 GLC5        0.0000 
     13 CA         14.6020   65.0260    4.1070 C.3       6 GLL5        0.0000 
     14 CA         18.5330   64.7280    4.0990 C.3       4 GLP5        0.0000 
     15 CA         16.7480   66.0045    6.1380 C.3       2 GLC5        0.0000 
     16 CA         15.5820   67.6780    5.7960 C.3       6 GLL5        0.0000 
     17 CA         17.9140   64.3310    6.4800 C.3       4 GLP5        0.0000 
     18 CA         13.6245   68.0865    4.9380 C.3       2 GLC5        0.0000 
     19 CA         11.6670   68.4950    4.0800 C.3       4 GLP5        0.0000 
     20 CA         14.0340   69.0820    6.5270 C.3       2 GLC5        0.0000 
     21 CA         12.4860   70.4860    7.2580 C.3       4 GLP5        0.0000 
     22 CA         17.3490   66.4565    4.3195 C.3       2 GLC5        0.0000 
     23 CA         16.1650   68.1850    4.5400 C.3       6 GLL5        0.0000 
     24 CA         13.5300   68.4435    3.7240 C.3       2 GLC5        0.0000 
     25 CA         15.3930   68.3920    3.3680 C.3       6 GLL5        0.0000 
     26 CA         13.9550   69.4975    2.1890 C.3       2 GLC5        0.0000 
     27 CA         16.0420   68.8870    2.2080 C.3       6 GLL5        0.0000 
     28 CA         11.8680   70.1080    2.1700 C.3       4 GLP5        0.0000 
     29 CA         16.0430   68.9785   -0.0240 C.3       2 GLC5        0.0000 
     30 CA         16.0440   69.0700   -2.2560 C.3       4 GLP5        0.0000 
     31 N          17.5050   70.4040   -0.1630 N.am      1 SEC2        0.0000 
     32 N          18.0320   69.6550    1.0710 N.am      5 SEL2        0.0000 
     33 N          16.9780   71.1530   -1.3970 N.am      3 SEP2        0.0000 
     34 CA         18.3415   71.2490   -0.1380 C.3       2 GLC5        0.0000 
     35 CA         19.3920   69.9150    1.1360 C.3       6 GLL5        0.0000 
     36 CA         17.2910   72.5830   -1.4120 C.3       4 GLP5        0.0000 
     37 CA         18.3255   66.8295    3.7715 C.3       2 GLC5        0.0000 
     38 CA         18.1180   68.9310    3.4440 C.3       6 GLL5        0.0000 
     39 CA         11.4130   66.5072    4.4488 C.3       2 GLC5        0.0000 
     40 CA         11.8830   64.6150    4.6530 C.3       6 GLL5        0.0000 
     41 CA         11.2315   65.3037    2.9817 C.3       2 GLC5        0.0000 
     42 CA         11.3040   66.0880    1.1460 C.3       4 GLP5        0.0000 
     43 CA         13.4145   62.8800    4.9853 C.3       2 GLC5        0.0000 
     44 CA         14.6560   61.4870    5.8620 C.3       4 GLP5        0.0000 
     45 CA         11.2680   62.3826    4.4409 C.3       2 GLC5        0.0000 
     46 CA         10.7250   60.5400    4.6910 C.3       4 GLP5        0.0000 
     47 CA         12.2278   65.0630    2.2873 C.3       2 GLC5        0.0000 
     48 CA         15.1745   65.1908    2.1535 C.3       2 GLC5        0.0000 
     49 CA         16.1280   65.7960    0.6070 C.3       4 GLP5        0.0000 
     50 CA         14.4385   63.0363    4.7810 C.3       2 GLC5        0.0000 
     51 CA         16.1028   65.2392    6.0602 C.3       2 GLC5        0.0000 
     52 CA         13.9440   65.6800    5.1860 C.3       6 GLL5        0.0000 
     53 CA         14.3598   64.8882    7.0058 C.3       2 GLC5        0.0000 
     54 CA         14.6390   66.6150    6.0950 C.3       6 GLL5        0.0000 
     55 CA         14.4280   63.6290    8.3710 C.3       4 GLP5        0.0000 
     56 CA         12.9793   67.3213    4.8603 C.3       2 GLC5        0.0000 
     57 CA         15.2838   69.7638    4.7215 C.3       2 GLC5        0.0000 
     58 CA         14.6940   71.5960    4.2750 C.3       4 GLP5        0.0000 
     59 CA         16.3476   67.3509    1.5515 C.3       2 GLC5        0.0000 
     60 CA         15.6306   70.2509    3.3855 C.3       2 GLC5        0.0000 
     61 CA         20.2855   67.9578    1.7127 C.3       2 GLC5        0.0000 
     62 CA         20.7940   66.1030    1.7100 C.3       4 GLP5        0.0000 
     63 CA         19.8010   67.5872    2.5787 C.3       2 GLC5        0.0000 
     64 CA         19.4980   69.2120    3.4510 C.3       6 GLL5        0.0000 
     65 CA         20.1273   71.4901    2.8451 C.3       2 GLC5        0.0000 
     66 CA         20.6170   73.4680    3.1070 C.3       4 GLP5        0.0000 
     67 CA         17.8780   70.6992    4.2758 C.3       2 GLC5        0.0000 
     68 CA         16.9480   72.3270    5.1040 C.3       4 GLP5        0.0000 
@<TRIPOS>BOND
@<TRIPOS>SUBSTRUCTURE
     1 SEC2       31 GROUP        1 X    SEC  0     ROOT SEC X 2
     2 GLC5        1 GROUP        1 X    GLC  0     **** GLC X 6
     3 SEP2       33 GROUP        1 Y    SEP  0     ROOT SEP Y 9
     4 GLP5        3 GROUP        1 Y    GLP  0     **** GLP Y 13
     5 SEL2       32 GROUP        1 Z    SEL  0     ROOT SEL Z 16
     6 GLL5        2 GROUP        1 Z    GLL  0     **** GLL Z 20
@<TRIPOS>SET

