#    Name: 1vjy_460_1_ligand
#    Modification time : Tue Mar 25 07:57:03 2014

@<TRIPOS>MOLECULE
1vjy_460_1_ligand
   35    38     1     0     0
SMALL
NO_CHARGES


@<TRIPOS>ATOM
      1 C1         10.4350   64.4240    4.9820 C.3       1 460999      0.0000 
      2 C2         11.8830   64.6150    4.6530 C.ar      1 460999      0.0000 
      3 C3         12.4630   63.9310    3.5640 C.ar      1 460999      0.0000 
      4 C4         13.8400   64.1450    3.2930 C.ar      1 460999      0.0000 
      5 C5         14.6020   65.0260    4.1070 C.ar      1 460999      0.0000 
      6 C6         13.9440   65.6800    5.1860 C.ar      1 460999      0.0000 
      7 N7         12.6020   65.4750    5.4500 N.ar      1 460999      0.0000 
      8 C8         14.6390   66.6150    6.0950 C.2       1 460999      0.0000 
      9 N9         14.4190   66.5460    7.4360 N.pl3     1 460999      0.0000 
     10 N10        15.1840   67.5170    7.9720 N.2       1 460999      0.0000 
     11 C12        15.8960   68.2180    7.0370 C.2       1 460999      0.0000 
     12 C13        15.5820   67.6780    5.7960 C.2       1 460999      0.0000 
     13 C14        16.1650   68.1850    4.5400 C.ar      1 460999      0.0000 
     14 C15        15.3930   68.3920    3.3680 C.ar      1 460999      0.0000 
     15 C16        16.0420   68.8870    2.2080 C.ar      1 460999      0.0000 
     16 C17        17.4170   69.1720    2.2040 C.ar      1 460999      0.0000 
     17 N18        18.0320   69.6550    1.0710 N.ar      1 460999      0.0000 
     18 C19        19.3920   69.9150    1.1360 C.ar      1 460999      0.0000 
     19 C20        20.1620   69.7100    2.2950 C.ar      1 460999      0.0000 
     20 C21        19.4980   69.2120    3.4510 C.ar      1 460999      0.0000 
     21 C22        18.1180   68.9310    3.4440 C.ar      1 460999      0.0000 
     22 N23        17.5110   68.4510    4.5760 N.ar      1 460999      0.0000 
     23 H          11.9180   63.3064    2.9913 H         1 460999      0.0000 
     24 H          14.2851   63.6645    2.5106 H         1 460999      0.0000 
     25 H          15.5775   65.1832    3.9266 H         1 460999      0.0000 
     26 H          13.8496   65.9428    7.8870 H         1 460999      0.0000 
     27 H          16.4917   68.9355    7.1932 H         1 460999      0.0000 
     28 H          14.4047   68.1916    3.3598 H         1 460999      0.0000 
     29 H          15.4868   69.0388    1.3521 H         1 460999      0.0000 
     30 H          19.8791   70.2833    0.2824 H         1 460999      0.0000 
     31 H          21.1465   69.9058    2.3140 H         1 460999      0.0000 
     32 H          20.0454   69.0554    4.3104 H         1 460999      0.0000 
     33 H          10.2241   63.4688    5.1895 H         1 460999      0.0000 
     34 H          10.1605   64.9642    5.7775 H         1 460999      0.0000 
     35 H           9.8428   64.6969    4.2239 H         1 460999      0.0000 
@<TRIPOS>BOND
     1    2    1 1    
     2   33    1 1    
     3   34    1 1    
     4   35    1 1    
     5    3    2 ar   
     6    7    2 ar   
     7    4    3 ar   
     8   23    3 1    
     9    5    4 ar   
    10   24    4 1    
    11    6    5 ar   
    12   25    5 1    
    13    7    6 ar   
    14    8    6 1    
    15    9    8 1    
    16   12    8 2    
    17   10    9 1    
    18   26    9 1    
    19   11   10 2    
    20   12   11 1    
    21   27   11 1    
    22   13   12 1    
    23   14   13 ar   
    24   22   13 ar   
    25   15   14 ar   
    26   28   14 1    
    27   16   15 ar   
    28   29   15 1    
    29   17   16 ar   
    30   21   16 ar   
    31   18   17 ar   
    32   19   18 ar   
    33   30   18 1    
    34   20   19 ar   
    35   31   19 1    
    36   21   20 ar   
    37   32   20 1    
    38   22   21 ar   
@<TRIPOS>SUBSTRUCTURE
     1 460999      1 GROUP   
@<TRIPOS>SET

