#    Name: 4TMN_1_CAVITY_N1_6.mol2
#    Modification time : Tue Mar 11 17:36:16 2014

@<TRIPOS>MOLECULE
4TMN_1_CAVITY_N1_6.mol2
  105     0     7     0     0
SMALL
NO_CHARGES


@<TRIPOS>ATOM
      1 O          48.2821   16.0965   -6.6896 O.2       2 ALA2        0.0000 
      2 O          49.5737   15.3525   -6.8580 O.2       2 ALA2        0.0000 
      3 DU         48.4591   16.7109   -8.0465 H         7 CUB7        0.0000 
      4 DU         49.7506   15.9669   -8.2149 H         7 CUB7        0.0000 
      5 N          51.0422   15.2229   -8.3834 N.2       2 ALA2        0.0000 
      6 DU         48.6361   17.3253   -9.4034 H         7 CUB7        0.0000 
      7 CZ         49.9276   16.5813   -9.5718 C.ar      5 PHE5        0.0000 
      8 CZ         48.8130   17.9398  -10.7603 C.ar      5 PHE5        0.0000 
      9 CZ         50.1046   17.1958  -10.9287 C.ar      5 PHE5        0.0000 
     10 CZ         52.0139   11.9408    0.2064 C.ar      5 PHE5        0.0000 
     11 N          50.8994   13.2993   -0.9821 N.2       2 ALA2        0.0000 
     12 O          51.0763   13.9137   -2.3390 O.2       2 ALA2        0.0000 
     13 O          52.3679   13.1697   -2.5074 O.2       2 ALA2        0.0000 
     14 DU         53.6594   12.4257   -2.6759 H         7 CUB7        0.0000 
     15 O          52.5449   13.7841   -3.8643 O.2       2 ALA2        0.0000 
     16 DU         53.8364   13.0401   -4.0328 H         7 CUB7        0.0000 
     17 O          51.4303   15.1425   -5.0528 O.2       2 ALA2        0.0000 
     18 N          52.7218   14.3985   -5.2212 N.2       2 ALA2        0.0000 
     19 CA         54.0134   13.6546   -5.3897 C.3       6 GLY6        0.0000 
     20 N          49.0241   17.2449   -6.0728 N.2       2 ALA2        0.0000 
     21 N          50.3157   16.5009   -6.2412 N.2       2 ALA2        0.0000 
     22 N          51.6072   15.7570   -6.4097 N.2       2 ALA2        0.0000 
     23 CA         49.2011   17.8594   -7.4297 C.3       6 GLY6        0.0000 
     24 OG         50.4927   17.1154   -7.5981 O.2       1 SER1        0.0000 
     25 CA         48.0865   19.2178   -8.6181 C.3       6 GLY6        0.0000 
     26 CA         49.3781   18.4738   -8.7866 C.3       6 GLY6        0.0000 
     27 OG         50.6696   17.7298   -8.9550 O.2       1 SER1        0.0000 
     28 N          46.9719   20.5762   -9.8066 N.2       2 ALA2        0.0000 
     29 N          48.2635   19.8322   -9.9750 N.2       2 ALA2        0.0000 
     30 CZ         49.5550   19.0882  -10.1435 C.ar      5 PHE5        0.0000 
     31 N          48.4405   20.4466  -11.3319 N.2       2 ALA2        0.0000 
     32 CZ         49.7320   19.7026  -11.5004 C.ar      5 PHE5        0.0000 
     33 N          48.6174   21.0611  -12.6888 N.2       2 ALA2        0.0000 
     34 CZ         49.9090   20.3171  -12.8573 C.ar      5 PHE5        0.0000 
     35 CA         50.0860   20.9315  -14.2142 C.3       6 GLY6        0.0000 
     36 CA         50.2629   21.5459  -15.5710 C.3       6 GLY6        0.0000 
     37 DU         50.4399   22.1603  -16.9279 H         7 CUB7        0.0000 
     38 CZ         51.6414   14.4477   -0.3653 C.ar      5 PHE5        0.0000 
     39 CZ         52.9329   13.7037   -0.5337 C.ar      5 PHE5        0.0000 
     40 N          51.8183   15.0621   -1.7222 N.2       2 ALA2        0.0000 
     41 CA         53.1099   14.3182   -1.8906 C.3       6 GLY6        0.0000 
     42 CA         54.4014   13.5742   -2.0591 C.3       6 GLY6        0.0000 
     43 N          53.2869   14.9326   -3.2475 N.2       2 ALA2        0.0000 
     44 O          54.5784   14.1886   -3.4160 O.2       2 ALA2        0.0000 
     45 N          52.1723   16.2910   -4.4360 N.2       2 ALA2        0.0000 
     46 N          53.4638   15.5470   -4.6044 N.2       2 ALA2        0.0000 
     47 N          51.0577   17.6494   -5.6244 N.2       2 ALA2        0.0000 
     48 N          52.3492   16.9054   -5.7929 N.2       2 ALA2        0.0000 
     49 CA         49.9431   19.0078   -6.8129 C.3       6 GLY6        0.0000 
     50 OG         51.2347   18.2638   -6.9813 O.2       1 SER1        0.0000 
     51 CA         50.1201   19.6222   -8.1698 C.3       6 GLY6        0.0000 
     52 OG         51.4116   18.8783   -8.3382 O.2       1 SER1        0.0000 
     53 N          49.0055   20.9807   -9.3582 N.2       2 ALA2        0.0000 
     54 OG         50.2971   20.2367   -9.5267 O.2       1 SER1        0.0000 
     55 N          49.1825   21.5951  -10.7151 N.2       2 ALA2        0.0000 
     56 CZ         50.4740   20.8511  -10.8835 C.ar      5 PHE5        0.0000 
     57 N          49.3594   22.2095  -12.0720 N.2       2 ALA2        0.0000 
     58 CZ         50.6510   21.4655  -12.2404 C.ar      5 PHE5        0.0000 
     59 CA         48.2449   23.5679  -13.2604 C.3       6 GLY6        0.0000 
     60 DU         49.5364   22.8239  -13.4289 H         7 CUB7        0.0000 
     61 DU         50.8280   22.0799  -13.5973 H         7 CUB7        0.0000 
     62 CZ         52.1195   21.3360  -13.7658 C.ar      5 PHE5        0.0000 
     63 NZ         49.7134   23.4384  -14.7858 N.2       4 LYS4        0.0000 
     64 NZ         51.0049   22.6944  -14.9542 N.2       4 LYS4        0.0000 
     65 CA         52.2965   21.9504  -15.1227 C.3       6 GLY6        0.0000 
     66 NZ         49.8904   24.0528  -16.1427 N.2       4 LYS4        0.0000 
     67 NZ         51.1819   23.3088  -16.3111 N.2       4 LYS4        0.0000 
     68 N          51.2688   16.9546   -0.9369 N.2       2 ALA2        0.0000 
     69 CA         52.5603   16.2106   -1.1054 C.3       6 GLY6        0.0000 
     70 N          52.7373   16.8250   -2.4622 N.2       2 ALA2        0.0000 
     71 CA         54.0289   16.0810   -2.6307 C.3       6 GLY6        0.0000 
     72 N          51.6227   18.1834   -3.6507 N.2       2 ALA2        0.0000 
     73 N          52.9143   17.4395   -3.8191 N.2       2 ALA2        0.0000 
     74 CA         54.2058   16.6955   -3.9876 C.3       6 GLY6        0.0000 
     75 N          51.7997   18.7979   -5.0076 N.2       2 ALA2        0.0000 
     76 N          53.0913   18.0539   -5.1760 N.2       2 ALA2        0.0000 
     77 OD1        51.9767   19.4123   -6.3645 O.3       3 ASP3        0.0000 
     78 NZ         50.8621   20.7707   -7.5529 N.2       4 LYS4        0.0000 
     79 N          49.7475   22.1291   -8.7414 N.2       2 ALA2        0.0000 
     80 CA         51.0391   21.3851   -8.9098 C.3       6 GLY6        0.0000 
     81 N          49.9245   22.7435  -10.0983 N.2       2 ALA2        0.0000 
     82 CA         51.2160   21.9996  -10.2667 C.3       6 GLY6        0.0000 
     83 CA         50.1015   23.3580  -11.4552 C.3       6 GLY6        0.0000 
     84 O          51.3930   22.6140  -11.6236 O.2       2 ALA2        0.0000 
     85 CZ         52.6846   21.8700  -11.7921 C.ar      5 PHE5        0.0000 
     86 NZ         50.2784   23.9724  -12.8121 N.2       4 LYS4        0.0000 
     87 NZ         51.5700   23.2284  -12.9805 N.2       4 LYS4        0.0000 
     88 O          52.8615   22.4844  -13.1490 O.2       2 ALA2        0.0000 
     89 NZ         51.7469   23.8428  -14.3374 N.2       4 LYS4        0.0000 
     90 CA         52.0108   18.1031   -0.3201 C.3       6 GLY6        0.0000 
     91 CA         53.3024   17.3591   -0.4885 C.3       6 GLY6        0.0000 
     92 NZ         52.1878   18.7175   -1.6770 N.2       4 LYS4        0.0000 
     93 CA         53.4793   17.9735   -1.8454 C.3       6 GLY6        0.0000 
     94 CA         54.7709   17.2295   -2.0139 C.3       6 GLY6        0.0000 
     95 NZ         53.6563   18.5879   -3.2023 N.2       4 LYS4        0.0000 
     96 O          54.9478   17.8439   -3.3708 O.2       2 ALA2        0.0000 
     97 N          53.8333   19.2023   -4.5592 N.2       2 ALA2        0.0000 
     98 CA         52.7528   19.2515    0.2967 C.3       6 GLY6        0.0000 
     99 CA         54.0444   18.5075    0.1283 C.3       6 GLY6        0.0000 
    100 NZ         52.9298   19.8659   -1.0602 N.2       4 LYS4        0.0000 
    101 DU         54.2213   19.1219   -1.2286 H         7 CUB7        0.0000 
    102 O          55.5129   18.3780   -1.3971 O.2       2 ALA2        0.0000 
    103 CA         54.3983   19.7364   -2.5855 C.3       6 GLY6        0.0000 
    104 CA         53.6718   21.0144   -0.4434 C.3       6 GLY6        0.0000 
    105 CA         54.9633   20.2704   -0.6118 C.3       6 GLY6        0.0000 
@<TRIPOS>BOND
@<TRIPOS>SUBSTRUCTURE
     1 SER1       24 GROUP   
     2 ALA2        1 GROUP   
     3 ASP3       77 GROUP   
     4 LYS4       63 GROUP   
     5 PHE5        7 GROUP   
     6 GLY6       19 GROUP   
     7 CUB7        3 GROUP   
@<TRIPOS>SET

