#    Name: 4tmn_0PK_1_INTS_M
#    Modification time : Tue Mar 25 13:43:13 2014

@<TRIPOS>MOLECULE
4tmn_0PK_1_INTS_M
   65     0    12     0     0
SMALL
NO_CHARGES


@<TRIPOS>ATOM
      1 N          48.9200   22.2435   -7.4125 N.am      2 SEC2        0.0000 
      2 N          49.8980   21.2520   -7.7970 N.am     10 SEL2        0.0000 
      3 N          47.9420   23.2350   -7.0280 N.am      6 SEP2        0.0000 
      4 CA         52.0770   22.9665   -9.6005 C.3       4 GLC5        0.0000 
      5 CA         51.0060   21.9060  -10.4060 C.3      12 GLL5        0.0000 
      6 CA         53.1480   24.0270   -8.7950 C.3       8 GLP5        0.0000 
      7 CA         52.5360   20.5915  -11.0370 C.3       4 GLC5        0.0000 
      8 CA         54.0660   19.2770  -11.6680 C.3       8 GLP5        0.0000 
      9 O          52.1260   18.5795   -8.9960 O.2       1 ALC1        0.0000 
     10 O          50.7810   19.1360   -8.2400 O.2       9 ALL1        0.0000 
     11 O          53.4710   18.0230   -9.7520 O.2       5 ALP1        0.0000 
     12 CA         48.9340   19.5080   -6.6540 C.3       4 GLC5        0.0000 
     13 CA         50.6650   18.6430   -6.8390 C.3      12 GLL5        0.0000 
     14 CA         47.2030   20.3730   -6.4690 C.3       8 GLP5        0.0000 
     15 Zn         53.8860   19.4630   -6.8660 Zn        3 ZIC7        0.0000 
     16 Zn         53.3330   18.5400   -6.7090 Zn       11 ZIL7        0.0000 
     17 Zn         54.4390   20.3860   -7.0230 Zn        7 ZIP7        0.0000 
     18 N          53.9160   17.3555   -6.9860 N.am      2 SEC2        0.0000 
     19 N          53.3330   18.5400   -6.7090 N.am     10 SEL2        0.0000 
     20 N          54.4990   16.1710   -7.2630 N.am      6 SEP2        0.0000 
     21 Zn         53.2735   20.5590   -6.4815 Zn        3 ZIC7        0.0000 
     22 Zn         52.1080   20.7320   -5.9400 Zn       11 ZIL7        0.0000 
     23 CA         52.3830   16.2050   -7.5405 C.3       4 GLC5        0.0000 
     24 CA         50.6690   17.1570   -6.9730 C.3      12 GLL5        0.0000 
     25 CA         54.0970   15.2530   -8.1080 C.3       8 GLP5        0.0000 
     26 CA         53.8910   20.2515   -4.0350 C.3       4 GLC5        0.0000 
     27 CA         52.9050   18.3320   -3.4760 C.3      12 GLL5        0.0000 
     28 CA         54.8770   22.1710   -4.5940 C.3       8 GLP5        0.0000 
     29 N          56.1430   16.3320   -3.4490 N.am      2 SEC2        0.0000 
     30 N          54.8700   16.9190   -3.6050 N.am     10 SEL2        0.0000 
     31 N          57.4160   15.7450   -3.2930 N.am      6 SEP2        0.0000 
     32 N          56.1820   17.4635   -3.5090 N.am      2 SEC2        0.0000 
     33 N          57.4940   18.0080   -3.4130 N.am      6 SEP2        0.0000 
     34 CA         54.4000   20.4035    0.6085 C.3       4 GLC5        0.0000 
     35 CA         54.6920   19.6480   -1.2450 C.3      12 GLL5        0.0000 
     36 CA         54.1080   21.1590    2.4620 C.3       8 GLP5        0.0000 
     37 CA         55.2665   21.1125   -2.4915 C.3       4 GLC5        0.0000 
     38 CA         55.8410   22.5770   -3.7380 C.3       8 GLP5        0.0000 
     39 CA         56.6420   19.5210   -0.5565 C.3       4 GLC5        0.0000 
     40 CA         58.5920   19.3940    0.1320 C.3       8 GLP5        0.0000 
     41 CA         52.7910   16.3925    1.3170 C.3       4 GLC5        0.0000 
     42 CA         53.1860   18.1970    0.2480 C.3      12 GLL5        0.0000 
     43 CA         52.3960   14.5880    2.3860 C.3       8 GLP5        0.0000 
     44 CA         51.4320   18.0390    1.0715 C.3       4 GLC5        0.0000 
     45 CA         49.6780   17.8810    1.8950 C.3       8 GLP5        0.0000 
     46 CA         53.6470   19.6780    1.3550 C.3       4 GLC5        0.0000 
     47 O          51.3645   16.1260   -3.5020 O.2       1 ALC1        0.0000 
     48 O          52.8650   15.9260   -3.7510 O.2       9 ALL1        0.0000 
     49 O          49.8640   16.3260   -3.2530 O.2       5 ALP1        0.0000 
     50 CA         54.5395   15.1780   -5.3045 C.3       4 GLC5        0.0000 
     51 CA         53.3430   14.5330   -3.8630 C.3      12 GLL5        0.0000 
     52 CA         55.7360   15.8230   -6.7460 C.3       8 GLP5        0.0000 
     53 N          50.3715   14.3785   -4.8815 N.am      2 SEC2        0.0000 
     54 N          51.6740   14.3100   -5.6210 N.am     10 SEL2        0.0000 
     55 N          49.0690   14.4470   -4.1420 N.am      6 SEP2        0.0000 
     56 CA         54.3790   14.6240   -1.3185 C.3       4 GLC5        0.0000 
     57 CA         53.0150   13.8090   -2.5700 C.3      12 GLL5        0.0000 
     58 CA         55.7430   15.4390   -0.0670 C.3       8 GLP5        0.0000 
     59 CA         51.2756   20.0596  -14.5594 C.3       4 GLC5        0.0000 
     60 CA         50.4180   20.6180  -12.5940 C.3      12 GLL5        0.0000 
     61 CA         52.7970   18.9670  -15.2550 C.3       8 GLP5        0.0000 
     62 CA         47.5433   18.5064   -6.9146 C.3       4 GLC5        0.0000 
     63 CA         49.3730   16.7970   -7.6700 C.3      12 GLL5        0.0000 
     64 CA         54.7341   17.0216   -0.2655 C.3       4 GLC5        0.0000 
     65 CA         53.8370   18.3750   -1.1070 C.3      12 GLL5        0.0000 
@<TRIPOS>BOND
@<TRIPOS>SUBSTRUCTURE
     1 ALC1        9 GROUP        1 X    ALC  0     ROOT ALC X 1
     2 SEC2        1 GROUP        1 X    SEC  0     **** SEC X 2
     3 ZIC7       15 GROUP        1 X    ZIC  0     **** ZIC X 5
     4 GLC5        4 GROUP        1 X    GLC  0     **** GLC X 6
     5 ALP1       11 GROUP        1 Y    ALP  0     ROOT ALP Y 8
     6 SEP2        3 GROUP        1 Y    SEP  0     **** SEP Y 9
     7 ZIP7       17 GROUP        1 Y    ZIP  0     **** ZIP Y 12
     8 GLP5        6 GROUP        1 Y    GLP  0     **** GLP Y 13
     9 ALL1       10 GROUP        1 Z    ALL  0     ROOT ALL Z 15
    10 SEL2        2 GROUP        1 Z    SEL  0     **** SEL Z 16
    11 ZIL7       16 GROUP        1 Z    ZIL  0     **** ZIL Z 19
    12 GLL5        5 GROUP        1 Z    GLL  0     **** GLL Z 20
@<TRIPOS>SET

