#    Name: 4tmn_0PK_1_ligand
#    Modification time : Tue Mar 25 13:43:13 2014

@<TRIPOS>MOLECULE
4tmn_0PK_1_ligand
   67    68     1     0     0
SMALL
NO_CHARGES


@<TRIPOS>ATOM
      1 C1         50.4290   20.3870   -8.5740 C.2       1 0PK317      0.0000 
      2 O1         49.8980   21.2520   -7.7970 O.2       1 0PK317      0.0000 
      3 O2         50.7950   20.5820   -9.8890 O.3       1 0PK317      0.0000 
      4 C2         51.0060   21.9060  -10.4060 C.3       1 0PK317      0.0000 
      5 C3         50.5090   21.7670  -11.8010 C.ar      1 0PK317      0.0000 
      6 C4         50.4180   20.6180  -12.5940 C.ar      1 0PK317      0.0000 
      7 C5         49.8730   20.6070  -13.9050 C.ar      1 0PK317      0.0000 
      8 C6         49.3630   21.6920  -14.4780 C.ar      1 0PK317      0.0000 
      9 C7         49.5010   22.7460  -13.6670 C.ar      1 0PK317      0.0000 
     10 C8         50.0170   22.8810  -12.3620 C.ar      1 0PK317      0.0000 
     11 N          50.7810   19.1360   -8.2400 N.am      1 0PK317      0.0000 
     12 CA         50.6650   18.6430   -6.8390 C.3       1 0PK317      0.0000 
     13 P          52.0320   19.1530   -6.0640 P.3       1 0PK317      0.0000 
     14 O1P        53.3330   18.5400   -6.7090 O.co2     1 0PK317      0.0000 
     15 O2P        52.1080   20.7320   -5.9400 O.co2     1 0PK317      0.0000 
     16 CB         50.6690   17.1570   -6.9730 C.3       1 0PK317      0.0000 
     17 CG         49.3730   16.7970   -7.6700 C.ar      1 0PK317      0.0000 
     18 CD1        48.2170   16.7880   -6.8790 C.ar      1 0PK317      0.0000 
     19 CD2        49.3280   16.5600   -9.0210 C.ar      1 0PK317      0.0000 
     20 CE1        46.9720   16.4870   -7.4460 C.ar      1 0PK317      0.0000 
     21 CE2        48.0930   16.2460   -9.6070 C.ar      1 0PK317      0.0000 
     22 CZ         46.9150   16.2080   -8.8060 C.ar      1 0PK317      0.0000 
     23 N1         51.7070   18.5030   -4.3100 N.3       1 0PK317      0.0000 
     24 CA1        52.9050   18.3320   -3.4760 C.3       1 0PK317      0.0000 
     25 C          53.6360   16.9900   -3.6430 C.2       1 0PK317      0.0000 
     26 O          54.8700   16.9190   -3.6050 O.2       1 0PK317      0.0000 
     27 CB1        52.6060   18.4710   -1.9780 C.3       1 0PK317      0.0000 
     28 CG1        53.8370   18.3750   -1.1070 C.3       1 0PK317      0.0000 
     29 CD11       54.6920   19.6480   -1.2450 C.3       1 0PK317      0.0000 
     30 CD21       53.1860   18.1970    0.2480 C.3       1 0PK317      0.0000 
     31 N2         52.8650   15.9260   -3.7510 N.am      1 0PK317      0.0000 
     32 CA2        53.3430   14.5330   -3.8630 C.3       1 0PK317      0.0000 
     33 C9         52.6830   13.8220   -5.0710 C.2       1 0PK317      0.0000 
     34 O3         51.6740   14.3100   -5.6210 O.co2     1 0PK317      0.0000 
     35 CB2        53.0150   13.8090   -2.5700 C.3       1 0PK317      0.0000 
     36 OXT        53.1340   12.7780   -5.6680 O.co2     1 0PK317      0.0000 
     37 H          52.0420   22.1635  -10.4194 H         1 0PK317      0.0000 
     38 H          50.4176   22.6302   -9.8872 H         1 0PK317      0.0000 
     39 H          50.7698   19.7097  -12.2060 H         1 0PK317      0.0000 
     40 H          49.8915   19.6842  -14.4115 H         1 0PK317      0.0000 
     41 H          48.9451   21.7204  -15.3665 H         1 0PK317      0.0000 
     42 H          49.1433   23.7250  -14.0850 H         1 0PK317      0.0000 
     43 H          50.0015   23.7794  -11.9050 H         1 0PK317      0.0000 
     44 H          51.1468   18.4523   -8.9218 H         1 0PK317      0.0000 
     45 H          49.8543   19.0148   -6.3572 H         1 0PK317      0.0000 
     46 H          50.6941   16.6942   -6.0037 H         1 0PK317      0.0000 
     47 H          51.4995   16.8381   -7.5755 H         1 0PK317      0.0000 
     48 H          48.2827   17.0036   -5.8762 H         1 0PK317      0.0000 
     49 H          50.1669   16.6078   -9.5987 H         1 0PK317      0.0000 
     50 H          46.1340   16.4743   -6.8723 H         1 0PK317      0.0000 
     51 H          48.0276   16.0435  -10.6047 H         1 0PK317      0.0000 
     52 H          46.0209   15.9699   -9.2538 H         1 0PK317      0.0000 
     53 H          53.6466   19.1202   -3.7079 H         1 0PK317      0.0000 
     54 H          51.8898   17.6857   -1.6891 H         1 0PK317      0.0000 
     55 H          52.1106   19.4399   -1.8078 H         1 0PK317      0.0000 
     56 H          54.3688   17.5103   -1.3653 H         1 0PK317      0.0000 
     57 H          51.8026   16.0127   -3.7644 H         1 0PK317      0.0000 
     58 H          54.4103   14.5203   -4.0043 H         1 0PK317      0.0000 
     59 H          55.5126   19.6079   -0.6749 H         1 0PK317      0.0000 
     60 H          54.9962   19.7908   -2.1868 H         1 0PK317      0.0000 
     61 H          54.1860   20.4665   -0.9731 H         1 0PK317      0.0000 
     62 H          53.8509   17.9366    0.9481 H         1 0PK317      0.0000 
     63 H          52.7445   19.0378    0.5613 H         1 0PK317      0.0000 
     64 H          52.4835   17.4855    0.2319 H         1 0PK317      0.0000 
     65 H          53.3209   12.8571   -2.5894 H         1 0PK317      0.0000 
     66 H          53.4520   14.2412   -1.7812 H         1 0PK317      0.0000 
     67 H          52.0314   13.7972   -2.3902 H         1 0PK317      0.0000 
@<TRIPOS>BOND
     1    2    1 2    
     2    3    1 1    
     3   11    1 am   
     4    4    3 1    
     5    5    4 1    
     6   37    4 1    
     7   38    4 1    
     8    6    5 ar   
     9   10    5 ar   
    10    7    6 ar   
    11   39    6 1    
    12    8    7 ar   
    13   40    7 1    
    14    9    8 ar   
    15   41    8 1    
    16   10    9 ar   
    17   42    9 1    
    18   43   10 1    
    19   12   11 1    
    20   44   11 1    
    21   13   12 1    
    22   16   12 1    
    23   45   12 1    
    24   14   13 ar   
    25   15   13 ar   
    26   23   13 1    
    27   17   16 1    
    28   46   16 1    
    29   47   16 1    
    30   18   17 ar   
    31   19   17 ar   
    32   20   18 ar   
    33   48   18 1    
    34   21   19 ar   
    35   49   19 1    
    36   22   20 ar   
    37   50   20 1    
    38   22   21 ar   
    39   51   21 1    
    40   52   22 1    
    41   24   23 1    
    42   25   24 1    
    43   27   24 1    
    44   53   24 1    
    45   26   25 2    
    46   31   25 am   
    47   28   27 1    
    48   54   27 1    
    49   55   27 1    
    50   29   28 1    
    51   30   28 1    
    52   56   28 1    
    53   59   29 1    
    54   60   29 1    
    55   61   29 1    
    56   62   30 1    
    57   63   30 1    
    58   64   30 1    
    59   32   31 1    
    60   57   31 1    
    61   33   32 1    
    62   35   32 1    
    63   58   32 1    
    64   34   33 ar   
    65   36   33 ar   
    66   65   35 1    
    67   66   35 1    
    68   67   35 1    
@<TRIPOS>SUBSTRUCTURE
     1 0PK317      1 GROUP   
@<TRIPOS>SET

