#    Name: 1hf3_NAD_2_INTS_M
#    Modification time : Tue Mar 25 05:28:41 2014

@<TRIPOS>MOLECULE
1hf3_NAD_2_INTS_M
  112     0    12     0     0
SMALL
NO_CHARGES


@<TRIPOS>ATOM
      1 NZ          8.0630  -19.8255   -4.5540 N.4       3 LYC4        0.0000 
      2 NZ          7.1660  -19.0990   -3.6850 N.4      11 LYL4        0.0000 
      3 NZ          9.7480  -20.8020   -4.4000 N.4       7 LYP4        0.0000 
      4 N           8.2655  -19.7415   -3.4415 N.am      2 SEC2        0.0000 
      5 N           7.1660  -19.0990   -3.6850 N.am     10 SEL2        0.0000 
      6 N           9.3650  -20.3840   -3.1980 N.am      6 SEP2        0.0000 
      7 N           8.0630  -19.8255   -4.5540 N.am      2 SEC2        0.0000 
      8 N           8.9600  -20.5520   -5.4230 N.am      6 SEP2        0.0000 
      9 CA          4.8635  -13.8660   -4.4995 C.3       4 GLC5        0.0000 
     10 CA          5.5750  -15.5790   -4.9550 C.3      12 GLL5        0.0000 
     11 CA          4.1520  -12.1530   -4.0440 C.3       8 GLP5        0.0000 
     12 N           3.5365  -17.3385   -7.0875 N.am      2 SEC2        0.0000 
     13 N           4.1600  -16.2080   -6.8740 N.am     10 SEL2        0.0000 
     14 N           2.9130  -18.4690   -7.3010 N.am      6 SEP2        0.0000 
     15 O           3.8160  -15.0005   -7.1665 O.2       1 ALC1        0.0000 
     16 O           4.1600  -16.2080   -6.8740 O.2       9 ALL1        0.0000 
     17 O           3.4720  -13.7930   -7.4590 O.2       5 ALP1        0.0000 
     18 O           5.4510  -14.6640   -8.9495 O.2       1 ALC1        0.0000 
     19 O           6.2370  -15.6610   -8.5880 O.2       9 ALL1        0.0000 
     20 O           4.6650  -13.6670   -9.3110 O.2       5 ALP1        0.0000 
     21 CA          5.3090  -13.2055   -5.3430 C.3       4 GLC5        0.0000 
     22 CA          6.4660  -14.2580   -6.6420 C.3      12 GLL5        0.0000 
     23 CA          6.9930  -12.9720   -4.9755 C.3       4 GLC5        0.0000 
     24 CA          7.5200  -11.6860   -3.3090 C.3       8 GLP5        0.0000 
     25 NZ          4.0575  -20.9755    0.2730 N.4       3 LYC4        0.0000 
     26 NZ          5.1590  -20.0930    0.1660 N.4      11 LYL4        0.0000 
     27 NZ          2.6480  -22.3760    1.5580 N.4       7 LYP4        0.0000 
     28 N           6.2425  -21.1955    0.4445 N.am      2 SEC2        0.0000 
     29 N           5.1590  -20.0930    0.1660 N.am     10 SEL2        0.0000 
     30 N           7.3260  -22.2980    0.7230 N.am      6 SEP2        0.0000 
     31 N           4.0575  -20.9755    0.2730 N.am      2 SEC2        0.0000 
     32 N           2.9560  -21.8580    0.3800 N.am      6 SEP2        0.0000 
     33 N           2.5560  -17.8505    0.1140 N.am      2 SEC2        0.0000 
     34 N           3.9300  -17.9200   -0.5130 N.am     10 SEL2        0.0000 
     35 N           1.1820  -17.7810    0.7410 N.am      6 SEP2        0.0000 
     36 CA          4.4610  -16.5930    1.5395 C.3       4 GLC5        0.0000 
     37 CA          6.3020  -16.5360    0.6460 C.3      12 GLL5        0.0000 
     38 CA          2.6200  -16.6500    2.4330 C.3       8 GLP5        0.0000 
     39 CA          5.0345  -14.8990    1.0565 C.3       4 GLC5        0.0000 
     40 CA          3.7670  -13.2620    1.4670 C.3       8 GLP5        0.0000 
     41 CA          7.9535  -14.5675   -0.0045 C.3       4 GLC5        0.0000 
     42 CA          7.4660  -16.0340    1.3640 C.3      12 GLL5        0.0000 
     43 CA          8.4410  -13.1010   -1.3730 C.3       8 GLP5        0.0000 
     44 CA          9.2235  -18.3255    0.2910 C.3       4 GLC5        0.0000 
     45 CA          8.7910  -16.8410    1.4230 C.3      12 GLL5        0.0000 
     46 CA          9.6560  -19.8100   -0.8410 C.3       8 GLP5        0.0000 
     47 N          11.0815  -17.2085    1.4860 N.am      2 SEC2        0.0000 
     48 N           9.9380  -16.1360    1.5210 N.am     10 SEL2        0.0000 
     49 N          12.2250  -18.2810    1.4510 N.am      6 SEP2        0.0000 
     50 N          10.4435  -15.2570    2.6665 N.am      2 SEC2        0.0000 
     51 N          10.9490  -14.3780    3.8120 N.am      6 SEP2        0.0000 
     52 O           9.9940  -15.4570    0.4205 O.2       1 ALC1        0.0000 
     53 O           9.9380  -16.1360    1.5210 O.2       9 ALL1        0.0000 
     54 O          10.0500  -14.7780   -0.6800 O.2       5 ALP1        0.0000 
     55 CA          8.4750  -19.1325    1.1345 C.3       4 GLC5        0.0000 
     56 CA          8.5870  -17.8500    2.6120 C.3      12 GLL5        0.0000 
     57 CA          8.3630  -20.4150   -0.3430 C.3       8 GLP5        0.0000 
     58 CA         10.6260  -18.4900    2.5225 C.3       4 GLC5        0.0000 
     59 CA         12.6650  -19.1300    2.4330 C.3       8 GLP5        0.0000 
     60 N           9.6680  -19.2310    4.0300 N.am      2 SEC2        0.0000 
     61 N           9.7740  -18.2810    3.1150 N.am     10 SEL2        0.0000 
     62 N           9.5620  -20.1810    4.9450 N.am      6 SEP2        0.0000 
     63 CA          8.5645  -14.8740    3.4045 C.3       4 GLC5        0.0000 
     64 CA          8.0540  -16.7430    3.6120 C.3      12 GLL5        0.0000 
     65 CA          9.0750  -13.0050    3.1970 C.3       8 GLP5        0.0000 
     66 CA          9.3550  -16.4860    5.9005 C.3       4 GLC5        0.0000 
     67 CA          7.5350  -16.4740    6.0070 C.3      12 GLL5        0.0000 
     68 CA         11.1750  -16.4980    5.7940 C.3       8 GLP5        0.0000 
     69 N           5.6105  -16.1060   10.4495 N.am      2 SEC2        0.0000 
     70 N           6.4220  -16.2980    9.3460 N.am     10 SEL2        0.0000 
     71 N           4.7990  -15.9140   11.5530 N.am      6 SEP2        0.0000 
     72 O           7.5955  -14.0325    6.8990 O.2       1 ALC1        0.0000 
     73 O           7.2620  -14.5700    8.1790 O.2       9 ALL1        0.0000 
     74 O           7.9290  -13.4950    5.6190 O.2       5 ALP1        0.0000 
     75 O           7.0055  -13.5200    9.1635 O.2       1 ALC1        0.0000 
     76 O           6.7490  -12.4700   10.1480 O.2       5 ALP1        0.0000 
     77 CA          9.5335  -12.5735   -5.5545 C.3       4 GLC5        0.0000 
     78 CA          9.3940  -12.2060   -7.5680 C.3      12 GLL5        0.0000 
     79 CA          9.6730  -12.9410   -3.5410 C.3       8 GLP5        0.0000 
     80 CA          8.9070  -10.6915   -6.0605 C.3       4 GLC5        0.0000 
     81 CA          9.9450  -10.9130   -7.9960 C.3      12 GLL5        0.0000 
     82 CA          7.8690  -10.4700   -4.1250 C.3       8 GLP5        0.0000 
     83 CA          5.7020  -10.4595   -8.5250 C.3       4 GLC5        0.0000 
     84 CA          7.6610  -10.0920   -7.8990 C.3      12 GLL5        0.0000 
     85 CA          3.7430  -10.8270   -9.1510 C.3       8 GLP5        0.0000 
     86 CA          7.9685  -10.1585   -9.7165 C.3       4 GLC5        0.0000 
     87 CA          8.2760  -10.2250  -11.5340 C.3       8 GLP5        0.0000 
     88 CA          7.7650  -10.2810   -6.0120 C.3       4 GLC5        0.0000 
     89 CA          8.0230  -12.5430   -9.2260 C.3       4 GLC5        0.0000 
     90 CA          7.9980  -12.3420   -7.3440 C.3      12 GLL5        0.0000 
     91 CA          8.0480  -12.7440  -11.1080 C.3       8 GLP5        0.0000 
     92 CA          7.9335  -11.4060   -5.7345 C.3       4 GLC5        0.0000 
     93 CA          4.0330  -16.7538   -3.9715 C.3       4 GLC5        0.0000 
     94 CA          2.1150  -17.5550   -3.5310 C.3       8 GLP5        0.0000 
     95 CA          8.6017  -14.7213    2.2953 C.3       4 GLC5        0.0000 
     96 CA          9.7477  -16.8972    4.4530 C.3       4 GLC5        0.0000 
     97 CA          5.9697  -14.9087    6.0130 C.3       4 GLC5        0.0000 
     98 CA          4.8050  -13.1800    5.4890 C.3       8 GLP5        0.0000 
     99 CA          6.1203  -20.1763    4.4292 C.3       4 GLC5        0.0000 
    100 CA          5.6410  -18.4940    5.7850 C.3      12 GLL5        0.0000 
    101 CA          6.1910  -21.9570    3.5750 C.3       8 GLP5        0.0000 
    102 CA          4.6609  -16.7919    7.0084 C.3       4 GLC5        0.0000 
    103 CA          3.3330  -15.6410    7.5620 C.3       8 GLP5        0.0000 
    104 CA          4.5533  -18.2478    4.0702 C.3       4 GLC5        0.0000 
    105 CA          3.0570  -18.1000    2.8570 C.3       8 GLP5        0.0000 
    106 CA          5.1865  -19.6112    6.5809 C.3       4 GLC5        0.0000 
    107 CA          6.4580  -18.2970    4.7820 C.3      12 GLL5        0.0000 
    108 CA          4.2490  -20.9550    7.5290 C.3       8 GLP5        0.0000 
    109 CA          9.5993  -12.2848   -9.4505 C.3       4 GLC5        0.0000 
    110 CA          9.5290  -13.0100  -11.1190 C.3       8 GLP5        0.0000 
    111 CA         11.3062  -11.4352   -6.5350 C.3       4 GLC5        0.0000 
    112 CA         12.9430  -11.3110   -5.2880 C.3       8 GLP5        0.0000 
@<TRIPOS>BOND
@<TRIPOS>SUBSTRUCTURE
     1 ALC1       15 GROUP        1 X    ALC  0     ROOT ALC X 1
     2 SEC2        4 GROUP        1 X    SEC  0     **** SEC X 2
     3 LYC4        1 GROUP        1 X    LYC  0     **** LYC X 4
     4 GLC5        9 GROUP        1 X    GLC  0     **** GLC X 6
     5 ALP1       17 GROUP        1 Y    ALP  0     ROOT ALP Y 8
     6 SEP2        6 GROUP        1 Y    SEP  0     **** SEP Y 9
     7 LYP4        3 GROUP        1 Y    LYP  0     **** LYP Y 11
     8 GLP5       11 GROUP        1 Y    GLP  0     **** GLP Y 13
     9 ALL1       16 GROUP        1 Z    ALL  0     ROOT ALL Z 15
    10 SEL2        5 GROUP        1 Z    SEL  0     **** SEL Z 16
    11 LYL4        2 GROUP        1 Z    LYL  0     **** LYL Z 18
    12 GLL5       10 GROUP        1 Z    GLL  0     **** GLL Z 20
@<TRIPOS>SET

