#    Name: 1hf3_NAD_2_ligand
#    Modification time : Tue Mar 25 05:28:42 2014

@<TRIPOS>MOLECULE
1hf3_NAD_2_ligand
   69    73     1     0     0
SMALL
NO_CHARGES


@<TRIPOS>ATOM
      1 PA          5.7970  -18.8520   -3.1230 P.3       1 NAD402      0.0000 
      2 O1A         7.1660  -19.0990   -3.6850 O.co2     1 NAD402      0.0000 
      3 O2A         4.6310  -19.7470   -3.1910 O.co2     1 NAD402      0.0000 
      4 O5B         5.3660  -17.4020   -3.5450 O.3       1 NAD402      0.0000 
      5 C5B         6.3270  -16.3260   -3.8690 C.3       1 NAD402      0.0000 
      6 C4B         5.5750  -15.5790   -4.9550 C.3       1 NAD402      0.0000 
      7 O4B         6.4830  -14.4710   -5.2590 O.3       1 NAD402      0.0000 
      8 C3B         5.5340  -16.3940   -6.3290 C.3       1 NAD402      0.0000 
      9 O3B         4.1600  -16.2080   -6.8740 O.3       1 NAD402      0.0000 
     10 C2B         6.5100  -15.7050   -7.2660 C.3       1 NAD402      0.0000 
     11 O2B         6.2370  -15.6610   -8.5880 O.3       1 NAD402      0.0000 
     12 C1B         6.4660  -14.2580   -6.6420 C.3       1 NAD402      0.0000 
     13 O3          6.0730  -18.6040   -1.5980 O.3       1 NAD402      0.0000 
     14 PN          5.1400  -18.7470   -0.2770 P.3       1 NAD402      0.0000 
     15 O1N         5.1590  -20.0930    0.1660 O.co2     1 NAD402      0.0000 
     16 O2N         3.9300  -17.9200   -0.5130 O.co2     1 NAD402      0.0000 
     17 O5D         6.0580  -17.9870    0.8200 O.3       1 NAD402      0.0000 
     18 C5D         6.3020  -16.5360    0.6460 C.3       1 NAD402      0.0000 
     19 C4D         7.4660  -16.0340    1.3640 C.3       1 NAD402      0.0000 
     20 O4D         7.0370  -16.0940    2.8360 O.3       1 NAD402      0.0000 
     21 C3D         8.7910  -16.8410    1.4230 C.3       1 NAD402      0.0000 
     22 O3D         9.9380  -16.1360    1.5210 O.3       1 NAD402      0.0000 
     23 C2D         8.5870  -17.8500    2.6120 C.3       1 NAD402      0.0000 
     24 O2D         9.7740  -18.2810    3.1150 O.3       1 NAD402      0.0000 
     25 C1D         8.0540  -16.7430    3.6120 C.3       1 NAD402      0.0000 
     26 N1N         7.4200  -17.2060    4.9110 N.pl3     1 NAD402      0.0000 
     27 C2N         7.5350  -16.4740    6.0070 C.ar      1 NAD402      0.0000 
     28 C3N         6.7340  -16.8010    7.0670 C.ar      1 NAD402      0.0000 
     29 C7N         6.8530  -15.8540    8.2800 C.2       1 NAD402      0.0000 
     30 O7N         6.4220  -16.2980    9.3460 O.2       1 NAD402      0.0000 
     31 N7N         7.2620  -14.5700    8.1790 N.am      1 NAD402      0.0000 
     32 C4N         5.9390  -17.9820    7.1820 C.ar      1 NAD402      0.0000 
     33 C5N         5.6410  -18.4940    5.7850 C.ar      1 NAD402      0.0000 
     34 C6N         6.4580  -18.2970    4.7820 C.ar      1 NAD402      0.0000 
     35 N9A         7.7550  -13.6610   -6.9470 N.pl3     1 NAD402      0.0000 
     36 C8A         9.0290  -14.2010   -6.9800 C.2       1 NAD402      0.0000 
     37 N7A         9.9810  -13.3780   -7.3310 N.2       1 NAD402      0.0000 
     38 C5A         9.3940  -12.2060   -7.5680 C.ar      1 NAD402      0.0000 
     39 C6A         9.9450  -10.9130   -7.9960 C.ar      1 NAD402      0.0000 
     40 N6A        11.1850  -10.5810   -8.2530 N.pl3     1 NAD402      0.0000 
     41 N1A         8.9570   -9.9610   -8.1110 N.ar      1 NAD402      0.0000 
     42 C2A         7.6610  -10.0920   -7.8990 C.ar      1 NAD402      0.0000 
     43 N3A         7.0970  -11.2880   -7.5060 N.ar      1 NAD402      0.0000 
     44 C4A         7.9980  -12.3420   -7.3440 C.ar      1 NAD402      0.0000 
     45 H           7.2214  -16.7229   -4.2691 H         1 NAD402      0.0000 
     46 H           6.4757  -15.6869   -3.0401 H         1 NAD402      0.0000 
     47 H           4.6596  -15.2748   -4.6849 H         1 NAD402      0.0000 
     48 H           5.7757  -17.3647   -6.1525 H         1 NAD402      0.0000 
     49 H           7.5054  -16.0602   -6.9952 H         1 NAD402      0.0000 
     50 H           5.6758  -13.7539   -7.0057 H         1 NAD402      0.0000 
     51 H           5.3903  -15.9769    0.9669 H         1 NAD402      0.0000 
     52 H           6.4072  -16.3171   -0.4438 H         1 NAD402      0.0000 
     53 H           7.6815  -15.0135    1.1734 H         1 NAD402      0.0000 
     54 H           8.7564  -17.5041    0.5192 H         1 NAD402      0.0000 
     55 H           7.8320  -18.4634    2.4045 H         1 NAD402      0.0000 
     56 H           8.8546  -16.0592    3.7928 H         1 NAD402      0.0000 
     57 H           8.1909  -15.6894    6.0808 H         1 NAD402      0.0000 
     58 H           7.5160  -14.2599    7.2629 H         1 NAD402      0.0000 
     59 H           7.2744  -14.0440    9.0294 H         1 NAD402      0.0000 
     60 H           5.6361  -18.3975    7.9422 H         1 NAD402      0.0000 
     61 H           4.7384  -19.0062    5.7132 H         1 NAD402      0.0000 
     62 H           6.4801  -18.8360    3.9248 H         1 NAD402      0.0000 
     63 H           9.1735  -15.1759   -6.7406 H         1 NAD402      0.0000 
     64 H           7.0115   -9.2675   -8.0278 H         1 NAD402      0.0000 
     65 H           4.2193  -15.3949   -7.4532 H         1 NAD402      0.0000 
     66 H           5.9367  -14.7226   -8.7590 H         1 NAD402      0.0000 
     67 H          10.2415  -16.0034    0.5775 H         1 NAD402      0.0000 
     68 H          10.4688  -17.7521    2.6276 H         1 NAD402      0.0000 
     69 H          11.7285  -11.0544   -7.5598 H         1 NAD402      0.0000 
@<TRIPOS>BOND
     1    2    1 ar   
     2    3    1 ar   
     3    4    1 1    
     4   13    1 1    
     5    5    4 1    
     6    6    5 1    
     7   45    5 1    
     8   46    5 1    
     9    7    6 1    
    10    8    6 1    
    11   47    6 1    
    12   12    7 1    
    13    9    8 1    
    14   10    8 1    
    15   48    8 1    
    16   65    9 1    
    17   11   10 1    
    18   12   10 1    
    19   49   10 1    
    20   66   11 1    
    21   35   12 1    
    22   50   12 1    
    23   14   13 1    
    24   15   14 ar   
    25   16   14 ar   
    26   17   14 1    
    27   18   17 1    
    28   19   18 1    
    29   51   18 1    
    30   52   18 1    
    31   20   19 1    
    32   21   19 1    
    33   53   19 1    
    34   25   20 1    
    35   22   21 1    
    36   23   21 1    
    37   54   21 1    
    38   67   22 1    
    39   24   23 1    
    40   25   23 1    
    41   55   23 1    
    42   68   24 1    
    43   26   25 1    
    44   56   25 1    
    45   27   26 ar   
    46   34   26 ar   
    47   28   27 ar   
    48   57   27 1    
    49   29   28 1    
    50   32   28 ar   
    51   30   29 2    
    52   31   29 am   
    53   58   31 1    
    54   59   31 1    
    55   33   32 ar   
    56   60   32 1    
    57   34   33 ar   
    58   61   33 1    
    59   62   34 1    
    60   36   35 1    
    61   44   35 1    
    62   37   36 2    
    63   63   36 1    
    64   38   37 1    
    65   39   38 ar   
    66   44   38 ar   
    67   40   39 1    
    68   41   39 ar   
    69   69   40 1    
    70   42   41 ar   
    71   43   42 ar   
    72   64   42 1    
    73   44   43 ar   
@<TRIPOS>SUBSTRUCTURE
     1 NAD402      1 GROUP   
@<TRIPOS>SET

