#    Name: 3vhd_VHE_2_INTS_M
#    Modification time : Tue Mar 25 00:50:06 2014

@<TRIPOS>MOLECULE
3vhd_VHE_2_INTS_M
   57     0     9     0     0
SMALL
NO_CHARGES


@<TRIPOS>ATOM
      1 CA         14.9690    5.2470    8.7015 C.3       3 GLC5        0.0000 
      2 CA         12.8960    4.7610    9.1750 C.3       9 GLL5        0.0000 
      3 CA         17.0420    5.7330    8.2280 C.3       6 GLP5        0.0000 
      4 CA         11.3785    6.4685   13.3630 C.3       3 GLC5        0.0000 
      5 CA          9.8390    7.3120   12.3890 C.3       9 GLL5        0.0000 
      6 CA         12.9180    5.6250   14.3370 C.3       6 GLP5        0.0000 
      7 CA         11.1035    8.3265   11.6070 C.3       3 GLC5        0.0000 
      8 CA         12.3680    9.3410   10.8250 C.3       6 GLP5        0.0000 
      9 CA          9.8225    7.5115   14.4535 C.3       3 GLC5        0.0000 
     10 CA          9.8060    7.7110   16.5180 C.3       6 GLP5        0.0000 
     11 CA          9.0935    9.2240   13.0715 C.3       3 GLC5        0.0000 
     12 CA          8.3480   11.1360   13.7540 C.3       6 GLP5        0.0000 
     13 CA          7.0395    6.8875    9.5335 C.3       3 GLC5        0.0000 
     14 CA          7.5070    5.6480   11.2710 C.3       9 GLL5        0.0000 
     15 CA          6.5720    8.1270    7.7960 C.3       6 GLP5        0.0000 
     16 CA          5.1520    6.0680   13.8205 C.3       3 GLC5        0.0000 
     17 CA          5.5050    4.6640   12.1080 C.3       9 GLL5        0.0000 
     18 CA          4.7990    7.4720   15.5330 C.3       6 GLP5        0.0000 
     19 CA          6.0990    7.5370    9.7860 C.3       3 GLC5        0.0000 
     20 CA          5.6260    6.9470   11.7760 C.3       9 GLL5        0.0000 
     21 CA          3.7565    5.9495   11.2305 C.3       3 GLC5        0.0000 
     22 CA          1.8870    4.9520   10.6850 C.3       6 GLP5        0.0000 
     23 CA          5.9530    7.4025   13.6230 C.3       3 GLC5        0.0000 
     24 CA          6.2800    7.8580   15.4700 C.3       6 GLP5        0.0000 
     25 O           3.8205    8.7080   12.2600 O.2       1 ALC1        0.0000 
     26 O           5.0400    8.1910   11.7980 O.2       7 ALL1        0.0000 
     27 O           2.6010    9.2250   12.7220 O.2       4 ALP1        0.0000 
     28 CA          3.4865    3.5225   10.4445 C.3       3 GLC5        0.0000 
     29 CA          5.0860    2.0930   10.2040 C.3       9 GLL5        0.0000 
     30 CA          3.5875    0.7950    9.3205 C.3       3 GLC5        0.0000 
     31 CA          2.0890   -0.5030    8.4370 C.3       6 GLP5        0.0000 
     32 N           4.8785   -0.9835    8.7200 N.am      2 SEC2        0.0000 
     33 N           5.6710   -0.1300    9.5770 N.am      8 SEL2        0.0000 
     34 N           4.0860   -1.8370    7.8630 N.am      5 SEP2        0.0000 
     35 CA          3.0615    2.1385   12.4825 C.3       3 GLC5        0.0000 
     36 CA          4.5540    3.2950   12.6300 C.3       9 GLL5        0.0000 
     37 CA          1.5690    0.9820   12.3350 C.3       6 GLP5        0.0000 
     38 CA          3.7925    3.0935   14.3415 C.3       3 GLC5        0.0000 
     39 CA          3.0310    2.8920   16.0530 C.3       6 GLP5        0.0000 
     40 CA         11.3890    4.8522   12.1150 C.3       3 GLC5        0.0000 
     41 CA          9.9560    6.2470   11.3230 C.3       9 GLL5        0.0000 
     42 CA         12.1850    3.5710   13.1820 C.3       6 GLP5        0.0000 
     43 CA         11.7125    7.1677    9.8315 C.3       3 GLC5        0.0000 
     44 CA         11.2300    6.0200   10.7730 C.3       9 GLL5        0.0000 
     45 CA         12.8320    8.2020    8.6150 C.3       6 GLP5        0.0000 
     46 CA         12.5113    6.5508    9.0325 C.3       3 GLC5        0.0000 
     47 CA         11.4850    5.0380    9.7250 C.3       9 GLL5        0.0000 
     48 CA         12.0515    4.1445   11.2562 C.3       3 GLC5        0.0000 
     49 CA          9.0687    5.4311   13.2826 C.3       3 GLC5        0.0000 
     50 CA          8.8840    5.5180   10.8160 C.3       9 GLL5        0.0000 
     51 CA          8.5080    4.2650   14.8360 C.3       6 GLP5        0.0000 
     52 CA          3.4583    4.4657   11.5270 C.3       3 GLC5        0.0000 
     53 CA          7.4221    4.5651   13.3159 C.3       3 GLC5        0.0000 
     54 CA          3.3560    1.4725   11.6490 C.3       3 GLC5        0.0000 
     55 CA          5.2000    1.8330   11.7220 C.3       9 GLL5        0.0000 
     56 CA          6.1405    2.1310   13.4890 C.3       3 GLC5        0.0000 
     57 CA          7.4040    1.6980   14.8020 C.3       6 GLP5        0.0000 
@<TRIPOS>BOND
@<TRIPOS>SUBSTRUCTURE
     1 ALC1       25 GROUP        1 X    ALC  0     ROOT ALC X 1
     2 SEC2       32 GROUP        1 X    SEC  0     **** SEC X 2
     3 GLC5        1 GROUP        1 X    GLC  0     **** GLC X 6
     4 ALP1       27 GROUP        1 Y    ALP  0     ROOT ALP Y 8
     5 SEP2       34 GROUP        1 Y    SEP  0     **** SEP Y 9
     6 GLP5        3 GROUP        1 Y    GLP  0     **** GLP Y 13
     7 ALL1       26 GROUP        1 Z    ALL  0     ROOT ALL Z 15
     8 SEL2       33 GROUP        1 Z    SEL  0     **** SEL Z 16
     9 GLL5        2 GROUP        1 Z    GLL  0     **** GLL Z 20
@<TRIPOS>SET

