#    Name: 3vhd_VHE_2_ligand
#    Modification time : Tue Mar 25 00:50:06 2014

@<TRIPOS>MOLECULE
3vhd_VHE_2_ligand
   50    52     1     0     0
SMALL
NO_CHARGES


@<TRIPOS>ATOM
      1 C1          8.8840    5.5180   10.8160 C.ar      1 VHE1        0.0000 
      2 C2          9.9560    6.2470   11.3230 C.ar      1 VHE1        0.0000 
      3 C3         11.2300    6.0200   10.7730 C.ar      1 VHE1        0.0000 
      4 C4         11.4850    5.0380    9.7250 C.ar      1 VHE1        0.0000 
      5 C5         10.3950    4.3120    9.2470 C.ar      1 VHE1        0.0000 
      6 C6          9.0910    4.5350    9.7830 C.ar      1 VHE1        0.0000 
      7 C7         10.4560    3.3190    8.2150 C.2       1 VHE1        0.0000 
      8 C8         12.8960    4.7610    9.1750 C.3       1 VHE1        0.0000 
      9 O9         11.0120    3.5810    7.1120 O.2       1 VHE1        0.0000 
     10 N10         9.8280    2.1170    8.4830 N.am      1 VHE1        0.0000 
     11 C11         9.8390    7.3120   12.3890 C.3       1 VHE1        0.0000 
     12 C12         7.5070    5.6480   11.2710 C.ar      1 VHE1        0.0000 
     13 C13         6.8280    4.4850   11.6960 C.ar      1 VHE1        0.0000 
     14 C14         5.5050    4.6640   12.1080 C.ar      1 VHE1        0.0000 
     15 N15         4.9210    5.8620   12.1860 N.ar      1 VHE1        0.0000 
     16 C16         5.6260    6.9470   11.7760 C.ar      1 VHE1        0.0000 
     17 N17         6.9320    6.8710   11.3500 N.ar      1 VHE1        0.0000 
     18 N18         5.0400    8.1910   11.7980 N.pl3     1 VHE1        0.0000 
     19 C19         9.7390    0.9520    7.5110 C.3       1 VHE1        0.0000 
     20 C20         8.5720    0.0450    7.9570 C.3       1 VHE1        0.0000 
     21 C21         7.2650    0.6180    7.4470 C.3       1 VHE1        0.0000 
     22 N22         6.5590    1.5450    8.3490 N.am      1 VHE1        0.0000 
     23 C23         5.7850    1.0730    9.3620 C.2       1 VHE1        0.0000 
     24 C24         5.0860    2.0930   10.2040 C.3       1 VHE1        0.0000 
     25 O25         5.6710   -0.1300    9.5770 O.2       1 VHE1        0.0000 
     26 C26         5.2000    1.8330   11.7220 C.3       1 VHE1        0.0000 
     27 S27         4.5540    3.2950   12.6300 S.3       1 VHE1        0.0000 
     28 H          12.0431    6.5673   11.1152 H         1 VHE1        0.0000 
     29 H           8.2985    3.9993    9.4373 H         1 VHE1        0.0000 
     30 H           9.3656    1.9442    9.4035 H         1 VHE1        0.0000 
     31 H           7.2720    3.5939   11.6991 H         1 VHE1        0.0000 
     32 H           5.5912    8.9435   11.4376 H         1 VHE1        0.0000 
     33 H           4.1138    8.2345   12.1725 H         1 VHE1        0.0000 
     34 H          10.6528    0.3838    7.5337 H         1 VHE1        0.0000 
     35 H           9.5398    1.3163    6.5180 H         1 VHE1        0.0000 
     36 H           8.5585   -0.0000    9.0385 H         1 VHE1        0.0000 
     37 H           8.7248   -0.9461    7.5494 H         1 VHE1        0.0000 
     38 H           6.5910   -0.2378    7.1839 H         1 VHE1        0.0000 
     39 H           7.4679    1.1258    6.4688 H         1 VHE1        0.0000 
     40 H           6.6847    2.5472    8.1695 H         1 VHE1        0.0000 
     41 H           4.0143    2.1264    9.9427 H         1 VHE1        0.0000 
     42 H           5.4961    3.0965    9.9975 H         1 VHE1        0.0000 
     43 H           6.1927    1.7779   12.0692 H         1 VHE1        0.0000 
     44 H           4.5716    1.0622   12.0684 H         1 VHE1        0.0000 
     45 H          13.3065    5.5808    8.7757 H         1 VHE1        0.0000 
     46 H          13.5172    4.4408    9.8903 H         1 VHE1        0.0000 
     47 H          12.8855    4.0610    8.4610 H         1 VHE1        0.0000 
     48 H          10.7270    7.7152   12.6102 H         1 VHE1        0.0000 
     49 H           9.2406    8.0602   12.1024 H         1 VHE1        0.0000 
     50 H           9.4631    6.9457   13.2402 H         1 VHE1        0.0000 
@<TRIPOS>BOND
     1    2    1 ar   
     2    6    1 ar   
     3   12    1 1    
     4    3    2 ar   
     5   11    2 1    
     6    4    3 ar   
     7   28    3 1    
     8    5    4 ar   
     9    8    4 1    
    10    6    5 ar   
    11    7    5 1    
    12   29    6 1    
    13    9    7 2    
    14   10    7 am   
    15   45    8 1    
    16   46    8 1    
    17   47    8 1    
    18   19   10 1    
    19   30   10 1    
    20   48   11 1    
    21   49   11 1    
    22   50   11 1    
    23   13   12 ar   
    24   17   12 ar   
    25   14   13 ar   
    26   31   13 1    
    27   15   14 ar   
    28   27   14 1    
    29   16   15 ar   
    30   17   16 ar   
    31   18   16 1    
    32   32   18 1    
    33   33   18 1    
    34   20   19 1    
    35   34   19 1    
    36   35   19 1    
    37   21   20 1    
    38   36   20 1    
    39   37   20 1    
    40   22   21 1    
    41   38   21 1    
    42   39   21 1    
    43   23   22 am   
    44   40   22 1    
    45   24   23 1    
    46   25   23 2    
    47   26   24 1    
    48   41   24 1    
    49   42   24 1    
    50   27   26 1    
    51   43   26 1    
    52   44   26 1    
@<TRIPOS>SUBSTRUCTURE
     1 VHE1        1 GROUP   
@<TRIPOS>SET

