#    Name: 3q2z_D9A_1_INTS_M
#    Modification time : Tue Mar 25 08:50:05 2014

@<TRIPOS>MOLECULE
3q2z_D9A_1_INTS_M
   69     0     3     0     0
SMALL
NO_CHARGES


@<TRIPOS>ATOM
      1 CA         14.0425    1.8520   51.7585 C.3       1 GLC5        0.0000 
      2 CA         14.6380   -0.1760   51.9820 C.3       3 GLL5        0.0000 
      3 CA         13.4470    3.8800   51.5350 C.3       2 GLP5        0.0000 
      4 CA         14.7365   -0.1445   49.7380 C.3       1 GLC5        0.0000 
      5 CA         14.8350   -0.1130   47.4940 C.3       2 GLP5        0.0000 
      6 CA         13.1600   -0.6130   53.2105 C.3       1 GLC5        0.0000 
      7 CA         11.6820   -1.0500   54.4390 C.3       2 GLP5        0.0000 
      8 CA         15.7740    0.9740   50.8830 C.3       1 GLC5        0.0000 
      9 CA         16.9100    2.1240   49.7840 C.3       2 GLP5        0.0000 
     10 CA         20.6350    3.5130   55.8705 C.3       1 GLC5        0.0000 
     11 CA         19.5500    2.1060   55.1280 C.3       3 GLL5        0.0000 
     12 CA         21.7200    4.9200   56.6130 C.3       2 GLP5        0.0000 
     13 CA         21.3455    3.6585   54.0175 C.3       1 GLC5        0.0000 
     14 CA         20.5340    1.8640   54.1840 C.3       3 GLL5        0.0000 
     15 CA         22.1570    5.4530   53.8510 C.3       2 GLP5        0.0000 
     16 CA         22.4300   -0.0970   51.0610 C.3       1 GLC5        0.0000 
     17 CA         22.5690    1.4550   52.2390 C.3       3 GLL5        0.0000 
     18 CA         22.2910   -1.6490   49.8830 C.3       2 GLP5        0.0000 
     19 CA         20.5555    1.1885   51.7590 C.3       1 GLC5        0.0000 
     20 CA         18.5420    0.9220   51.2790 C.3       2 GLP5        0.0000 
     21 CA         24.0685    0.3595   52.9950 C.3       1 GLC5        0.0000 
     22 CA         25.5680   -0.7360   53.7510 C.3       2 GLP5        0.0000 
     23 CA         24.1075    2.6185   51.6235 C.3       1 GLC5        0.0000 
     24 CA         25.6460    3.7820   51.0080 C.3       2 GLP5        0.0000 
     25 CA         22.3630    3.4540   53.0450 C.3       1 GLC5        0.0000 
     26 CA         21.8685   -2.0115   51.7760 C.3       1 GLC5        0.0000 
     27 CA         21.4460   -2.3740   53.6690 C.3       3 GLL5        0.0000 
     28 CA         23.5070   -1.5550   53.7100 C.3       1 GLC5        0.0000 
     29 CA         22.6280   -3.6070   53.7010 C.3       1 GLC5        0.0000 
     30 CA         23.8100   -4.8400   53.7330 C.3       2 GLP5        0.0000 
     31 CA         21.4520   -2.5260   55.6425 C.3       1 GLC5        0.0000 
     32 CA         21.4580   -2.6780   57.6160 C.3       2 GLP5        0.0000 
     33 CA         20.7515   -5.3025   57.1480 C.3       1 GLC5        0.0000 
     34 CA         19.3170   -5.6200   56.0250 C.3       3 GLL5        0.0000 
     35 CA         22.1860   -4.9850   58.2710 C.3       2 GLP5        0.0000 
     36 CA         19.6730   -6.6570   52.7560 C.3       1 GLC5        0.0000 
     37 CA         18.4530   -5.4020   53.7870 C.3       3 GLL5        0.0000 
     38 CA         20.8930   -7.9120   51.7250 C.3       2 GLP5        0.0000 
     39 CA         18.5500   -4.8100   51.9785 C.3       1 GLC5        0.0000 
     40 CA         18.6470   -4.2180   50.1700 C.3       2 GLP5        0.0000 
     41 CA         17.9075   -0.1305   59.2720 C.3       1 GLC5        0.0000 
     42 CA         16.6680   -1.6780   59.0950 C.3       3 GLL5        0.0000 
     43 CA         19.1470    1.4170   59.4490 C.3       2 GLP5        0.0000 
     44 CA         17.2447   -2.1967   52.4693 C.3       1 GLC5        0.0000 
     45 CA         16.9000   -1.8260   54.7650 C.3       3 GLL5        0.0000 
     46 CA         17.8500   -3.0210   50.6330 C.3       2 GLP5        0.0000 
     47 CA         16.4025   -1.8798   51.5903 C.3       1 GLC5        0.0000 
     48 CA         15.6460   -0.3115   57.7442 C.3       1 GLC5        0.0000 
     49 CA         16.7760   -2.0400   57.6120 C.3       3 GLL5        0.0000 
     50 CA         14.5700    1.2360   57.1350 C.3       2 GLP5        0.0000 
     51 CA         16.3918   -2.9992   52.1698 C.3       1 GLC5        0.0000 
     52 CA         15.1760   -3.4300   54.1810 C.3       3 GLL5        0.0000 
     53 CA         14.5450   -2.6789   51.2114 C.3       1 GLC5        0.0000 
     54 CA         14.6910   -2.5250   53.2320 C.3       3 GLL5        0.0000 
     55 CA         14.2670   -3.7260   49.5330 C.3       2 GLP5        0.0000 
     56 CA         17.1838   -0.0940   52.3792 C.3       1 GLC5        0.0000 
     57 CA         15.2720   -1.3010   53.1130 C.3       3 GLL5        0.0000 
     58 CA         18.6920    0.6693   53.3205 C.3       1 GLC5        0.0000 
     59 CA         18.9400   -0.2230   55.1130 C.3       3 GLL5        0.0000 
     60 CA         19.1470    1.4990   57.4093 C.3       1 GLC5        0.0000 
     61 CA         18.7440    1.0560   55.6110 C.3       3 GLL5        0.0000 
     62 CA         19.2920    1.4535   52.9675 C.3       1 GLC5        0.0000 
     63 CA         19.4358    0.4848   52.6005 C.3       1 GLC5        0.0000 
     64 CA         20.7210    0.5660   53.6830 C.3       3 GLL5        0.0000 
     65 CA         20.3430   -1.6616   56.1905 C.3       1 GLC5        0.0000 
     66 CA         19.9380   -0.4710   54.1610 C.3       3 GLL5        0.0000 
     67 CA         20.0530   -7.2320   54.3417 C.3       1 GLC5        0.0000 
     68 CA         18.1220   -6.0120   55.1500 C.3       3 GLL5        0.0000 
     69 CA         21.4100   -8.2620   53.1290 C.3       2 GLP5        0.0000 
@<TRIPOS>BOND
@<TRIPOS>SUBSTRUCTURE
     1 GLC5        1 GROUP        1 X    GLC  0     ROOT GLC X 6
     2 GLP5        3 GROUP        1 Y    GLP  0     ROOT GLP Y 13
     3 GLL5        2 GROUP        1 Z    GLL  0     ROOT GLL Z 20
@<TRIPOS>SET

