#    Name: 3q2z_D9A_1_ligand
#    Modification time : Tue Mar 25 08:50:05 2014

@<TRIPOS>MOLECULE
3q2z_D9A_1_ligand
   71    73     1     0     0
SMALL
NO_CHARGES


@<TRIPOS>ATOM
      1 C1         16.9000   -1.8260   54.7650 C.ar      1 D9A700      0.0000 
      2 CL1        14.6380   -0.1760   51.9820 Cl        1 D9A700      0.0000 
      3 C2         16.2890   -3.0820   54.9620 C.ar      1 D9A700      0.0000 
      4 N3         16.8270   -4.0240   55.9870 N.am      1 D9A700      0.0000 
      5 C4         16.9780   -3.5430   57.2600 C.2       1 D9A700      0.0000 
      6 C5         16.7760   -2.0400   57.6120 C.3       1 D9A700      0.0000 
      7 O6         17.7120   -1.1260   57.0110 O.3       1 D9A700      0.0000 
      8 C7         18.0960   -1.4160   55.6250 C.3       1 D9A700      0.0000 
      9 C8         15.1760   -3.4300   54.1810 C.ar      1 D9A700      0.0000 
     10 C9         14.6910   -2.5250   53.2320 C.ar      1 D9A700      0.0000 
     11 C10        15.2720   -1.3010   53.1130 C.ar      1 D9A700      0.0000 
     12 C11        16.3790   -0.9190   53.8460 C.ar      1 D9A700      0.0000 
     13 C12        18.9400   -0.2230   55.1130 C.ar      1 D9A700      0.0000 
     14 C13        18.7440    1.0560   55.6110 C.ar      1 D9A700      0.0000 
     15 C14        19.5500    2.1060   55.1280 C.ar      1 D9A700      0.0000 
     16 C15        20.5340    1.8640   54.1840 C.ar      1 D9A700      0.0000 
     17 C16        20.7210    0.5660   53.6830 C.ar      1 D9A700      0.0000 
     18 C17        19.9380   -0.4710   54.1610 C.ar      1 D9A700      0.0000 
     19 O18        21.7310    0.3810   52.7170 O.3       1 D9A700      0.0000 
     20 C19        22.5690    1.4550   52.2390 C.3       1 D9A700      0.0000 
     21 O20        20.1330   -1.7600   53.6400 O.3       1 D9A700      0.0000 
     22 C21        21.4460   -2.3740   53.6690 C.3       1 D9A700      0.0000 
     23 O22        17.2780   -4.2940   58.1450 O.2       1 D9A700      0.0000 
     24 C23        16.7680   -5.5140   55.8160 C.3       1 D9A700      0.0000 
     25 C24        18.1220   -6.0120   55.1500 C.3       1 D9A700      0.0000 
     26 C25        18.0280   -7.5560   55.0180 C.3       1 D9A700      0.0000 
     27 C26        19.3170   -5.6200   56.0250 C.3       1 D9A700      0.0000 
     28 C27        18.4530   -5.4020   53.7870 C.3       1 D9A700      0.0000 
     29 C28        16.6680   -1.6780   59.0950 C.3       1 D9A700      0.0000 
     30 C29        15.3670   -2.2390   59.6200 C.2       1 D9A700      0.0000 
     31 N30        15.2420   -2.2260   60.8990 N.am      1 D9A700      0.0000 
     32 C31        14.4130   -3.2680   61.5230 C.3       1 D9A700      0.0000 
     33 C32        15.1910   -3.8880   62.7030 C.3       1 D9A700      0.0000 
     34 C33        15.4700   -5.3420   62.3420 C.2       1 D9A700      0.0000 
     35 O34        16.4680   -5.9800   62.8090 O.co2     1 D9A700      0.0000 
     36 O35        14.6230   -5.8180   61.5300 O.co2     1 D9A700      0.0000 
     37 O36        14.5290   -2.7270   58.8990 O.2       1 D9A700      0.0000 
     38 C38        13.1230   -2.6310   62.0490 C.2       1 D9A700      0.0000 
     39 O39        12.0590   -3.2010   61.6640 O.co2     1 D9A700      0.0000 
     40 O40        13.2040   -1.6200   62.8090 O.co2     1 D9A700      0.0000 
     41 H          15.7430   -1.7641   57.1823 H         1 D9A700      0.0000 
     42 H          18.7989   -2.2899   55.6598 H         1 D9A700      0.0000 
     43 H          14.7255   -4.3379   54.3067 H         1 D9A700      0.0000 
     44 H          13.8985   -2.7997   52.6353 H         1 D9A700      0.0000 
     45 H          16.8039   -0.0047   53.7219 H         1 D9A700      0.0000 
     46 H          18.0321    1.2441   56.3143 H         1 D9A700      0.0000 
     47 H          19.3974    3.0600   55.4875 H         1 D9A700      0.0000 
     48 H          21.1308    2.6278   53.8453 H         1 D9A700      0.0000 
     49 H          15.9607   -5.7968   55.1602 H         1 D9A700      0.0000 
     50 H          16.6735   -6.0096   56.7685 H         1 D9A700      0.0000 
     51 H          16.6750   -0.6043   59.1993 H         1 D9A700      0.0000 
     52 H          17.4987   -2.1136   59.6277 H         1 D9A700      0.0000 
     53 H          15.6689   -1.5516   61.5379 H         1 D9A700      0.0000 
     54 H          14.1700   -4.0332   60.8305 H         1 D9A700      0.0000 
     55 H          14.5859   -3.8405   63.5868 H         1 D9A700      0.0000 
     56 H          16.1150   -3.3595   62.8313 H         1 D9A700      0.0000 
     57 H          23.0929    1.8752   52.9799 H         1 D9A700      0.0000 
     58 H          23.2283    1.1366   51.5578 H         1 D9A700      0.0000 
     59 H          22.0326    2.1820   51.8103 H         1 D9A700      0.0000 
     60 H          22.1178   -1.8385   53.1572 H         1 D9A700      0.0000 
     61 H          21.7931   -2.4647   54.6024 H         1 D9A700      0.0000 
     62 H          21.4362   -3.2907   53.2696 H         1 D9A700      0.0000 
     63 H          18.8514   -7.9442   54.6042 H         1 D9A700      0.0000 
     64 H          17.9104   -7.9983   55.9071 H         1 D9A700      0.0000 
     65 H          17.2547   -7.8336   54.4480 H         1 D9A700      0.0000 
     66 H          20.1835   -5.9210   55.6268 H         1 D9A700      0.0000 
     67 H          19.3789   -4.6294   56.1470 H         1 D9A700      0.0000 
     68 H          19.2576   -6.0245   56.9376 H         1 D9A700      0.0000 
     69 H          18.5424   -4.4073   53.8371 H         1 D9A700      0.0000 
     70 H          19.3138   -5.7556   53.4210 H         1 D9A700      0.0000 
     71 H          17.7438   -5.5988   53.1100 H         1 D9A700      0.0000 
@<TRIPOS>BOND
     1    3    1 ar   
     2    8    1 1    
     3   12    1 ar   
     4   11    2 1    
     5    4    3 1    
     6    9    3 ar   
     7    5    4 am   
     8   24    4 1    
     9    6    5 1    
    10   23    5 2    
    11    7    6 1    
    12   29    6 1    
    13   41    6 1    
    14    8    7 1    
    15   13    8 1    
    16   42    8 1    
    17   10    9 ar   
    18   43    9 1    
    19   11   10 ar   
    20   44   10 1    
    21   12   11 ar   
    22   45   12 1    
    23   14   13 ar   
    24   18   13 ar   
    25   15   14 ar   
    26   46   14 1    
    27   16   15 ar   
    28   47   15 1    
    29   17   16 ar   
    30   48   16 1    
    31   18   17 ar   
    32   19   17 1    
    33   21   18 1    
    34   20   19 1    
    35   57   20 1    
    36   58   20 1    
    37   59   20 1    
    38   22   21 1    
    39   60   22 1    
    40   61   22 1    
    41   62   22 1    
    42   25   24 1    
    43   49   24 1    
    44   50   24 1    
    45   26   25 1    
    46   27   25 1    
    47   28   25 1    
    48   63   26 1    
    49   64   26 1    
    50   65   26 1    
    51   66   27 1    
    52   67   27 1    
    53   68   27 1    
    54   69   28 1    
    55   70   28 1    
    56   71   28 1    
    57   30   29 1    
    58   51   29 1    
    59   52   29 1    
    60   31   30 am   
    61   37   30 2    
    62   32   31 1    
    63   53   31 1    
    64   33   32 1    
    65   38   32 1    
    66   54   32 1    
    67   34   33 1    
    68   55   33 1    
    69   56   33 1    
    70   35   34 ar   
    71   36   34 ar   
    72   39   38 ar   
    73   40   38 ar   
@<TRIPOS>SUBSTRUCTURE
     1 D9A700      1 GROUP   
@<TRIPOS>SET

