#    Name: 1uu8_BI1_1_INTS_M
#    Modification time : Tue Mar 25 07:06:09 2014

@<TRIPOS>MOLECULE
1uu8_BI1_1_INTS_M
   65     0    12     0     0
SMALL
NO_CHARGES


@<TRIPOS>ATOM
      1 OD1        23.3735   84.2745   27.0560 O.co2     3 ASC3        0.0000 
      2 OD1        22.0130   83.1720   27.7670 O.co2    11 ASL3        0.0000 
      3 OD1        24.7340   85.3770   26.3450 O.co2     7 ASP3        0.0000 
      4 CA         21.5105   84.2905   24.9065 C.3       4 GLC5        0.0000 
      5 CA         21.3240   83.3210   26.4750 C.3      12 GLL5        0.0000 
      6 CA         21.6970   85.2600   23.3380 C.3       8 GLP5        0.0000 
      7 CA         23.6970   81.3875   23.6675 C.3       4 GLC5        0.0000 
      8 CA         23.5990   81.1010   25.8940 C.3      12 GLL5        0.0000 
      9 CA         23.7950   81.6740   21.4410 C.3       8 GLP5        0.0000 
     10 CA         24.7015   79.7820   24.7815 C.3       4 GLC5        0.0000 
     11 CA         25.8040   78.4630   23.6690 C.3       8 GLP5        0.0000 
     12 CA         23.0360   74.5135   28.3395 C.3       4 GLC5        0.0000 
     13 CA         23.4610   76.0360   27.0260 C.3      12 GLL5        0.0000 
     14 CA         22.6110   72.9910   29.6530 C.3       8 GLP5        0.0000 
     15 CA         24.4210   76.8380   29.4395 C.3       4 GLC5        0.0000 
     16 CA         24.6950   76.6180   27.3060 C.3      12 GLL5        0.0000 
     17 CA         24.1470   77.0580   31.5730 C.3       8 GLP5        0.0000 
     18 CA         25.8775   74.9695   27.7340 C.3       4 GLC5        0.0000 
     19 CA         27.0600   73.3210   28.1620 C.3       8 GLP5        0.0000 
     20 N          26.6960   76.2685   25.3970 N.am      2 SEC2        0.0000 
     21 N          27.6040   76.4380   26.5910 N.am     10 SEL2        0.0000 
     22 N          25.7880   76.0990   24.2030 N.am      6 SEP2        0.0000 
     23 O          30.5730   76.8505   27.7440 O.2       1 ALC1        0.0000 
     24 O          29.2570   77.5830   27.6770 O.2       9 ALL1        0.0000 
     25 O          31.8890   76.1180   27.8110 O.2       5 ALP1        0.0000 
     26 N          31.8805   79.3410   28.1505 N.am      2 SEC2        0.0000 
     27 N          30.4810   79.1680   28.7910 N.am     10 SEL2        0.0000 
     28 N          33.2800   79.5140   27.5100 N.am      6 SEP2        0.0000 
     29 CA         26.0320   78.9555   31.0565 C.3       4 GLC5        0.0000 
     30 CA         25.5640   80.5180   29.8900 C.3      12 GLL5        0.0000 
     31 CA         26.5000   77.3930   32.2230 C.3       8 GLP5        0.0000 
     32 CA         24.8420   79.4445   31.6085 C.3       4 GLC5        0.0000 
     33 CA         24.6270   81.2670   30.5960 C.3      12 GLL5        0.0000 
     34 CA         25.0570   77.6220   32.6210 C.3       8 GLP5        0.0000 
     35 CA         25.7045   81.8980   25.1708 C.3       4 GLC5        0.0000 
     36 CA         24.0330   82.4730   26.4210 C.3      12 GLL5        0.0000 
     37 CA         27.5930   82.0090   24.1840 C.3       8 GLP5        0.0000 
     38 CA         27.3505   79.7497   26.0523 C.3       4 GLC5        0.0000 
     39 CA         25.6270   80.0290   26.8540 C.3      12 GLL5        0.0000 
     40 CA         28.8920   80.0820   25.0580 C.3       8 GLP5        0.0000 
     41 CA         24.5115   78.4638   25.0685 C.3       4 GLC5        0.0000 
     42 CA         23.8380   78.7500   26.6070 C.3      12 GLL5        0.0000 
     43 CA         22.4160   77.8922   24.7325 C.3       4 GLC5        0.0000 
     44 CA         21.6130   77.3200   22.9970 C.3       8 GLP5        0.0000 
     45 CA         22.6115   76.1880   24.9078 C.3       4 GLC5        0.0000 
     46 CA         22.4150   76.8160   26.5390 C.3      12 GLL5        0.0000 
     47 CA         22.2850   75.9500   23.0330 C.3       8 GLP5        0.0000 
     48 CA         25.2972   77.8808   25.4348 C.3       4 GLC5        0.0000 
     49 CA         28.3208   79.5182   26.5050 C.3       4 GLC5        0.0000 
     50 CA         27.3070   78.5400   27.6120 C.3      12 GLL5        0.0000 
     51 CA         26.1810   78.7209   25.4991 C.3       4 GLC5        0.0000 
     52 CA         28.9648   80.6163   30.8848 C.3       4 GLC5        0.0000 
     53 CA         27.9160   80.5880   28.9100 C.3      12 GLL5        0.0000 
     54 CA         29.5500   80.1670   32.8520 C.3       8 GLP5        0.0000 
     55 CA         28.6358   80.5737   26.9878 C.3       4 GLC5        0.0000 
     56 CA         28.8430   81.5430   28.9250 C.3      12 GLL5        0.0000 
     57 CA         26.8297   81.0590   31.7140 C.3       4 GLC5        0.0000 
     58 CA         26.8090   81.0660   29.5920 C.3      12 GLL5        0.0000 
     59 CA         27.4730   81.3260   33.6870 C.3       8 GLP5        0.0000 
     60 CA         26.1257   81.6202   32.2450 C.3       4 GLC5        0.0000 
     61 CA         23.8888   81.9262   32.3895 C.3       4 GLC5        0.0000 
     62 CA         24.9300   82.5620   31.0100 C.3      12 GLL5        0.0000 
     63 CA         22.9990   81.9380   33.9760 C.3       8 GLP5        0.0000 
     64 CA         27.0568   82.0292   32.0258 C.3       4 GLC5        0.0000 
     65 CA         26.1750   83.1100   30.7190 C.3      12 GLL5        0.0000 
@<TRIPOS>BOND
@<TRIPOS>SUBSTRUCTURE
     1 ALC1       23 GROUP        1 X    ALC  0     ROOT ALC X 1
     2 SEC2       20 GROUP        1 X    SEC  0     **** SEC X 2
     3 ASC3        1 GROUP        1 X    ASC  0     **** ASC X 3
     4 GLC5        4 GROUP        1 X    GLC  0     **** GLC X 6
     5 ALP1       25 GROUP        1 Y    ALP  0     ROOT ALP Y 8
     6 SEP2       22 GROUP        1 Y    SEP  0     **** SEP Y 9
     7 ASP3        3 GROUP        1 Y    ASP  0     **** ASP Y 10
     8 GLP5        6 GROUP        1 Y    GLP  0     **** GLP Y 13
     9 ALL1       24 GROUP        1 Z    ALL  0     ROOT ALL Z 15
    10 SEL2       21 GROUP        1 Z    SEL  0     **** SEL Z 16
    11 ASL3        2 GROUP        1 Z    ASL  0     **** ASL Z 17
    12 GLL5        5 GROUP        1 Z    GLL  0     **** GLL Z 20
@<TRIPOS>SET

