#    Name: 1uu8_BI1_1_ligand
#    Modification time : Tue Mar 25 07:06:09 2014

@<TRIPOS>MOLECULE
1uu8_BI1_1_ligand
   56    60     1     0     0
SMALL
NO_CHARGES


@<TRIPOS>ATOM
      1 CBD        21.2110   82.7320   28.9170 C.3       1 BI11368     0.0000 
      2 NBC        22.0130   83.1720   27.7670 N.4       1 BI11368     0.0000 
      3 CBE        21.3240   83.3210   26.4750 C.3       1 BI11368     0.0000 
      4 CBB        23.4430   82.8110   27.7940 C.3       1 BI11368     0.0000 
      5 CBA        24.0330   82.4730   26.4210 C.3       1 BI11368     0.0000 
      6 CAY        23.5990   81.1010   25.8940 C.3       1 BI11368     0.0000 
      7 NAH        24.3450   79.9750   26.4790 N.pl3     1 BI11368     0.0000 
      8 CAW        25.6270   80.0290   26.8540 C.2       1 BI11368     0.0000 
      9 CAE        23.8380   78.7500   26.6070 C.ar      1 BI11368     0.0000 
     10 CAF        22.6000   78.1790   26.3290 C.ar      1 BI11368     0.0000 
     11 CAA        22.4150   76.8160   26.5390 C.ar      1 BI11368     0.0000 
     12 CAB        23.4610   76.0360   27.0260 C.ar      1 BI11368     0.0000 
     13 CAC        24.6950   76.6180   27.3060 C.ar      1 BI11368     0.0000 
     14 CAD        24.8860   77.9790   27.0950 C.ar      1 BI11368     0.0000 
     15 CAG        25.9910   78.8060   27.2390 C.2       1 BI11368     0.0000 
     16 CAI        27.3070   78.5400   27.6120 C.2       1 BI11368     0.0000 
     17 CAT        28.0140   77.4010   27.2330 C.2       1 BI11368     0.0000 
     18 OAZ        27.6040   76.4380   26.5910 O.2       1 BI11368     0.0000 
     19 NAU        29.2570   77.5830   27.6770 N.am      1 BI11368     0.0000 
     20 CAV        29.4330   78.7400   28.3140 C.2       1 BI11368     0.0000 
     21 OAX        30.4810   79.1680   28.7910 O.2       1 BI11368     0.0000 
     22 CAJ        28.1920   79.3690   28.2920 C.2       1 BI11368     0.0000 
     23 CAK        27.9160   80.5880   28.9100 C.2       1 BI11368     0.0000 
     24 CAM        26.8090   81.0660   29.5920 C.ar      1 BI11368     0.0000 
     25 CAP        25.5640   80.5180   29.8900 C.ar      1 BI11368     0.0000 
     26 CAQ        24.6270   81.2670   30.5960 C.ar      1 BI11368     0.0000 
     27 CAR        24.9300   82.5620   31.0100 C.ar      1 BI11368     0.0000 
     28 CAS        26.1750   83.1100   30.7190 C.ar      1 BI11368     0.0000 
     29 CAN        27.1060   82.3550   30.0100 C.ar      1 BI11368     0.0000 
     30 NAO        28.3460   82.5940   29.5830 N.pl3     1 BI11368     0.0000 
     31 CAL        28.8430   81.5430   28.9250 C.2       1 BI11368     0.0000 
     32 H          22.1212   84.4092   28.0794 H         1 BI11368     0.0000 
     33 H          23.6047   81.9383   28.4592 H         1 BI11368     0.0000 
     34 H          24.0388   83.6405   28.2267 H         1 BI11368     0.0000 
     35 H          25.1294   82.4992   26.4873 H         1 BI11368     0.0000 
     36 H          23.7272   83.2447   25.7012 H         1 BI11368     0.0000 
     37 H          23.7141   81.1073   24.7922 H         1 BI11368     0.0000 
     38 H          22.5148   80.9876   26.0912 H         1 BI11368     0.0000 
     39 H          26.1886   80.8168   26.8464 H         1 BI11368     0.0000 
     40 H          21.8330   78.7558   25.9735 H         1 BI11368     0.0000 
     41 H          21.5047   76.3833   26.3345 H         1 BI11368     0.0000 
     42 H          23.3221   75.0287   27.1791 H         1 BI11368     0.0000 
     43 H          25.4641   76.0403   27.6687 H         1 BI11368     0.0000 
     44 H          29.9930   76.9106   27.5439 H         1 BI11368     0.0000 
     45 H          25.3377   79.5624   29.5891 H         1 BI11368     0.0000 
     46 H          23.7054   80.8623   30.8135 H         1 BI11368     0.0000 
     47 H          24.2344   83.1110   31.5295 H         1 BI11368     0.0000 
     48 H          26.4056   84.0600   31.0231 H         1 BI11368     0.0000 
     49 H          28.8365   83.4403   29.7332 H         1 BI11368     0.0000 
     50 H          29.7264   81.4882   28.5281 H         1 BI11368     0.0000 
     51 H          21.7623   82.6592   29.7481 H         1 BI11368     0.0000 
     52 H          20.4651   83.3681   29.1148 H         1 BI11368     0.0000 
     53 H          20.7975   81.8351   28.7600 H         1 BI11368     0.0000 
     54 H          21.9469   83.6269   25.7550 H         1 BI11368     0.0000 
     55 H          20.9212   82.4590   26.1673 H         1 BI11368     0.0000 
     56 H          20.5823   83.9899   26.5246 H         1 BI11368     0.0000 
@<TRIPOS>BOND
     1    2    1 1    
     2   51    1 1    
     3   52    1 1    
     4   53    1 1    
     5    3    2 1    
     6    4    2 1    
     7   32    2 1    
     8   54    3 1    
     9   55    3 1    
    10   56    3 1    
    11    5    4 1    
    12   33    4 1    
    13   34    4 1    
    14    6    5 1    
    15   35    5 1    
    16   36    5 1    
    17    7    6 1    
    18   37    6 1    
    19   38    6 1    
    20    8    7 1    
    21    9    7 1    
    22   15    8 2    
    23   39    8 1    
    24   10    9 ar   
    25   14    9 ar   
    26   11   10 ar   
    27   40   10 1    
    28   12   11 ar   
    29   41   11 1    
    30   13   12 ar   
    31   42   12 1    
    32   14   13 ar   
    33   43   13 1    
    34   15   14 1    
    35   16   15 1    
    36   17   16 1    
    37   22   16 2    
    38   18   17 2    
    39   19   17 am   
    40   20   19 am   
    41   44   19 1    
    42   21   20 2    
    43   22   20 1    
    44   23   22 1    
    45   24   23 1    
    46   31   23 2    
    47   25   24 ar   
    48   29   24 ar   
    49   26   25 ar   
    50   45   25 1    
    51   27   26 ar   
    52   46   26 1    
    53   28   27 ar   
    54   47   27 1    
    55   29   28 ar   
    56   48   28 1    
    57   30   29 1    
    58   31   30 1    
    59   49   30 1    
    60   50   31 1    
@<TRIPOS>SUBSTRUCTURE
     1 BI11368     1 GROUP   
@<TRIPOS>SET

