#    Name: 2uzw_SS4_1_INTS_M
#    Modification time : Tue Mar 25 00:38:04 2014

@<TRIPOS>MOLECULE
2uzw_SS4_1_INTS_M
   76     0    12     0     0
SMALL
NO_CHARGES


@<TRIPOS>ATOM
      1 N           2.0245    9.6270    4.8225 N.am      2 SEC2        0.0000 
      2 N           3.5640   10.1390    4.6220 N.am     10 SEL2        0.0000 
      3 N           0.4850    9.1150    5.0230 N.am      6 SEP2        0.0000 
      4 N          10.2535   10.7475   -2.1265 N.am      2 SEC2        0.0000 
      5 N           9.5540   10.0530   -1.1370 N.am     10 SEL2        0.0000 
      6 N          10.9530   11.4420   -3.1160 N.am      6 SEP2        0.0000 
      7 CA          3.1210    8.2465    0.5240 C.3       4 GLC5        0.0000 
      8 CA          4.3110    9.8230    1.1090 C.3      12 GLL5        0.0000 
      9 CA          1.9310    6.6700   -0.0610 C.3       8 GLP5        0.0000 
     10 CA          4.4520    8.3955   -0.7760 C.3       4 GLC5        0.0000 
     11 CA          5.5870    9.7070    0.5480 C.3      12 GLL5        0.0000 
     12 CA          3.3170    7.0840   -2.1000 C.3       8 GLP5        0.0000 
     13 CA          5.3665   11.6765    6.4325 C.3       4 GLC5        0.0000 
     14 CA          5.6990   10.1280    5.9570 C.3      12 GLL5        0.0000 
     15 CA          5.0340   13.2250    6.9080 C.3       8 GLP5        0.0000 
     16 CA          5.4850    8.3020    4.8800 C.3       4 GLC5        0.0000 
     17 CA          5.2710    6.4760    3.8030 C.3       8 GLP5        0.0000 
     18 CA          5.8350    9.4720    7.3265 C.3       4 GLC5        0.0000 
     19 CA          5.9710    8.8160    8.6960 C.3       8 GLP5        0.0000 
     20 O           1.8460   10.0660    2.6805 O.2       1 ALC1        0.0000 
     21 O           3.1350   10.0640    3.3510 O.2       9 ALL1        0.0000 
     22 O           0.5570   10.0680    2.0100 O.2       5 ALP1        0.0000 
     23 CA         10.7935   11.1600   -1.6575 C.3       4 GLC5        0.0000 
     24 CA         10.5560    9.4380   -0.5080 C.3      12 GLL5        0.0000 
     25 CA         11.0310   12.8820   -2.8070 C.3       8 GLP5        0.0000 
     26 CA          8.9945   11.7700   -1.5900 C.3       4 GLC5        0.0000 
     27 CA          8.3560   10.1300   -0.5400 C.3      12 GLL5        0.0000 
     28 CA          9.6330   13.4100   -2.6400 C.3       8 GLP5        0.0000 
     29 CA          6.5300   10.7625   -1.5520 C.3       4 GLC5        0.0000 
     30 CA          4.7040   11.3950   -2.5640 C.3       8 GLP5        0.0000 
     31 CA          7.5530    8.3550   -0.3220 C.3       4 GLC5        0.0000 
     32 CA          6.7500    6.5800   -0.1040 C.3       8 GLP5        0.0000 
     33 CA          9.0325    8.5995   -1.8055 C.3       4 GLC5        0.0000 
     34 CA          9.7090    7.0690   -3.0710 C.3       8 GLP5        0.0000 
     35 OD1        13.3625    6.9155    0.2345 O.co2     3 ASC3        0.0000 
     36 OD1        13.6300    6.9160    2.1450 O.co2    11 ASL3        0.0000 
     37 OD1        13.0950    6.9150   -1.6760 O.co2     7 ASP3        0.0000 
     38 O          12.9820    5.9195    1.5245 O.2       1 ALC1        0.0000 
     39 O          13.6300    6.9160    2.1450 O.2       9 ALL1        0.0000 
     40 O          12.3340    4.9230    0.9040 O.2       5 ALP1        0.0000 
     41 CA         15.3020   13.5640    0.9200 C.3       4 GLC5        0.0000 
     42 CA         13.4210   13.7660   -0.2580 C.3      12 GLL5        0.0000 
     43 CA         17.1830   13.3620    2.0980 C.3       8 GLP5        0.0000 
     44 CA         14.1595   15.7465   -0.1025 C.3       4 GLC5        0.0000 
     45 CA         14.8980   17.7270    0.0530 C.3       8 GLP5        0.0000 
     46 CA         12.2260   13.3240   -1.5325 C.3       4 GLC5        0.0000 
     47 CA          4.8492    8.3655    1.1490 C.3       4 GLC5        0.0000 
     48 CA          4.1780    9.9350    2.4610 C.3      12 GLL5        0.0000 
     49 CA          5.4540    6.8520    0.5130 C.3       8 GLP5        0.0000 
     50 CA          4.8265   10.5800   -0.8678 C.3       4 GLC5        0.0000 
     51 CA          5.8085    8.2785    0.7275 C.3       4 GLC5        0.0000 
     52 CA         12.5245   12.2285    4.5710 C.3       4 GLC5        0.0000 
     53 CA         13.3550   11.3610    3.1070 C.3      12 GLL5        0.0000 
     54 CA         11.7490   12.5520    6.4630 C.3       8 GLP5        0.0000 
     55 CA         14.0770   12.9685    3.8510 C.3       4 GLC5        0.0000 
     56 CA         14.8540   14.0320    5.0230 C.3       8 GLP5        0.0000 
     57 CA         15.2415   12.6335    2.3885 C.3       4 GLC5        0.0000 
     58 CA         13.2450   12.4490    2.2510 C.3      12 GLL5        0.0000 
     59 CA         15.5055   12.5315    1.3870 C.3       4 GLC5        0.0000 
     60 CA         13.5920   12.3090    0.9130 C.3      12 GLL5        0.0000 
     61 CA         11.4332   12.8625    1.8055 C.3       4 GLC5        0.0000 
     62 CA          9.4480   13.3460    2.0290 C.3       8 GLP5        0.0000 
     63 CA          8.1325    7.8259    0.3934 C.3       4 GLC5        0.0000 
     64 CA         10.4050    8.8710    0.7470 C.3      12 GLL5        0.0000 
     65 CA          6.5565   11.8940    2.9715 C.3       4 GLC5        0.0000 
     66 CA          6.5820    9.8180    2.7170 C.3      12 GLL5        0.0000 
     67 CA          7.1510   13.9120    2.9370 C.3       8 GLP5        0.0000 
     68 CA          5.7080    8.3640    1.7595 C.3       4 GLC5        0.0000 
     69 CA          4.1536   11.6143    2.6335 C.3       4 GLC5        0.0000 
     70 CA          3.5140   13.3220    2.7270 C.3       8 GLP5        0.0000 
     71 CA         10.4850    7.9051   -0.9141 C.3       4 GLC5        0.0000 
     72 CA          9.1510    8.9540    1.3560 C.3      12 GLL5        0.0000 
     73 CA         10.8030    6.6350   -2.1000 C.3       8 GLP5        0.0000 
     74 CA          8.9693   11.5236    1.1381 C.3       4 GLC5        0.0000 
     75 CA          5.4989    8.1547    3.0431 C.3       4 GLC5        0.0000 
     76 CA          6.7390    9.7030    1.3360 C.3      12 GLL5        0.0000 
@<TRIPOS>BOND
@<TRIPOS>SUBSTRUCTURE
     1 ALC1       20 GROUP        1 X    ALC  0     ROOT ALC X 1
     2 SEC2        1 GROUP        1 X    SEC  0     **** SEC X 2
     3 ASC3       35 GROUP        1 X    ASC  0     **** ASC X 3
     4 GLC5        7 GROUP        1 X    GLC  0     **** GLC X 6
     5 ALP1       22 GROUP        1 Y    ALP  0     ROOT ALP Y 8
     6 SEP2        3 GROUP        1 Y    SEP  0     **** SEP Y 9
     7 ASP3       37 GROUP        1 Y    ASP  0     **** ASP Y 10
     8 GLP5        9 GROUP        1 Y    GLP  0     **** GLP Y 13
     9 ALL1       21 GROUP        1 Z    ALL  0     ROOT ALL Z 15
    10 SEL2        2 GROUP        1 Z    SEL  0     **** SEL Z 16
    11 ASL3       36 GROUP        1 Z    ASL  0     **** ASL Z 17
    12 GLL5        8 GROUP        1 Z    GLL  0     **** GLL Z 20
@<TRIPOS>SET

