#    Name: 2uzw_SS4_1_ligand
#    Modification time : Tue Mar 25 00:38:04 2014

@<TRIPOS>MOLECULE
2uzw_SS4_1_ligand
   50    53     1     0     0
SMALL
NO_CHARGES


@<TRIPOS>ATOM
      1 N1          3.5640   10.1390    4.6220 N.2       1 SS41351     0.0000 
      2 N3          9.5540   10.0530   -1.1370 N.ar      1 SS41351     0.0000 
      3 C4          4.1780    9.9350    2.4610 C.ar      1 SS41351     0.0000 
      4 C5          4.3110    9.8230    1.1090 C.ar      1 SS41351     0.0000 
      5 C6          5.5870    9.7070    0.5480 C.ar      1 SS41351     0.0000 
      6 C8          4.8940   10.0690    4.6800 C.2       1 SS41351     0.0000 
      7 C13        13.3550   11.3610    3.1070 C.ar      1 SS41351     0.0000 
      8 C15        13.5920   12.3090    0.9130 C.ar      1 SS41351     0.0000 
      9 C9          5.6990   10.1280    5.9570 C.3       1 SS41351     0.0000 
     10 C17        13.8080   10.1290    2.6390 C.ar      1 SS41351     0.0000 
     11 C20         8.0990    9.5910    0.7130 C.ar      1 SS41351     0.0000 
     12 C21         9.1510    8.9540    1.3560 C.ar      1 SS41351     0.0000 
     13 C22        10.4050    8.8710    0.7470 C.ar      1 SS41351     0.0000 
     14 C24        11.5640    8.1640    2.7130 C.3       1 SS41351     0.0000 
     15 C1          6.7390    9.7030    1.3360 C.ar      1 SS41351     0.0000 
     16 C2          6.5820    9.8180    2.7170 C.ar      1 SS41351     0.0000 
     17 C3          5.3420    9.9340    3.2950 C.ar      1 SS41351     0.0000 
     18 N5          3.1350   10.0640    3.3510 N.pl3     1 SS41351     0.0000 
     19 C14        13.2450   12.4490    2.2510 C.ar      1 SS41351     0.0000 
     20 C16        14.1760   10.0120    1.3020 C.ar      1 SS41351     0.0000 
     21 C18        10.5560    9.4380   -0.5080 C.ar      1 SS41351     0.0000 
     22 C19         8.3560   10.1300   -0.5400 C.ar      1 SS41351     0.0000 
     23 C26        14.0640   11.0930    0.4390 C.ar      1 SS41351     0.0000 
     24 O1         11.5360    8.2700    1.3020 O.3       1 SS41351     0.0000 
     25 C10        12.9860    7.7560    3.1530 C.3       1 SS41351     0.0000 
     26 C25        13.8800    8.9450    3.5740 C.3       1 SS41351     0.0000 
     27 N4         13.6300    6.9160    2.1450 N.4       1 SS41351     0.0000 
     28 BR1        13.4210   13.7660   -0.2580 Br        1 SS41351     0.0000 
     29 H           3.4882    9.8222    0.4915 H         1 SS41351     0.0000 
     30 H           5.6784    9.6216   -0.4831 H         1 SS41351     0.0000 
     31 H          13.0985   11.4640    4.1027 H         1 SS41351     0.0000 
     32 H           9.0099    8.5385    2.2884 H         1 SS41351     0.0000 
     33 H          10.8774    7.4012    3.0876 H         1 SS41351     0.0000 
     34 H          11.3308    9.1101    3.2070 H         1 SS41351     0.0000 
     35 H           7.4338    9.8149    3.3179 H         1 SS41351     0.0000 
     36 H           2.1915   10.0957    3.0705 H         1 SS41351     0.0000 
     37 H          12.9091   13.3521    2.6047 H         1 SS41351     0.0000 
     38 H          14.5364    9.1097    0.9497 H         1 SS41351     0.0000 
     39 H          11.5050    9.3691   -0.9630 H         1 SS41351     0.0000 
     40 H           7.5567   10.6203   -1.0305 H         1 SS41351     0.0000 
     41 H          14.3300   10.9933   -0.5490 H         1 SS41351     0.0000 
     42 H          12.8507    7.1297    4.0794 H         1 SS41351     0.0000 
     43 H          13.5834    9.2565    4.5892 H         1 SS41351     0.0000 
     44 H          14.9209    8.5873    3.6388 H         1 SS41351     0.0000 
     45 H           6.6806   10.0541    5.7810 H         1 SS41351     0.0000 
     46 H           5.5532   10.9865    6.4486 H         1 SS41351     0.0000 
     47 H           5.4569    9.3869    6.5832 H         1 SS41351     0.0000 
     48 H          14.5515    6.6439    2.4220 H         1 SS41351     0.0000 
     49 H          13.1143    6.0758    1.9771 H         1 SS41351     0.0000 
     50 H          13.7151    7.3880    1.2675 H         1 SS41351     0.0000 
@<TRIPOS>BOND
     1    6    1 2    
     2   18    1 1    
     3   21    2 ar   
     4   22    2 ar   
     5    4    3 ar   
     6   17    3 ar   
     7   18    3 1    
     8    5    4 ar   
     9   29    4 1    
    10   15    5 ar   
    11   30    5 1    
    12    9    6 1    
    13   17    6 1    
    14   10    7 ar   
    15   19    7 ar   
    16   31    7 1    
    17   19    8 ar   
    18   23    8 ar   
    19   28    8 1    
    20   45    9 1    
    21   46    9 1    
    22   47    9 1    
    23   20   10 ar   
    24   26   10 1    
    25   12   11 ar   
    26   15   11 1    
    27   22   11 ar   
    28   13   12 ar   
    29   32   12 1    
    30   21   13 ar   
    31   24   13 1    
    32   24   14 1    
    33   25   14 1    
    34   33   14 1    
    35   34   14 1    
    36   16   15 ar   
    37   17   16 ar   
    38   35   16 1    
    39   36   18 1    
    40   37   19 1    
    41   23   20 ar   
    42   38   20 1    
    43   39   21 1    
    44   40   22 1    
    45   41   23 1    
    46   26   25 1    
    47   27   25 1    
    48   42   25 1    
    49   43   26 1    
    50   44   26 1    
    51   48   27 1    
    52   49   27 1    
    53   50   27 1    
@<TRIPOS>SUBSTRUCTURE
     1 SS41351     1 GROUP   
@<TRIPOS>SET

