#    Name: 4j16_NAP_3_INTS_M
#    Modification time : Tue Mar 25 05:00:34 2014

@<TRIPOS>MOLECULE
4j16_NAP_3_INTS_M
  123     0    12     0     0
SMALL
NO_CHARGES


@<TRIPOS>ATOM
      1 N          11.9815    2.8530    0.8020 N.am      2 SEC2        0.0000 
      2 N          13.2070    3.1510    0.3510 N.am     10 SEL2        0.0000 
      3 N          10.7560    2.5550    1.2530 N.am      6 SEP2        0.0000 
      4 NZ         17.0390    4.3300   -0.8870 N.4       3 LYC4        0.0000 
      5 NZ         15.8990    3.8290   -0.3360 N.4      11 LYL4        0.0000 
      6 NZ         17.9090    4.5430   -2.6990 N.4       7 LYP4        0.0000 
      7 N          16.3525    3.8440   -1.6595 N.am      2 SEC2        0.0000 
      8 N          15.8990    3.8290   -0.3360 N.am     10 SEL2        0.0000 
      9 N          16.8060    3.8590   -2.9830 N.am      6 SEP2        0.0000 
     10 N          17.0390    4.3300   -0.8870 N.am      2 SEC2        0.0000 
     11 N          18.1790    4.8310   -1.4380 N.am      6 SEP2        0.0000 
     12 N          15.5575    5.1505    0.0145 N.am      2 SEC2        0.0000 
     13 N          15.2160    6.4720    0.3650 N.am      6 SEP2        0.0000 
     14 CA         17.2675    0.8075   -0.3910 C.3       4 GLC5        0.0000 
     15 CA         16.4840    1.2840    1.4600 C.3      12 GLL5        0.0000 
     16 CA         18.0510    0.3310   -2.2420 C.3       8 GLP5        0.0000 
     17 N          14.5805    2.2520    5.0840 N.am      2 SEC2        0.0000 
     18 N          16.1030    1.7110    4.7180 N.am     10 SEL2        0.0000 
     19 N          13.0580    2.7930    5.4500 N.am      6 SEP2        0.0000 
     20 O          16.0940    2.5565    5.9105 O.2       1 ALC1        0.0000 
     21 O          16.1030    1.7110    4.7180 O.2       9 ALL1        0.0000 
     22 O          16.0850    3.4020    7.1030 O.2       5 ALP1        0.0000 
     23 CA         18.7475   -1.5660    2.4965 C.3       4 GLC5        0.0000 
     24 CA         18.2390   -0.5130    4.0840 C.3      12 GLL5        0.0000 
     25 CA         19.2560   -2.6190    0.9090 C.3       8 GLP5        0.0000 
     26 CA         17.2975   -2.2055    3.2720 C.3       4 GLC5        0.0000 
     27 CA         16.3560   -3.8980    2.4600 C.3       8 GLP5        0.0000 
     28 CA         17.3140   -1.4250    5.7465 C.3       4 GLC5        0.0000 
     29 CA         16.3890   -2.3370    7.4090 C.3       8 GLP5        0.0000 
     30 CA         22.6430   -4.9555    3.0040 C.3       4 GLC5        0.0000 
     31 CA         22.0480   -3.5310    4.2430 C.3      12 GLL5        0.0000 
     32 CA         23.2380   -6.3800    1.7650 C.3       8 GLP5        0.0000 
     33 CA         22.5655   -5.0275    5.7640 C.3       4 GLC5        0.0000 
     34 CA         23.0830   -6.5240    7.2850 C.3       8 GLP5        0.0000 
     35 O          23.9910   -4.8485    4.4240 O.2       1 ALC1        0.0000 
     36 O          23.3550   -3.6870    3.9910 O.2       9 ALL1        0.0000 
     37 O          24.6270   -6.0100    4.8570 O.2       5 ALP1        0.0000 
     38 N          21.5555   -5.9535    5.0850 N.am      2 SEC2        0.0000 
     39 N          21.3380   -4.5650    4.7500 N.am     10 SEL2        0.0000 
     40 N          21.7730   -7.3420    5.4200 N.am      6 SEP2        0.0000 
     41 CA         18.1885   -4.1830    3.7330 C.3       4 GLC5        0.0000 
     42 CA         20.0210   -4.4680    5.0060 C.3      12 GLL5        0.0000 
     43 CA         18.6505   -4.0175    6.2910 C.3       4 GLC5        0.0000 
     44 CA         17.2800   -3.5670    7.5760 C.3       8 GLP5        0.0000 
     45 CA         21.1815   -3.6005    6.5730 C.3       4 GLC5        0.0000 
     46 CA         22.3420   -2.7330    8.1400 C.3       8 GLP5        0.0000 
     47 CA         21.5520   -5.4960    6.1455 C.3       4 GLC5        0.0000 
     48 CA         20.1945   -6.0835    4.2250 C.3       4 GLC5        0.0000 
     49 CA         20.3680   -7.6990    3.4440 C.3       8 GLP5        0.0000 
     50 CA         18.1880   -3.0745    3.3605 C.3       4 GLC5        0.0000 
     51 CA         20.0200   -2.2510    4.2610 C.3      12 GLL5        0.0000 
     52 CA         18.6500   -2.9090    5.9185 C.3       4 GLC5        0.0000 
     53 N          12.2055    0.0705    0.6150 N.am      2 SEC2        0.0000 
     54 N          12.3820    0.3010   -0.6460 N.am     10 SEL2        0.0000 
     55 N          12.0290   -0.1600    1.8760 N.am      6 SEP2        0.0000 
     56 N          10.8060    0.8890   -0.7840 N.am      2 SEC2        0.0000 
     57 N           9.2300    1.4770   -0.9220 N.am      6 SEP2        0.0000 
     58 N          15.3975   -0.9680   -2.4690 N.am      2 SEC2        0.0000 
     59 N          14.1950   -0.2810   -2.7690 N.am     10 SEL2        0.0000 
     60 N          16.6000   -1.6550   -2.1690 N.am      6 SEP2        0.0000 
     61 N          14.6400   -0.2620   -4.0995 N.am      2 SEC2        0.0000 
     62 N          15.0850   -0.2430   -5.4300 N.am      6 SEP2        0.0000 
     63 CA         13.1900    1.0390   -4.7950 C.3       4 GLC5        0.0000 
     64 CA         13.6530    2.7360   -3.6620 C.3      12 GLL5        0.0000 
     65 CA         12.7270   -0.6580   -5.9280 C.3       8 GLP5        0.0000 
     66 CA         15.0760    1.3625   -4.7000 C.3       4 GLC5        0.0000 
     67 CA         16.4990   -0.0110   -5.7380 C.3       8 GLP5        0.0000 
     68 CA         11.8120    1.6925   -3.6775 C.3       4 GLC5        0.0000 
     69 CA          9.9710    0.6490   -3.6930 C.3       8 GLP5        0.0000 
     70 O          11.9805    6.0325   -1.7765 O.2       1 ALC1        0.0000 
     71 O          11.9160    5.8640   -3.1190 O.2       9 ALL1        0.0000 
     72 O          12.0450    6.2010   -0.4340 O.2       5 ALP1        0.0000 
     73 CA         13.9690    7.3330   -4.4485 C.3       4 GLC5        0.0000 
     74 CA         13.5460    5.7840   -5.3460 C.3      12 GLL5        0.0000 
     75 CA         14.3920    8.8820   -3.5510 C.3       8 GLP5        0.0000 
     76 CA         12.3650    3.8470   -7.8015 C.3       4 GLC5        0.0000 
     77 CA         14.2490    4.6350   -7.4040 C.3      12 GLL5        0.0000 
     78 CA         10.4810    3.0590   -8.1990 C.3       8 GLP5        0.0000 
     79 CA         16.8525    5.7330   -5.9975 C.3       4 GLC5        0.0000 
     80 CA         15.1120    6.7670   -6.9200 C.3      12 GLL5        0.0000 
     81 CA         18.5930    4.6990   -5.0750 C.3       8 GLP5        0.0000 
     82 NZ         21.4055    1.7085    6.4925 N.4       3 LYC4        0.0000 
     83 NZ         20.2550    2.0340    7.1360 N.4      11 LYL4        0.0000 
     84 NZ         23.2670    0.3480    6.2850 N.4       7 LYP4        0.0000 
     85 N          21.4055    1.7085    6.4925 N.am      2 SEC2        0.0000 
     86 N          20.2550    2.0340    7.1360 N.am     10 SEL2        0.0000 
     87 N          22.5560    1.3830    5.8490 N.am      6 SEP2        0.0000 
     88 NZ         17.0780    0.8375    8.5150 N.4       3 LYC4        0.0000 
     89 NZ         18.3400    0.6560    8.5750 N.4      11 LYL4        0.0000 
     90 NZ         15.8160    1.0190    8.4550 N.4       7 LYP4        0.0000 
     91 N          17.0780    0.8375    8.5150 N.am      2 SEC2        0.0000 
     92 N          18.3400    0.6560    8.5750 N.am     10 SEL2        0.0000 
     93 N          15.8160    1.0190    8.4550 N.am      6 SEP2        0.0000 
     94 N          18.6835   -0.1230    9.6995 N.am      2 SEC2        0.0000 
     95 N          19.0270   -0.9020   10.8240 N.am      6 SEP2        0.0000 
     96 N          18.0505    2.0850    9.0110 N.am      2 SEC2        0.0000 
     97 N          17.7610    3.5140    9.4470 N.am      6 SEP2        0.0000 
     98 NZ         21.3045   -0.6720    6.8800 N.4       3 LYC4        0.0000 
     99 NZ         19.9590   -0.6810    6.8790 N.4      11 LYL4        0.0000 
    100 N          19.6235   -1.6765    7.7540 N.am      2 SEC2        0.0000 
    101 N          19.9590   -0.6810    6.8790 N.am     10 SEL2        0.0000 
    102 N          19.2880   -2.6720    8.6290 N.am      6 SEP2        0.0000 
    103 N          21.3045   -0.6720    6.8800 N.am      2 SEC2        0.0000 
    104 N          22.6500   -0.6630    6.8810 N.am      6 SEP2        0.0000 
    105 N          21.2575    0.3510    6.3640 N.am      2 SEC2        0.0000 
    106 CA         14.5495    1.3182    2.7570 C.3       4 GLC5        0.0000 
    107 CA         16.6600    0.6270    2.8240 C.3      12 GLL5        0.0000 
    108 CA         12.5270    1.6810    3.3720 C.3       8 GLP5        0.0000 
    109 CA         22.5202   -2.3902    5.7562 C.3       4 GLC5        0.0000 
    110 CA         21.3890   -2.3260    3.9880 C.3      12 GLL5        0.0000 
    111 CA         23.3220   -1.8520    7.3970 C.3       8 GLP5        0.0000 
    112 CA         20.0626   -2.6044    2.5486 C.3       4 GLC5        0.0000 
    113 CA         11.6830    4.3963   -2.0753 C.3       4 GLC5        0.0000 
    114 CA         13.5170    4.2510   -3.5060 C.3      12 GLL5        0.0000 
    115 CA         10.5670    4.3360   -0.4580 C.3       8 GLP5        0.0000 
    116 CA         13.9920    5.7797   -2.8312 C.3       4 GLC5        0.0000 
    117 CA         12.0810    4.6620   -3.8790 C.3      12 GLL5        0.0000 
    118 CA         15.1850    7.1030   -1.9700 C.3       8 GLP5        0.0000 
    119 CA         10.8842    3.9992   -5.7810 C.3       4 GLC5        0.0000 
    120 CA          9.6240    3.1420   -6.9480 C.3       8 GLP5        0.0000 
    121 CA         16.6944    3.9969   -8.0422 C.3       4 GLC5        0.0000 
    122 CA         15.8210    5.6580   -8.9290 C.3      12 GLL5        0.0000 
    123 CA         18.1690    2.8610   -7.6230 C.3       8 GLP5        0.0000 
@<TRIPOS>BOND
@<TRIPOS>SUBSTRUCTURE
     1 ALC1       20 GROUP        1 X    ALC  0     ROOT ALC X 1
     2 SEC2        1 GROUP        1 X    SEC  0     **** SEC X 2
     3 LYC4        4 GROUP        1 X    LYC  0     **** LYC X 4
     4 GLC5       14 GROUP        1 X    GLC  0     **** GLC X 6
     5 ALP1       22 GROUP        1 Y    ALP  0     ROOT ALP Y 8
     6 SEP2        3 GROUP        1 Y    SEP  0     **** SEP Y 9
     7 LYP4        6 GROUP        1 Y    LYP  0     **** LYP Y 11
     8 GLP5       16 GROUP        1 Y    GLP  0     **** GLP Y 13
     9 ALL1       21 GROUP        1 Z    ALL  0     ROOT ALL Z 15
    10 SEL2        2 GROUP        1 Z    SEL  0     **** SEL Z 16
    11 LYL4        5 GROUP        1 Z    LYL  0     **** LYL Z 18
    12 GLL5       15 GROUP        1 Z    GLL  0     **** GLL Z 20
@<TRIPOS>SET

