#    Name: 4j16_NAP_3_ligand
#    Modification time : Tue Mar 25 05:00:34 2014

@<TRIPOS>MOLECULE
4j16_NAP_3_ligand
   71    75     1     0     0
SMALL
NO_CHARGES


@<TRIPOS>ATOM
      1 PA         14.7510    2.7310    0.0940 P.3       1 NAP501      0.0000 
      2 O1A        13.2070    3.1510    0.3510 O.co2     1 NAP501      0.0000 
      3 O2A        15.8990    3.8290   -0.3360 O.co2     1 NAP501      0.0000 
      4 O5B        15.2640    2.0290    1.4710 O.3       1 NAP501      0.0000 
      5 C5B        16.4840    1.2840    1.4600 C.3       1 NAP501      0.0000 
      6 C4B        16.6600    0.6270    2.8240 C.3       1 NAP501      0.0000 
      7 O4B        17.7300   -0.2940    2.7870 O.3       1 NAP501      0.0000 
      8 C3B        17.2320    1.6050    3.8440 C.3       1 NAP501      0.0000 
      9 O3B        16.1030    1.7110    4.7180 O.3       1 NAP501      0.0000 
     10 C2B        18.3520    0.8970    4.6080 C.3       1 NAP501      0.0000 
     11 O2B        18.1510    1.0210    6.0070 O.3       1 NAP501      0.0000 
     12 C1B        18.2390   -0.5130    4.0840 C.3       1 NAP501      0.0000 
     13 N9A        19.6100   -1.0070    3.9490 N.pl3     1 NAP501      0.0000 
     14 C8A        20.6730   -0.3280    3.4710 C.2       1 NAP501      0.0000 
     15 N7A        21.7520   -1.1240    3.5010 N.2       1 NAP501      0.0000 
     16 C5A        21.3890   -2.3260    3.9880 C.ar      1 NAP501      0.0000 
     17 C6A        22.0480   -3.5310    4.2430 C.ar      1 NAP501      0.0000 
     18 N6A        23.3550   -3.6870    3.9910 N.pl3     1 NAP501      0.0000 
     19 N1A        21.3380   -4.5650    4.7500 N.ar      1 NAP501      0.0000 
     20 C2A        20.0210   -4.4680    5.0060 C.ar      1 NAP501      0.0000 
     21 N3A        19.3750   -3.3220    4.7570 N.ar      1 NAP501      0.0000 
     22 C4A        20.0200   -2.2510    4.2610 C.ar      1 NAP501      0.0000 
     23 O3         14.7880    1.5100   -0.9790 O.3       1 NAP501      0.0000 
     24 PN         13.5150    0.7990   -1.7330 P.3       1 NAP501      0.0000 
     25 O1N        12.3820    0.3010   -0.6460 O.co2     1 NAP501      0.0000 
     26 O2N        14.1950   -0.2810   -2.7690 O.co2     1 NAP501      0.0000 
     27 O5D        12.9680    2.0570   -2.6150 O.3       1 NAP501      0.0000 
     28 C5D        13.6530    2.7360   -3.6620 C.3       1 NAP501      0.0000 
     29 C4D        13.5170    4.2510   -3.5060 C.3       1 NAP501      0.0000 
     30 O4D        14.2980    5.0130   -4.4060 O.3       1 NAP501      0.0000 
     31 C3D        12.0810    4.6620   -3.8790 C.3       1 NAP501      0.0000 
     32 O3D        11.9160    5.8640   -3.1190 O.3       1 NAP501      0.0000 
     33 C2D        12.2080    5.0510   -5.3490 C.3       1 NAP501      0.0000 
     34 O2D        11.1460    5.9570   -5.5650 O.3       1 NAP501      0.0000 
     35 C1D        13.5460    5.7840   -5.3460 C.3       1 NAP501      0.0000 
     36 N1N        14.3050    5.7130   -6.5890 N.pl3     1 NAP501      0.0000 
     37 C2N        14.2490    4.6350   -7.4040 C.ar      1 NAP501      0.0000 
     38 C3N        14.9880    4.5800   -8.5840 C.ar      1 NAP501      0.0000 
     39 C7N        14.8520    3.3540   -9.4150 C.2       1 NAP501      0.0000 
     40 O7N        15.0990    3.5030  -10.6000 O.2       1 NAP501      0.0000 
     41 N7N        14.4920    2.1340   -8.9820 N.am      1 NAP501      0.0000 
     42 C4N        15.8210    5.6580   -8.9290 C.ar      1 NAP501      0.0000 
     43 C5N        15.8940    6.7720   -8.0850 C.ar      1 NAP501      0.0000 
     44 C6N        15.1120    6.7670   -6.9200 C.ar      1 NAP501      0.0000 
     45 P2B        19.2270    0.7520    7.2050 P.3       1 NAP501      0.0000 
     46 O1X        20.2550    2.0340    7.1360 O.co2     1 NAP501      0.0000 
     47 O2X        18.3400    0.6560    8.5750 O.co2     1 NAP501      0.0000 
     48 O3X        19.9590   -0.6810    6.8790 O.co2     1 NAP501      0.0000 
     49 H          17.3488    1.9243    1.2803 H         1 NAP501      0.0000 
     50 H          16.4714    0.4961    0.7055 H         1 NAP501      0.0000 
     51 H          15.7869    0.2185    3.1880 H         1 NAP501      0.0000 
     52 H          17.5130    2.4622    3.4134 H         1 NAP501      0.0000 
     53 H          19.2730    1.3134    4.2611 H         1 NAP501      0.0000 
     54 H          17.6510   -1.0746    4.6850 H         1 NAP501      0.0000 
     55 H          20.6553    0.5912    3.1562 H         1 NAP501      0.0000 
     56 H          23.8378   -4.3488    4.5645 H         1 NAP501      0.0000 
     57 H          23.7305   -3.1276    3.2520 H         1 NAP501      0.0000 
     58 H          19.5058   -5.2868    5.3983 H         1 NAP501      0.0000 
     59 H          13.2545    2.4673   -4.6524 H         1 NAP501      0.0000 
     60 H          14.7279    2.4982   -3.6684 H         1 NAP501      0.0000 
     61 H          13.6669    4.5356   -2.4933 H         1 NAP501      0.0000 
     62 H          11.4418    3.9312   -3.7139 H         1 NAP501      0.0000 
     63 H          12.2353    4.2236   -5.9250 H         1 NAP501      0.0000 
     64 H          13.4169    6.7610   -4.9942 H         1 NAP501      0.0000 
     65 H          13.6457    3.8193   -7.1600 H         1 NAP501      0.0000 
     66 H          16.3685    5.6262   -9.7905 H         1 NAP501      0.0000 
     67 H          16.4909    7.5566   -8.3063 H         1 NAP501      0.0000 
     68 H          15.1579    7.6030   -6.2942 H         1 NAP501      0.0000 
     69 H          16.4897    1.9224    5.6157 H         1 NAP501      0.0000 
     70 H          12.0768    5.5939   -2.1697 H         1 NAP501      0.0000 
     71 H          10.9365    6.3302   -4.6612 H         1 NAP501      0.0000 
@<TRIPOS>BOND
     1    2    1 ar   
     2    3    1 ar   
     3    4    1 1    
     4   23    1 1    
     5    5    4 1    
     6    6    5 1    
     7   49    5 1    
     8   50    5 1    
     9    7    6 1    
    10    8    6 1    
    11   51    6 1    
    12   12    7 1    
    13    9    8 1    
    14   10    8 1    
    15   52    8 1    
    16   69    9 1    
    17   11   10 1    
    18   12   10 1    
    19   53   10 1    
    20   45   11 1    
    21   13   12 1    
    22   54   12 1    
    23   14   13 1    
    24   22   13 1    
    25   15   14 2    
    26   55   14 1    
    27   16   15 1    
    28   17   16 ar   
    29   22   16 ar   
    30   18   17 1    
    31   19   17 ar   
    32   56   18 1    
    33   57   18 1    
    34   20   19 ar   
    35   21   20 ar   
    36   58   20 1    
    37   22   21 ar   
    38   24   23 1    
    39   25   24 ar   
    40   26   24 ar   
    41   27   24 1    
    42   28   27 1    
    43   29   28 1    
    44   59   28 1    
    45   60   28 1    
    46   30   29 1    
    47   31   29 1    
    48   61   29 1    
    49   35   30 1    
    50   32   31 1    
    51   33   31 1    
    52   62   31 1    
    53   70   32 1    
    54   34   33 1    
    55   35   33 1    
    56   63   33 1    
    57   71   34 1    
    58   36   35 1    
    59   64   35 1    
    60   37   36 ar   
    61   44   36 ar   
    62   38   37 ar   
    63   65   37 1    
    64   39   38 1    
    65   42   38 ar   
    66   40   39 2    
    67   41   39 am   
    68   43   42 ar   
    69   66   42 1    
    70   44   43 ar   
    71   67   43 1    
    72   68   44 1    
    73   46   45 ar   
    74   47   45 ar   
    75   48   45 ar   
@<TRIPOS>SUBSTRUCTURE
     1 NAP501      1 GROUP   
@<TRIPOS>SET

