#    Name: 4g86_BNT_3_INTS_M
#    Modification time : Mon Mar 24 21:31:49 2014

@<TRIPOS>MOLECULE
4g86_BNT_3_INTS_M
   39     0     3     0     0
SMALL
NO_CHARGES


@<TRIPOS>ATOM
      1 CA          4.7020   18.8005   24.0055 C.3       1 GLC5        0.0000 
      2 CA          5.3960   20.1980   23.5150 C.3       3 GLL5        0.0000 
      3 CA          4.0080   17.4030   24.4960 C.3       2 GLP5        0.0000 
      4 CA          4.1150   19.5155   21.8835 C.3       1 GLC5        0.0000 
      5 CA          2.8340   18.8330   20.2520 C.3       2 GLP5        0.0000 
      6 CA          7.7045   20.1905   22.1435 C.3       1 GLC5        0.0000 
      7 CA          6.4890   21.1860   23.7120 C.3       3 GLL5        0.0000 
      8 CA          8.9200   19.1950   20.5750 C.3       2 GLP5        0.0000 
      9 CA          8.7380   19.3195   23.3675 C.3       1 GLC5        0.0000 
     10 CA          7.7710   20.4980   24.0220 C.3       3 GLL5        0.0000 
     11 CA          9.7050   18.1410   22.7130 C.3       2 GLP5        0.0000 
     12 CA          8.3030   19.3415   25.4465 C.3       1 GLC5        0.0000 
     13 CA          8.8350   18.1850   26.8710 C.3       2 GLP5        0.0000 
     14 CA          4.1270   22.4200   30.0560 C.3       1 GLC5        0.0000 
     15 CA          5.5470   21.9270   29.1190 C.3       3 GLL5        0.0000 
     16 CA          2.7070   22.9130   30.9930 C.3       2 GLP5        0.0000 
     17 CA          7.1105   20.4675   28.6335 C.3       1 GLC5        0.0000 
     18 CA          8.6740   19.0080   28.1480 C.3       2 GLP5        0.0000 
     19 CA          5.6835   20.6825   30.2905 C.3       1 GLC5        0.0000 
     20 CA          5.8200   19.4380   31.4620 C.3       2 GLP5        0.0000 
     21 CA          7.1540   23.6485   27.3295 C.3       1 GLC5        0.0000 
     22 CA          5.3400   23.8780   27.0140 C.3       3 GLL5        0.0000 
     23 CA          8.9680   23.4190   27.6450 C.3       2 GLP5        0.0000 
     24 CA          6.5975   24.9175   28.7630 C.3       1 GLC5        0.0000 
     25 CA          4.9470   24.8160   28.1060 C.3       3 GLL5        0.0000 
     26 CA          8.2480   25.0190   29.4200 C.3       2 GLP5        0.0000 
     27 CA          7.4625   23.8030   22.2200 C.3       1 GLC5        0.0000 
     28 CA          5.8850   24.0690   22.7000 C.3       3 GLL5        0.0000 
     29 CA          9.0400   23.5370   21.7400 C.3       2 GLP5        0.0000 
     30 CA          8.5460   21.6905   23.1425 C.3       1 GLC5        0.0000 
     31 CA          9.9620   22.5390   22.4180 C.3       2 GLP5        0.0000 
     32 CA          7.4982   23.1510   23.2035 C.3       1 GLC5        0.0000 
     33 CA          6.1060   22.1150   24.8110 C.3       3 GLL5        0.0000 
     34 CA          7.4623   23.0920   26.1560 C.3       1 GLC5        0.0000 
     35 CA          5.8070   23.4150   24.5230 C.3       3 GLL5        0.0000 
     36 CA          7.2790   22.8358   27.9270 C.3       1 GLC5        0.0000 
     37 CA          5.6330   22.5780   27.2990 C.3       3 GLL5        0.0000 
     38 CA          3.6267   24.1465   28.8070 C.3       1 GLC5        0.0000 
     39 CA          2.1100   23.9460   30.0540 C.3       2 GLP5        0.0000 
@<TRIPOS>BOND
@<TRIPOS>SUBSTRUCTURE
     1 GLC5        1 GROUP        1 X    GLC  0     ROOT GLC X 6
     2 GLP5        3 GROUP        1 Y    GLP  0     ROOT GLP Y 13
     3 GLL5        2 GROUP        1 Z    GLL  0     ROOT GLL Z 20
@<TRIPOS>SET

