#    Name: 4g86_BNT_3_ligand
#    Modification time : Mon Mar 24 21:31:49 2014

@<TRIPOS>MOLECULE
4g86_BNT_3_ligand
   24    24     1     0     0
SMALL
NO_CHARGES


@<TRIPOS>ATOM
      1 CAA         5.3960   20.1980   23.5150 C.3       1 BNT1301     0.0000 
      2 CAD         6.4890   21.1860   23.7120 C.3       1 BNT1301     0.0000 
      3 CAC         7.7710   20.4980   24.0220 C.3       1 BNT1301     0.0000 
      4 CAE         6.1060   22.1150   24.8110 C.2       1 BNT1301     0.0000 
      5 CAF         6.0270   21.6350   26.2200 C.2       1 BNT1301     0.0000 
      6 OAB         6.2800   20.4740   26.5070 O.2       1 BNT1301     0.0000 
      7 CAG         5.6330   22.5780   27.2990 C.2       1 BNT1301     0.0000 
      8 BRAH        5.5470   21.9270   29.1190 Br        1 BNT1301     0.0000 
      9 CAL         5.3400   23.8780   27.0140 C.2       1 BNT1301     0.0000 
     10 CAM         4.9470   24.8160   28.1060 C.3       1 BNT1301     0.0000 
     11 CAK         5.4190   24.3550   25.6060 C.2       1 BNT1301     0.0000 
     12 OAN         5.1550   25.5120   25.3300 O.2       1 BNT1301     0.0000 
     13 CAJ         5.8070   23.4150   24.5230 C.2       1 BNT1301     0.0000 
     14 BRAI        5.8850   24.0690   22.7000 Br        1 BNT1301     0.0000 
     15 H           6.6057   21.7615   22.7969 H         1 BNT1301     0.0000 
     16 H           5.5915   19.5738   22.7586 H         1 BNT1301     0.0000 
     17 H           5.2524   19.6357   24.3294 H         1 BNT1301     0.0000 
     18 H           4.5249   20.6439   23.3093 H         1 BNT1301     0.0000 
     19 H           8.5173   21.1487   24.1618 H         1 BNT1301     0.0000 
     20 H           7.7045   19.9453   24.8527 H         1 BNT1301     0.0000 
     21 H           8.0514   19.8847   23.2836 H         1 BNT1301     0.0000 
     22 H           5.6668   24.9072   28.7942 H         1 BNT1301     0.0000 
     23 H           4.7573   25.7337   27.7570 H         1 BNT1301     0.0000 
     24 H           4.1235   24.5075   28.5822 H         1 BNT1301     0.0000 
@<TRIPOS>BOND
     1    2    1 1    
     2   16    1 1    
     3   17    1 1    
     4   18    1 1    
     5    3    2 1    
     6    4    2 1    
     7   15    2 1    
     8   19    3 1    
     9   20    3 1    
    10   21    3 1    
    11    5    4 1    
    12   13    4 2    
    13    6    5 2    
    14    7    5 1    
    15    8    7 1    
    16    9    7 2    
    17   10    9 1    
    18   11    9 1    
    19   22   10 1    
    20   23   10 1    
    21   24   10 1    
    22   12   11 2    
    23   13   11 1    
    24   14   13 1    
@<TRIPOS>SUBSTRUCTURE
     1 BNT1301     1 GROUP   
@<TRIPOS>SET

