#    Name: 3iog_SDF_1_INTS_M
#    Modification time : Tue Mar 25 17:01:30 2014

@<TRIPOS>MOLECULE
3iog_SDF_1_INTS_M
   37     0    12     0     0
SMALL
NO_CHARGES


@<TRIPOS>ATOM
      1 CA         -0.8730    2.8815   68.9250 C.3       4 GLC5        0.0000 
      2 CA          0.9150    2.9580   68.4820 C.3      12 GLL5        0.0000 
      3 CA         -2.6610    2.8050   69.3680 C.3       8 GLP5        0.0000 
      4 CA          0.8170    1.5845   70.0585 C.3       4 GLC5        0.0000 
      5 CA          0.7190    0.2110   71.6350 C.3       8 GLP5        0.0000 
      6 CA          4.3545    4.2170   65.1375 C.3       4 GLC5        0.0000 
      7 CA          4.9390    4.2650   66.8790 C.3      12 GLL5        0.0000 
      8 CA          3.7700    4.1690   63.3960 C.3       8 GLP5        0.0000 
      9 CA          6.6205    4.5295   66.3200 C.3       4 GLC5        0.0000 
     10 CA          8.3020    4.7940   65.7610 C.3       8 GLP5        0.0000 
     11 CA          8.3565   -1.3645   68.4520 C.3       4 GLC5        0.0000 
     12 CA          6.5680   -0.8290   67.5930 C.3      12 GLL5        0.0000 
     13 CA         10.1450   -1.9000   69.3110 C.3       8 GLP5        0.0000 
     14 CA          6.8630   -2.7715   66.6275 C.3       4 GLC5        0.0000 
     15 CA          7.1580   -4.7140   65.6620 C.3       8 GLP5        0.0000 
     16 CA          7.8745   -0.2040   66.1440 C.3       4 GLC5        0.0000 
     17 CA          9.1810    0.4210   64.6950 C.3       8 GLP5        0.0000 
     18 CA          5.3010    1.8705   65.1930 C.3       4 GLC5        0.0000 
     19 CA          5.5060    1.6960   67.4000 C.3      12 GLL5        0.0000 
     20 CA          5.0960    2.0450   62.9860 C.3       8 GLP5        0.0000 
     21 CA          2.0405    0.7460   70.3780 C.3       4 GLC5        0.0000 
     22 CA          3.3620    1.2810   69.1210 C.3      12 GLL5        0.0000 
     23 CA          2.4840    5.8360   68.4860 C.3       4 GLC5        0.0000 
     24 CA          2.5570    3.6650   68.7730 C.3      12 GLL5        0.0000 
     25 CA          2.4110    8.0070   68.1990 C.3       8 GLP5        0.0000 
     26 Zn          4.3150    6.0680   70.3630 Zn        3 ZIC7        0.0000 
     27 Zn          3.9810    5.1630   70.5320 Zn       11 ZIL7        0.0000 
     28 Zn          4.6490    6.9730   70.1940 Zn        7 ZIP7        0.0000 
     29 NZ          0.4535    6.1220   70.7910 N.4       2 LYC4        0.0000 
     30 NZ          1.5550    5.6410   70.1640 N.4      10 LYL4        0.0000 
     31 NZ         -0.6480    6.6030   71.4180 N.4       6 LYP4        0.0000 
     32 N           0.4535    6.1220   70.7910 N.am      1 SEC2        0.0000 
     33 N           1.5550    5.6410   70.1640 N.am      9 SEL2        0.0000 
     34 N          -0.6480    6.6030   71.4180 N.am      5 SEP2        0.0000 
     35 N           2.2315    4.3535   72.6115 N.am      1 SEC2        0.0000 
     36 N           2.3110    3.5760   71.4580 N.am      9 SEL2        0.0000 
     37 N           2.1520    5.1310   73.7650 N.am      5 SEP2        0.0000 
@<TRIPOS>BOND
@<TRIPOS>SUBSTRUCTURE
     1 SEC2       32 GROUP        1 X    SEC  0     ROOT SEC X 2
     2 LYC4       29 GROUP        1 X    LYC  0     **** LYC X 4
     3 ZIC7       26 GROUP        1 X    ZIC  0     **** ZIC X 5
     4 GLC5        1 GROUP        1 X    GLC  0     **** GLC X 6
     5 SEP2       34 GROUP        1 Y    SEP  0     ROOT SEP Y 9
     6 LYP4       31 GROUP        1 Y    LYP  0     **** LYP Y 11
     7 ZIP7       28 GROUP        1 Y    ZIP  0     **** ZIP Y 12
     8 GLP5        3 GROUP        1 Y    GLP  0     **** GLP Y 13
     9 SEL2       33 GROUP        1 Z    SEL  0     ROOT SEL Z 16
    10 LYL4       30 GROUP        1 Z    LYL  0     **** LYL Z 18
    11 ZIL7       27 GROUP        1 Z    ZIL  0     **** ZIL Z 19
    12 GLL5        2 GROUP        1 Z    GLL  0     **** GLL Z 20
@<TRIPOS>SET

