#    Name: 3iog_SDF_1_ligand
#    Modification time : Tue Mar 25 17:01:30 2014

@<TRIPOS>MOLECULE
3iog_SDF_1_ligand
   18    18     1     0     0
SMALL
NO_CHARGES


@<TRIPOS>ATOM
      1 C1          3.5350    2.5540   68.5830 C.ar      1 SDF311      0.0000 
      2 P1          2.6000    4.5680   70.3450 P.3       1 SDF311      0.0000 
      3 S1          0.9150    2.9580   68.4820 S.3       1 SDF311      0.0000 
      4 CL1         4.9390    4.2650   66.8790 Cl        1 SDF311      0.0000 
      5 C2          4.5970    2.7150   67.6810 C.ar      1 SDF311      0.0000 
      6 CL2         6.5680   -0.8290   67.5930 Cl        1 SDF311      0.0000 
      7 C3          5.5060    1.6960   67.4000 C.ar      1 SDF311      0.0000 
      8 C4          5.3600    0.4530   67.9860 C.ar      1 SDF311      0.0000 
      9 C5          4.2770    0.2490   68.8470 C.ar      1 SDF311      0.0000 
     10 C6          3.3620    1.2810   69.1210 C.ar      1 SDF311      0.0000 
     11 C7          2.5570    3.6650   68.7730 C.3       1 SDF311      0.0000 
     12 O11         3.9810    5.1630   70.5320 O.co2     1 SDF311      0.0000 
     13 O12         1.5550    5.6410   70.1640 O.co2     1 SDF311      0.0000 
     14 O13         2.3110    3.5760   71.4580 O.co2     1 SDF311      0.0000 
     15 H           6.2874    1.8756   66.7526 H         1 SDF311      0.0000 
     16 H           4.1442   -0.6736   69.2906 H         1 SDF311      0.0000 
     17 H           2.5520    1.0864   69.7305 H         1 SDF311      0.0000 
     18 H           2.6148    4.4243   68.0111 H         1 SDF311      0.0000 
@<TRIPOS>BOND
     1    5    1 ar   
     2   10    1 ar   
     3   11    1 1    
     4   11    2 1    
     5   12    2 ar   
     6   13    2 ar   
     7   14    2 ar   
     8   11    3 1    
     9    5    4 1    
    10    7    5 ar   
    11    8    6 1    
    12    8    7 ar   
    13   15    7 1    
    14    9    8 ar   
    15   10    9 ar   
    16   16    9 1    
    17   17   10 1    
    18   18   11 1    
@<TRIPOS>SUBSTRUCTURE
     1 SDF311      1 GROUP   
@<TRIPOS>SET

