#    Name: 3dg8_UMP_4_INTS_M
#    Modification time : Mon Mar 24 23:15:51 2014

@<TRIPOS>MOLECULE
3dg8_UMP_4_INTS_M
   51     0    12     0     0
SMALL
NO_CHARGES


@<TRIPOS>ATOM
      1 O          17.7045   10.8660    8.1320 O.2       1 ALC1        0.0000 
      2 O          16.5990   11.6200    7.7050 O.2       9 ALL1        0.0000 
      3 O          18.8100   10.1120    8.5590 O.2       5 ALP1        0.0000 
      4 N          15.5345   11.2155   11.3385 N.am      2 SEC2        0.0000 
      5 N          16.0210   11.4860    9.9330 N.am     10 SEL2        0.0000 
      6 N          15.0480   10.9450   12.7440 N.am      6 SEP2        0.0000 
      7 N          17.9295   10.8105    5.8960 N.am      2 SEC2        0.0000 
      8 N          17.1820   11.7490    5.4530 N.am     10 SEL2        0.0000 
      9 N          18.6770    9.8720    6.3390 N.am      6 SEP2        0.0000 
     10 CA         16.0105   13.1150   12.2985 C.3       4 GLC5        0.0000 
     11 CA         14.8870   14.3840   11.0670 C.3      12 GLL5        0.0000 
     12 CA         17.1340   11.8460   13.5300 C.3       8 GLP5        0.0000 
     13 O          12.8780   13.9295   13.4925 O.2       1 ALC1        0.0000 
     14 O          12.6740   14.3980   12.0520 O.2       9 ALL1        0.0000 
     15 O          13.0820   13.4610   14.9330 O.2       5 ALP1        0.0000 
     16 CA         15.5305   17.0245   11.9105 C.3       4 GLC5        0.0000 
     17 CA         14.0670   17.5000   10.3950 C.3      12 GLL5        0.0000 
     18 CA         16.9940   16.5490   13.4260 C.3       8 GLP5        0.0000 
     19 NZ         13.9255   18.3370   14.2630 N.4       3 LYC4        0.0000 
     20 NZ         14.5340   19.0710   13.0310 N.4      11 LYL4        0.0000 
     21 NZ         12.0590   17.1750   15.4680 N.4       7 LYP4        0.0000 
     22 N          13.9255   18.3370   14.2630 N.am      2 SEC2        0.0000 
     23 N          14.5340   19.0710   13.0310 N.am     10 SEL2        0.0000 
     24 N          13.3170   17.6030   15.4950 N.am      6 SEP2        0.0000 
     25 N          15.9850   19.5825   12.7375 N.am      2 SEC2        0.0000 
     26 N          17.4360   20.0940   12.4440 N.am      6 SEP2        0.0000 
     27 N          15.0980   17.6395   13.3970 N.am      2 SEC2        0.0000 
     28 N          15.6620   16.2080   13.7630 N.am      6 SEP2        0.0000 
     29 NZ         14.7485   22.0240   11.4065 N.4       3 LYC4        0.0000 
     30 NZ         14.6490   20.5510   11.1440 N.4      11 LYL4        0.0000 
     31 NZ         13.8860   23.9950   10.9060 N.4       7 LYP4        0.0000 
     32 NZ         16.0425   20.3225   11.7940 N.4       3 LYC4        0.0000 
     33 NZ         18.0460   20.3140   11.2870 N.4       7 LYP4        0.0000 
     34 N          14.7485   22.0240   11.4065 N.am      2 SEC2        0.0000 
     35 N          14.6490   20.5510   11.1440 N.am     10 SEL2        0.0000 
     36 N          14.8480   23.4970   11.6690 N.am      6 SEP2        0.0000 
     37 N          13.8805   21.8630   10.6765 N.am      2 SEC2        0.0000 
     38 N          13.1120   23.1750   10.2090 N.am      6 SEP2        0.0000 
     39 N          16.0425   20.3225   11.7940 N.am      2 SEC2        0.0000 
     40 N          15.9900   20.5255   10.6640 N.am      2 SEC2        0.0000 
     41 N          17.3310   20.5000   10.1840 N.am      6 SEP2        0.0000 
     42 CA         16.2347   15.2353    7.8000 C.3       4 GLC5        0.0000 
     43 CA         15.0890   13.9130    7.4140 C.3      12 GLL5        0.0000 
     44 CA         17.0420   16.7990    8.7520 C.3       8 GLP5        0.0000 
     45 CA         15.8263   15.4942    9.5658 C.3       4 GLC5        0.0000 
     46 CA         14.3340   13.9950    9.6920 C.3      12 GLL5        0.0000 
     47 CA         13.7127   12.4317   11.0678 C.3       4 GLC5        0.0000 
     48 CA         12.8150   10.6740   11.7560 C.3       8 GLP5        0.0000 
     49 CA         15.6602   15.6895   12.3880 C.3       4 GLC5        0.0000 
     50 CA         15.3598   16.8188    9.5925 C.3       4 GLC5        0.0000 
     51 CA         13.2880   16.1770   10.4710 C.3      12 GLL5        0.0000 
@<TRIPOS>BOND
@<TRIPOS>SUBSTRUCTURE
     1 ALC1        1 GROUP        1 X    ALC  0     ROOT ALC X 1
     2 SEC2        4 GROUP        1 X    SEC  0     **** SEC X 2
     3 LYC4       19 GROUP        1 X    LYC  0     **** LYC X 4
     4 GLC5       10 GROUP        1 X    GLC  0     **** GLC X 6
     5 ALP1        3 GROUP        1 Y    ALP  0     ROOT ALP Y 8
     6 SEP2        6 GROUP        1 Y    SEP  0     **** SEP Y 9
     7 LYP4       21 GROUP        1 Y    LYP  0     **** LYP Y 11
     8 GLP5       12 GROUP        1 Y    GLP  0     **** GLP Y 13
     9 ALL1        2 GROUP        1 Z    ALL  0     ROOT ALL Z 15
    10 SEL2        5 GROUP        1 Z    SEL  0     **** SEL Z 16
    11 LYL4       20 GROUP        1 Z    LYL  0     **** LYL Z 18
    12 GLL5       11 GROUP        1 Z    GLL  0     **** GLL Z 20
@<TRIPOS>SET

