#    Name: 3dg8_UMP_4_ligand
#    Modification time : Mon Mar 24 23:15:52 2014

@<TRIPOS>MOLECULE
3dg8_UMP_4_ligand
   31    32     1     0     0
SMALL
NO_CHARGES


@<TRIPOS>ATOM
      1 N1         15.1540   13.2940    8.6290 N.am      1 UMP611      0.0000 
      2 C2         15.9240   12.0920    8.8600 C.2       1 UMP611      0.0000 
      3 N3         16.5990   11.6200    7.7050 N.am      1 UMP611      0.0000 
      4 C4         16.5730   12.2160    6.4080 C.2       1 UMP611      0.0000 
      5 C5         15.7660   13.4300    6.2820 C.2       1 UMP611      0.0000 
      6 C6         15.0890   13.9130    7.4140 C.2       1 UMP611      0.0000 
      7 O2         16.0210   11.4860    9.9330 O.2       1 UMP611      0.0000 
      8 O4         17.1820   11.7490    5.4530 O.2       1 UMP611      0.0000 
      9 C1'        14.3340   13.9950    9.6920 C.3       1 UMP611      0.0000 
     10 C2'        14.8870   14.3840   11.0670 C.3       1 UMP611      0.0000 
     11 C3'        13.7660   15.2760   11.6330 C.3       1 UMP611      0.0000 
     12 C4'        13.2880   16.1770   10.4710 C.3       1 UMP611      0.0000 
     13 O3'        12.6740   14.3980   12.0520 O.3       1 UMP611      0.0000 
     14 O4'        13.6770   15.3070    9.3180 O.3       1 UMP611      0.0000 
     15 C5'        14.0670   17.5000   10.3950 C.3       1 UMP611      0.0000 
     16 O5'        13.2360   18.6010   10.9200 O.3       1 UMP611      0.0000 
     17 P          13.7800   19.6780   11.9370 P.3       1 UMP611      0.0000 
     18 OP1        14.5340   19.0710   13.0310 O.co2     1 UMP611      0.0000 
     19 OP2        14.6490   20.5510   11.1440 O.co2     1 UMP611      0.0000 
     20 OP3        12.6740   20.4230   12.5120 O.co2     1 UMP611      0.0000 
     21 H          17.1817   10.7370    7.8121 H         1 UMP611      0.0000 
     22 H          15.7139   13.8908    5.3898 H         1 UMP611      0.0000 
     23 H          14.5158   14.7840    7.3044 H         1 UMP611      0.0000 
     24 H          13.4261   13.3314    9.9521 H         1 UMP611      0.0000 
     25 H          15.7669   14.9511   10.9533 H         1 UMP611      0.0000 
     26 H          14.9934   13.5258   11.6676 H         1 UMP611      0.0000 
     27 H          14.1414   15.8611   12.4060 H         1 UMP611      0.0000 
     28 H          12.2734   16.2993   10.5123 H         1 UMP611      0.0000 
     29 H          14.3344   17.6803    9.3543 H         1 UMP611      0.0000 
     30 H          14.9805   17.3932   10.9791 H         1 UMP611      0.0000 
     31 H          12.9393   14.0698   12.9586 H         1 UMP611      0.0000 
@<TRIPOS>BOND
     1    2    1 1    
     2    6    1 1    
     3    9    1 1    
     4    3    2 1    
     5    7    2 2    
     6    4    3 1    
     7   21    3 1    
     8    5    4 1    
     9    8    4 2    
    10    6    5 2    
    11   22    5 1    
    12   23    6 1    
    13   10    9 1    
    14   14    9 1    
    15   24    9 1    
    16   11   10 1    
    17   25   10 1    
    18   26   10 1    
    19   12   11 1    
    20   13   11 1    
    21   27   11 1    
    22   14   12 1    
    23   15   12 1    
    24   28   12 1    
    25   31   13 1    
    26   16   15 1    
    27   29   15 1    
    28   30   15 1    
    29   17   16 1    
    30   18   17 ar   
    31   19   17 ar   
    32   20   17 ar   
@<TRIPOS>SUBSTRUCTURE
     1 UMP611      1 GROUP   
@<TRIPOS>SET

