#    Name: 1n9n_FMN_1_INTS_M
#    Modification time : Mon Mar 24 17:52:54 2014

@<TRIPOS>MOLECULE
1n9n_FMN_1_INTS_M
   90     0    12     0     0
SMALL
NO_CHARGES


@<TRIPOS>ATOM
      1 N          10.6335   52.7025   17.8055 N.am      2 SEC2        0.0000 
      2 N          11.8660   52.0250   16.9090 N.am     10 SEL2        0.0000 
      3 N           9.4010   53.3800   18.7020 N.am      6 SEP2        0.0000 
      4 N           9.9645   53.4285   17.2720 N.am      2 SEC2        0.0000 
      5 N          10.5280   53.4770   15.8420 N.am     10 SEL2        0.0000 
      6 N           9.8640   54.1720   14.7135 N.am      2 SEC2        0.0000 
      7 N           9.2000   54.8670   13.5850 N.am      6 SEP2        0.0000 
      8 O          11.7395   53.5885   13.6400 O.2       1 ALC1        0.0000 
      9 O          12.3690   52.9050   14.7190 O.2       9 ALL1        0.0000 
     10 O          11.1100   54.2720   12.5610 O.2       5 ALP1        0.0000 
     11 N          13.3265   52.1300   12.3990 N.am      2 SEC2        0.0000 
     12 N          14.2500   52.3410   13.5450 N.am     10 SEL2        0.0000 
     13 N          12.4030   51.9190   11.2530 N.am      6 SEP2        0.0000 
     14 N          16.0160   50.2940   14.3195 N.am      2 SEC2        0.0000 
     15 N          15.0790   50.6820   15.6500 N.am     10 SEL2        0.0000 
     16 N          16.9530   49.9060   12.9890 N.am      6 SEP2        0.0000 
     17 CA         19.0660   48.8715   16.3690 C.3       4 GLC5        0.0000 
     18 CA         18.3890   47.4920   17.7090 C.3      12 GLL5        0.0000 
     19 CA         19.7430   50.2510   15.0290 C.3       8 GLP5        0.0000 
     20 CA         19.3330   48.1665   19.2845 C.3       4 GLC5        0.0000 
     21 CA         20.2770   48.8410   20.8600 C.3       8 GLP5        0.0000 
     22 CA         17.0320   45.7485   18.0135 C.3       4 GLC5        0.0000 
     23 CA         15.6750   44.0050   18.3180 C.3       8 GLP5        0.0000 
     24 CA         18.7615   46.2230   19.1655 C.3       4 GLC5        0.0000 
     25 CA         19.1340   44.9540   20.6220 C.3       8 GLP5        0.0000 
     26 CA         19.6065   46.0490   17.0190 C.3       4 GLC5        0.0000 
     27 CA         20.8240   44.6060   16.3290 C.3       8 GLP5        0.0000 
     28 CA         18.3400   46.8735   15.8945 C.3       4 GLC5        0.0000 
     29 CA         18.2910   46.2550   14.0800 C.3       8 GLP5        0.0000 
     30 CA         18.4475   48.0765   20.4810 C.3       4 GLC5        0.0000 
     31 CA         16.6180   47.3120   20.1020 C.3      12 GLL5        0.0000 
     32 CA         16.1465   45.6585   19.2100 C.3       4 GLC5        0.0000 
     33 CA         17.8760   46.1330   20.3620 C.3       4 GLC5        0.0000 
     34 CA         13.3945   49.0835   16.5350 C.3       4 GLC5        0.0000 
     35 CA         14.5840   49.7430   17.9360 C.3      12 GLL5        0.0000 
     36 CA         12.2050   48.4240   15.1340 C.3       8 GLP5        0.0000 
     37 CA         10.7185   49.2720   18.3040 C.3       4 GLC5        0.0000 
     38 CA         12.3720   50.4680   19.0520 C.3      12 GLL5        0.0000 
     39 CA          9.0650   48.0760   17.5560 C.3       8 GLP5        0.0000 
     40 CA         12.2885   49.4460   17.0930 C.3       4 GLC5        0.0000 
     41 CA         14.2890   52.3595   19.1685 C.3       4 GLC5        0.0000 
     42 CA         12.7230   51.3510   20.2470 C.3      12 GLL5        0.0000 
     43 CA         15.8550   53.3680   18.0900 C.3       8 GLP5        0.0000 
     44 CA         12.4165   53.4630   20.1180 C.3       4 GLC5        0.0000 
     45 CA         12.1100   55.5750   19.9890 C.3       8 GLP5        0.0000 
     46 O          14.0900   52.5695   21.3145 O.2       1 ALC1        0.0000 
     47 O          14.1270   51.5830   20.3260 O.2       9 ALL1        0.0000 
     48 O          14.0530   53.5560   22.3030 O.2       5 ALP1        0.0000 
     49 CA          8.6210   50.7565   21.4490 C.3       4 GLC5        0.0000 
     50 CA         10.8020   50.3390   21.6590 C.3      12 GLL5        0.0000 
     51 CA          6.4400   51.1740   21.2390 C.3       8 GLP5        0.0000 
     52 N           9.6610   52.4040   19.9985 N.am      2 SEC2        0.0000 
     53 N           9.9210   51.4280   21.2950 N.am     10 SEL2        0.0000 
     54 CA          9.2730   48.5475   23.8310 C.3       4 GLC5        0.0000 
     55 CA         10.5060   49.8890   23.0920 C.3      12 GLL5        0.0000 
     56 CA          8.0400   47.2060   24.5700 C.3       8 GLP5        0.0000 
     57 NZ         10.9550   53.1050   24.6030 N.4       3 LYC4        0.0000 
     58 NZ          9.5570   52.8530   23.5930 N.4      11 LYL4        0.0000 
     59 NZ         12.2900   54.5920   25.1310 N.4       7 LYP4        0.0000 
     60 N          10.4205   53.8990   23.9640 N.am      2 SEC2        0.0000 
     61 N           9.5570   52.8530   23.5930 N.am     10 SEL2        0.0000 
     62 N          11.2840   54.9450   24.3350 N.am      6 SEP2        0.0000 
     63 N          10.9550   53.1050   24.6030 N.am      2 SEC2        0.0000 
     64 N          12.3530   53.3570   25.6130 N.am      6 SEP2        0.0000 
     65 NZ         11.1880   52.4485   25.6465 N.4       3 LYC4        0.0000 
     66 NZ         10.0230   51.5400   25.6800 N.4      11 LYL4        0.0000 
     67 N          11.1880   52.4485   25.6465 N.am      2 SEC2        0.0000 
     68 N          10.0230   51.5400   25.6800 N.am     10 SEL2        0.0000 
     69 NZ          6.1980   50.9150   24.9165 N.4       3 LYC4        0.0000 
     70 NZ          7.6130   51.7030   24.7430 N.4      11 LYL4        0.0000 
     71 NZ          5.3630   49.0920   25.6820 N.4       7 LYP4        0.0000 
     72 N           7.1105   50.4515   25.4425 N.am      2 SEC2        0.0000 
     73 N           7.6130   51.7030   24.7430 N.am     10 SEL2        0.0000 
     74 N           6.6080   49.2000   26.1420 N.am      6 SEP2        0.0000 
     75 N           6.1980   50.9150   24.9165 N.am      2 SEC2        0.0000 
     76 N           4.7830   50.1270   25.0900 N.am      6 SEP2        0.0000 
     77 CA         15.4295   51.5913   17.7087 C.3       4 GLC5        0.0000 
     78 CA         15.1232   48.7985   15.1735 C.3       4 GLC5        0.0000 
     79 CA         15.4240   49.8860   16.7190 C.3      12 GLL5        0.0000 
     80 CA         14.1990   48.0890   13.6540 C.3       8 GLP5        0.0000 
     81 CA         18.3075   49.4860   16.1092 C.3       4 GLC5        0.0000 
     82 CA         16.6710   49.1300   16.6670 C.3      12 GLL5        0.0000 
     83 CA         15.5865   47.0890   17.0177 C.3       4 GLC5        0.0000 
     84 CA         14.3010   45.4570   16.8460 C.3       8 GLP5        0.0000 
     85 CA         17.5815   47.4880   15.6348 C.3       4 GLC5        0.0000 
     86 CA         17.0730   48.3120   17.7120 C.3      12 GLL5        0.0000 
     87 CA         14.7334   47.3833   20.7215 C.3       4 GLC5        0.0000 
     88 CA         16.2190   48.1880   18.9280 C.3      12 GLL5        0.0000 
     89 CA         13.7520   46.4450   22.1820 C.3       8 GLP5        0.0000 
     90 CA         14.7003   47.2994   17.6489 C.3       4 GLC5        0.0000 
@<TRIPOS>BOND
@<TRIPOS>SUBSTRUCTURE
     1 ALC1        8 GROUP        1 X    ALC  0     ROOT ALC X 1
     2 SEC2        1 GROUP        1 X    SEC  0     **** SEC X 2
     3 LYC4       57 GROUP        1 X    LYC  0     **** LYC X 4
     4 GLC5       17 GROUP        1 X    GLC  0     **** GLC X 6
     5 ALP1       10 GROUP        1 Y    ALP  0     ROOT ALP Y 8
     6 SEP2        3 GROUP        1 Y    SEP  0     **** SEP Y 9
     7 LYP4       59 GROUP        1 Y    LYP  0     **** LYP Y 11
     8 GLP5       19 GROUP        1 Y    GLP  0     **** GLP Y 13
     9 ALL1        9 GROUP        1 Z    ALL  0     ROOT ALL Z 15
    10 SEL2        2 GROUP        1 Z    SEL  0     **** SEL Z 16
    11 LYL4       58 GROUP        1 Z    LYL  0     **** LYL Z 18
    12 GLL5       18 GROUP        1 Z    GLL  0     **** GLL Z 20
@<TRIPOS>SET

