#    Name: 1n9n_FMN_1_ligand
#    Modification time : Mon Mar 24 17:52:54 2014

@<TRIPOS>MOLECULE
1n9n_FMN_1_ligand
   50    52     1     0     0
SMALL
NO_CHARGES


@<TRIPOS>ATOM
      1 N1         11.8660   52.0250   16.9090 N.2       1 FMN500      0.0000 
      2 C2         11.5100   52.8220   15.8800 C.2       1 FMN500      0.0000 
      3 O2         10.5280   53.4770   15.8420 O.2       1 FMN500      0.0000 
      4 N3         12.3690   52.9050   14.7190 N.am      1 FMN500      0.0000 
      5 C4         13.5550   52.2260   14.5760 C.2       1 FMN500      0.0000 
      6 O4         14.2500   52.3410   13.5450 O.2       1 FMN500      0.0000 
      7 C4A        13.9570   51.3680   15.6910 C.2       1 FMN500      0.0000 
      8 N5         15.0790   50.6820   15.6500 N.2       1 FMN500      0.0000 
      9 C5A        15.4240   49.8860   16.7190 C.ar      1 FMN500      0.0000 
     10 C6         16.6710   49.1300   16.6670 C.ar      1 FMN500      0.0000 
     11 C7         17.0730   48.3120   17.7120 C.ar      1 FMN500      0.0000 
     12 C7M        18.3890   47.4920   17.7090 C.3       1 FMN500      0.0000 
     13 C8         16.2190   48.1880   18.9280 C.ar      1 FMN500      0.0000 
     14 C8M        16.6180   47.3120   20.1020 C.3       1 FMN500      0.0000 
     15 C9         15.0110   48.8930   19.0070 C.ar      1 FMN500      0.0000 
     16 C9A        14.5840   49.7430   17.9360 C.ar      1 FMN500      0.0000 
     17 N10        13.3700   50.5090   17.9190 N.pl3     1 FMN500      0.0000 
     18 C10        13.0200   51.3210   16.8580 C.2       1 FMN500      0.0000 
     19 C1'        12.3720   50.4680   19.0520 C.3       1 FMN500      0.0000 
     20 C2'        12.7230   51.3510   20.2470 C.3       1 FMN500      0.0000 
     21 O2'        14.1270   51.5830   20.3260 O.3       1 FMN500      0.0000 
     22 C3'        12.2620   50.6760   21.5570 C.3       1 FMN500      0.0000 
     23 O3'        12.8990   49.3390   21.5900 O.3       1 FMN500      0.0000 
     24 C4'        10.8020   50.3390   21.6590 C.3       1 FMN500      0.0000 
     25 O4'         9.9210   51.4280   21.2950 O.3       1 FMN500      0.0000 
     26 C5'        10.5060   49.8890   23.0920 C.3       1 FMN500      0.0000 
     27 O5'         9.2630   50.3680   23.5910 O.3       1 FMN500      0.0000 
     28 P           9.1200   51.6800   24.4420 P.3       1 FMN500      0.0000 
     29 O1P         9.5570   52.8530   23.5930 O.co2     1 FMN500      0.0000 
     30 O2P        10.0230   51.5400   25.6800 O.co2     1 FMN500      0.0000 
     31 O3P         7.6130   51.7030   24.7430 O.co2     1 FMN500      0.0000 
     32 H          12.0364   53.5387   13.9437 H         1 FMN500      0.0000 
     33 H          17.2468   49.2274   15.8176 H         1 FMN500      0.0000 
     34 H          14.4143   48.8085   19.8375 H         1 FMN500      0.0000 
     35 H          12.2643   49.4232   19.4051 H         1 FMN500      0.0000 
     36 H          11.3759   50.7694   18.6713 H         1 FMN500      0.0000 
     37 H          12.1760   52.2804   20.1573 H         1 FMN500      0.0000 
     38 H          12.5824   51.2275   22.3952 H         1 FMN500      0.0000 
     39 H          10.6089   49.4670   21.0193 H         1 FMN500      0.0000 
     40 H          11.3562   50.2267   23.7247 H         1 FMN500      0.0000 
     41 H          10.5481   48.7775   23.1027 H         1 FMN500      0.0000 
     42 H          19.1932   48.0807   17.6270 H         1 FMN500      0.0000 
     43 H          18.4983   46.9620   18.5499 H         1 FMN500      0.0000 
     44 H          18.4212   46.8441   16.9479 H         1 FMN500      0.0000 
     45 H          16.7156   46.3536   19.8339 H         1 FMN500      0.0000 
     46 H          17.4914   47.5962   20.4975 H         1 FMN500      0.0000 
     47 H          15.9398   47.3434   20.8362 H         1 FMN500      0.0000 
     48 H          14.2937   51.8394   21.2781 H         1 FMN500      0.0000 
     49 H          13.1333   49.1877   22.5503 H         1 FMN500      0.0000 
     50 H           9.7635   51.9289   22.1461 H         1 FMN500      0.0000 
@<TRIPOS>BOND
     1    2    1 1    
     2   18    1 2    
     3    3    2 2    
     4    4    2 am   
     5    5    4 am   
     6   32    4 1    
     7    6    5 2    
     8    7    5 1    
     9    8    7 2    
    10   18    7 1    
    11    9    8 1    
    12   10    9 ar   
    13   16    9 ar   
    14   11   10 ar   
    15   33   10 1    
    16   12   11 1    
    17   13   11 ar   
    18   42   12 1    
    19   43   12 1    
    20   44   12 1    
    21   14   13 1    
    22   15   13 ar   
    23   45   14 1    
    24   46   14 1    
    25   47   14 1    
    26   16   15 ar   
    27   34   15 1    
    28   17   16 1    
    29   18   17 1    
    30   19   17 1    
    31   20   19 1    
    32   35   19 1    
    33   36   19 1    
    34   21   20 1    
    35   22   20 1    
    36   37   20 1    
    37   48   21 1    
    38   23   22 1    
    39   24   22 1    
    40   38   22 1    
    41   49   23 1    
    42   25   24 1    
    43   26   24 1    
    44   39   24 1    
    45   50   25 1    
    46   27   26 1    
    47   40   26 1    
    48   41   26 1    
    49   28   27 1    
    50   29   28 ar   
    51   30   28 ar   
    52   31   28 ar   
@<TRIPOS>SUBSTRUCTURE
     1 FMN500      1 GROUP   
@<TRIPOS>SET

