#    Name: 1exa_394_1_INTS_M
#    Modification time : Tue Mar 25 00:20:33 2014

@<TRIPOS>MOLECULE
1exa_394_1_INTS_M
  102     0    12     0     0
SMALL
NO_CHARGES


@<TRIPOS>ATOM
      1 CA         41.6430   17.1365   84.3875 C.3       4 GLC5        0.0000 
      2 CA         42.4240   15.1680   83.8940 C.3      12 GLL5        0.0000 
      3 CA         40.8620   19.1050   84.8810 C.3       8 GLP5        0.0000 
      4 CA         46.4515   14.4645   80.4790 C.3       4 GLC5        0.0000 
      5 CA         44.3920   15.0580   80.6620 C.3      12 GLL5        0.0000 
      6 CA         48.5110   13.8710   80.2960 C.3       8 GLP5        0.0000 
      7 CA         46.0065   16.2400   79.6495 C.3       4 GLC5        0.0000 
      8 CA         47.6210   17.4220   78.6370 C.3       8 GLP5        0.0000 
      9 CA         44.4060   12.3680   78.5245 C.3       4 GLC5        0.0000 
     10 CA         44.1050   13.6290   80.2440 C.3      12 GLL5        0.0000 
     11 CA         44.7070   11.1070   76.8050 C.3       8 GLP5        0.0000 
     12 CA         46.1835   13.6060   79.5330 C.3       4 GLC5        0.0000 
     13 CA         48.2620   13.5830   78.8220 C.3       8 GLP5        0.0000 
     14 CA         41.0985   15.4400   80.0845 C.3       4 GLC5        0.0000 
     15 CA         41.7490   13.6950   79.5350 C.3      12 GLL5        0.0000 
     16 CA         40.4480   17.1850   80.6340 C.3       8 GLP5        0.0000 
     17 CA         39.8975   13.4770   79.1200 C.3       4 GLC5        0.0000 
     18 CA         38.0460   13.2590   78.7050 C.3       8 GLP5        0.0000 
     19 CA         42.2920   10.5005   82.2115 C.3       4 GLC5        0.0000 
     20 CA         42.7160   11.6460   80.6760 C.3      12 GLL5        0.0000 
     21 CA         41.8680    9.3550   83.7470 C.3       8 GLP5        0.0000 
     22 CA         40.5870   11.3465   80.0945 C.3       4 GLC5        0.0000 
     23 CA         38.4580   11.0470   79.5130 C.3       8 GLP5        0.0000 
     24 CA         42.6890    9.8025   80.2270 C.3       4 GLC5        0.0000 
     25 CA         42.6620    7.9590   79.7780 C.3       8 GLP5        0.0000 
     26 CA         44.0365   10.3120   81.2065 C.3       4 GLC5        0.0000 
     27 CA         45.3570    8.9780   81.7370 C.3       8 GLP5        0.0000 
     28 CA         43.7115   11.3765   78.7405 C.3       4 GLC5        0.0000 
     29 CA         44.2570   18.2575   80.5770 C.3       4 GLC5        0.0000 
     30 CA         44.1930   16.8980   82.1940 C.3      12 GLL5        0.0000 
     31 CA         44.3210   19.6170   78.9600 C.3       8 GLP5        0.0000 
     32 CA         45.6625   17.7585   83.0550 C.3       4 GLC5        0.0000 
     33 CA         47.1320   18.6190   83.9160 C.3       8 GLP5        0.0000 
     34 CA         44.7550   13.6085   84.5130 C.3       4 GLC5        0.0000 
     35 CA         45.4470   15.0300   82.9150 C.3      12 GLL5        0.0000 
     36 CA         44.0630   12.1870   86.1110 C.3       8 GLP5        0.0000 
     37 CA         46.9790   14.4505   81.6055 C.3       4 GLC5        0.0000 
     38 CA         46.2895   16.8245   83.4155 C.3       4 GLC5        0.0000 
     39 CA         45.7560   15.3300   84.8135 C.3       4 GLC5        0.0000 
     40 CA         46.0650   15.6300   86.7120 C.3       8 GLP5        0.0000 
     41 CA         47.3150   14.5180   83.7085 C.3       4 GLC5        0.0000 
     42 CA         49.1830   14.0060   84.5020 C.3       8 GLP5        0.0000 
     43 CA         40.1875   13.1800   86.5415 C.3       4 GLC5        0.0000 
     44 CA         39.4260   12.8950   84.4660 C.3      12 GLL5        0.0000 
     45 CA         40.9490   13.4650   88.6170 C.3       8 GLP5        0.0000 
     46 CA         39.9080   11.0375   84.5690 C.3       4 GLC5        0.0000 
     47 CA         40.3900    9.1800   84.6720 C.3       8 GLP5        0.0000 
     48 CA         37.6560   11.9900   84.8905 C.3       4 GLC5        0.0000 
     49 CA         35.8860   11.0850   85.3150 C.3       8 GLP5        0.0000 
     50 CA         38.6585   12.8470   82.7790 C.3       4 GLC5        0.0000 
     51 CA         37.8910   12.7990   81.0920 C.3       8 GLP5        0.0000 
     52 O          38.1695   13.1205   87.2550 O.2       1 ALC1        0.0000 
     53 O          38.3320   14.2560   86.1780 O.2       9 ALL1        0.0000 
     54 O          38.0070   11.9850   88.3320 O.2       5 ALP1        0.0000 
     55 CA         38.3855   16.8220   83.5910 C.3       4 GLC5        0.0000 
     56 CA         38.3800   16.9090   85.3560 C.3      12 GLL5        0.0000 
     57 CA         38.3910   16.7350   81.8260 C.3       8 GLP5        0.0000 
     58 CA         39.6210   18.0070   85.1185 C.3       4 GLC5        0.0000 
     59 CA         39.3275   16.3820   87.2045 C.3       4 GLC5        0.0000 
     60 CA         40.2750   15.8550   89.0530 C.3       8 GLP5        0.0000 
     61 CA         36.6125   16.9495   84.3580 C.3       4 GLC5        0.0000 
     62 CA         34.8450   16.9900   83.3600 C.3       8 GLP5        0.0000 
     63 N          33.0060   19.4170   87.6945 N.am      2 SEC2        0.0000 
     64 N          34.4300   19.1460   87.5240 N.am     10 SEL2        0.0000 
     65 N          31.5820   19.6880   87.8650 N.am      6 SEP2        0.0000 
     66 NZ         32.4180   17.2040   89.1395 N.4       3 LYC4        0.0000 
     67 NZ         33.9090   17.7530   89.1750 N.4      11 LYL4        0.0000 
     68 NZ         30.3360   16.3790   90.2550 N.4       7 LYP4        0.0000 
     69 N          32.4180   17.2040   89.1395 N.am      2 SEC2        0.0000 
     70 N          33.9090   17.7530   89.1750 N.am     10 SEL2        0.0000 
     71 N          30.9270   16.6550   89.1040 N.am      6 SEP2        0.0000 
     72 N          33.2270   18.4905   89.8880 N.am      2 SEC2        0.0000 
     73 N          32.5450   19.2280   90.6010 N.am      6 SEP2        0.0000 
     74 CA         38.4733   18.4240   86.2237 C.3       4 GLC5        0.0000 
     75 CA         36.5280   17.5470   86.7160 C.3      12 GLL5        0.0000 
     76 CA         39.9770   19.7880   85.9730 C.3       8 GLP5        0.0000 
     77 CA         37.5812   17.9090   88.2417 C.3       4 GLC5        0.0000 
     78 CA         37.4110   16.5730   86.2330 C.3      12 GLL5        0.0000 
     79 CA         38.1930   18.7580   90.0090 C.3       8 GLP5        0.0000 
     80 CA         34.6010   15.3407   86.5403 C.3       4 GLC5        0.0000 
     81 CA         35.6250   15.8090   88.2730 C.3      12 GLL5        0.0000 
     82 CA         33.5800   14.1990   85.0870 C.3       8 GLP5        0.0000 
     83 CA         35.9290   14.1247   89.5553 C.3       4 GLC5        0.0000 
     84 CA         35.7610   12.9030   91.1130 C.3       8 GLP5        0.0000 
     85 CA         36.8188   16.5041   89.4104 C.3       4 GLC5        0.0000 
     86 CA         36.5690   14.8840   87.7220 C.3      12 GLL5        0.0000 
     87 CA         37.5420   17.3250   90.9630 C.3       8 GLP5        0.0000 
     88 CA         38.6363   15.6247   88.0715 C.3       4 GLC5        0.0000 
     89 CA         36.0640   13.6832   86.5072 C.3       4 GLC5        0.0000 
     90 CA         37.4410   15.2370   86.6830 C.3      12 GLL5        0.0000 
     91 CA         35.1230   12.3060   85.8120 C.3       8 GLP5        0.0000 
     92 CA         41.3658   11.3330   83.4682 C.3       4 GLC5        0.0000 
     93 CA         40.6340   13.5240   83.8140 C.3      12 GLL5        0.0000 
     94 CA         42.5203   13.1245   85.1283 C.3       4 GLC5        0.0000 
     95 CA         42.2248   15.0930   86.2228 C.3       4 GLC5        0.0000 
     96 CA         41.3210   14.6000   84.4770 C.3      12 GLL5        0.0000 
     97 CA         42.5770   15.3020   88.2600 C.3       8 GLP5        0.0000 
     98 CA         43.3627   13.5715   84.6917 C.3       4 GLC5        0.0000 
     99 CA         44.4273   15.2028   78.7195 C.3       4 GLC5        0.0000 
    100 CA         44.6060   16.0620   76.9860 C.3       8 GLP5        0.0000 
    101 CA         42.3443   16.6244   81.2164 C.3       4 GLC5        0.0000 
    102 CA         44.1840   15.4010   82.1450 C.3      12 GLL5        0.0000 
@<TRIPOS>BOND
@<TRIPOS>SUBSTRUCTURE
     1 ALC1       52 GROUP        1 X    ALC  0     ROOT ALC X 1
     2 SEC2       63 GROUP        1 X    SEC  0     **** SEC X 2
     3 LYC4       66 GROUP        1 X    LYC  0     **** LYC X 4
     4 GLC5        1 GROUP        1 X    GLC  0     **** GLC X 6
     5 ALP1       54 GROUP        1 Y    ALP  0     ROOT ALP Y 8
     6 SEP2       65 GROUP        1 Y    SEP  0     **** SEP Y 9
     7 LYP4       68 GROUP        1 Y    LYP  0     **** LYP Y 11
     8 GLP5        3 GROUP        1 Y    GLP  0     **** GLP Y 13
     9 ALL1       53 GROUP        1 Z    ALL  0     ROOT ALL Z 15
    10 SEL2       64 GROUP        1 Z    SEL  0     **** SEL Z 16
    11 LYL4       67 GROUP        1 Z    LYL  0     **** LYL Z 18
    12 GLL5        2 GROUP        1 Z    GLL  0     **** GLL Z 20
@<TRIPOS>SET

