#    Name: 1exa_394_1_ligand
#    Modification time : Tue Mar 25 00:20:33 2014

@<TRIPOS>MOLECULE
1exa_394_1_ligand
   54    56     1     0     0
SMALL
NO_CHARGES


@<TRIPOS>ATOM
      1 C1         37.4110   16.5730   86.2330 C.ar      1 394450      0.0000 
      2 C2         36.5280   17.5470   86.7160 C.ar      1 394450      0.0000 
      3 C3         35.6190   17.1560   87.7140 C.ar      1 394450      0.0000 
      4 C4         35.6250   15.8090   88.2730 C.ar      1 394450      0.0000 
      5 C5         36.5690   14.8840   87.7220 C.ar      1 394450      0.0000 
      6 C6         37.4410   15.2370   86.6830 C.ar      1 394450      0.0000 
      7 C7         34.6170   18.0930   88.1940 C.2       1 394450      0.0000 
      8 C8         41.0930   13.0980   82.5650 C.ar      1 394450      0.0000 
      9 C9         40.6340   13.5240   83.8140 C.ar      1 394450      0.0000 
     10 C10        41.3210   14.6000   84.4770 C.ar      1 394450      0.0000 
     11 C11        42.4240   15.1680   83.8940 C.ar      1 394450      0.0000 
     12 C12        42.9010   14.7440   82.6510 C.ar      1 394450      0.0000 
     13 C13        44.1840   15.4010   82.1450 C.3       1 394450      0.0000 
     14 C14        44.3920   15.0580   80.6620 C.3       1 394450      0.0000 
     15 C15        44.1050   13.6290   80.2440 C.3       1 394450      0.0000 
     16 C16        42.6900   13.1920   80.6460 C.3       1 394450      0.0000 
     17 C17        42.2220   13.6980   81.9690 C.ar      1 394450      0.0000 
     18 C18        41.7490   13.6950   79.5350 C.3       1 394450      0.0000 
     19 C19        42.7160   11.6460   80.6760 C.3       1 394450      0.0000 
     20 C20        44.1930   16.8980   82.1940 C.3       1 394450      0.0000 
     21 C21        45.4470   15.0300   82.9150 C.3       1 394450      0.0000 
     22 C22        39.4260   12.8950   84.4660 C.3       1 394450      0.0000 
     23 C23        38.3830   14.0000   84.8530 C.2       1 394450      0.0000 
     24 N6         38.3320   14.2560   86.1780 N.am      1 394450      0.0000 
     25 F1         38.3800   16.9090   85.3560 F         1 394450      0.0000 
     26 O22        39.8040   12.1480   85.6700 O.3       1 394450      0.0000 
     27 O23        37.6870   14.5380   83.9940 O.2       1 394450      0.0000 
     28 O71        34.4300   19.1460   87.5240 O.co2     1 394450      0.0000 
     29 O72        33.9090   17.7530   89.1750 O.co2     1 394450      0.0000 
     30 H          36.5420   18.4888   86.3643 H         1 394450      0.0000 
     31 H          35.0022   15.5588   88.9974 H         1 394450      0.0000 
     32 H          36.5985   13.9257   88.1128 H         1 394450      0.0000 
     33 H          40.6062   12.3387   82.0697 H         1 394450      0.0000 
     34 H          40.9634   14.9191   85.3810 H         1 394450      0.0000 
     35 H          42.9292   15.9389   84.3828 H         1 394450      0.0000 
     36 H          45.4442   15.3105   80.3907 H         1 394450      0.0000 
     37 H          43.7603   15.7473   80.0535 H         1 394450      0.0000 
     38 H          44.8285   12.9579   80.7146 H         1 394450      0.0000 
     39 H          44.2076   13.5375   79.1594 H         1 394450      0.0000 
     40 H          38.9400   12.2401   83.7561 H         1 394450      0.0000 
     41 H          38.9318   13.7517   86.8507 H         1 394450      0.0000 
     42 H          41.7879   14.6895   79.4373 H         1 394450      0.0000 
     43 H          41.9827   13.3037   78.6449 H         1 394450      0.0000 
     44 H          40.7957   13.4557   79.7192 H         1 394450      0.0000 
     45 H          42.9519   11.2611   79.7837 H         1 394450      0.0000 
     46 H          43.3864   11.2985   81.3316 H         1 394450      0.0000 
     47 H          41.8284   11.2646   80.9343 H         1 394450      0.0000 
     48 H          45.0543   17.2756   81.8539 H         1 394450      0.0000 
     49 H          43.4606   17.2922   81.6388 H         1 394450      0.0000 
     50 H          44.0708   17.2398   83.1258 H         1 394450      0.0000 
     51 H          46.2562   15.4839   82.5419 H         1 394450      0.0000 
     52 H          45.3839   15.2890   83.8788 H         1 394450      0.0000 
     53 H          45.6236   14.0461   82.8868 H         1 394450      0.0000 
     54 H          39.4871   11.2140   85.5051 H         1 394450      0.0000 
@<TRIPOS>BOND
     1    2    1 ar   
     2    6    1 ar   
     3   25    1 1    
     4    3    2 ar   
     5   30    2 1    
     6    4    3 ar   
     7    7    3 1    
     8    5    4 ar   
     9   31    4 1    
    10    6    5 ar   
    11   32    5 1    
    12   24    6 1    
    13   28    7 ar   
    14   29    7 ar   
    15    9    8 ar   
    16   17    8 ar   
    17   33    8 1    
    18   10    9 ar   
    19   22    9 1    
    20   11   10 ar   
    21   34   10 1    
    22   12   11 ar   
    23   35   11 1    
    24   13   12 1    
    25   17   12 ar   
    26   14   13 1    
    27   20   13 1    
    28   21   13 1    
    29   15   14 1    
    30   36   14 1    
    31   37   14 1    
    32   16   15 1    
    33   38   15 1    
    34   39   15 1    
    35   17   16 1    
    36   18   16 1    
    37   19   16 1    
    38   42   18 1    
    39   43   18 1    
    40   44   18 1    
    41   45   19 1    
    42   46   19 1    
    43   47   19 1    
    44   48   20 1    
    45   49   20 1    
    46   50   20 1    
    47   51   21 1    
    48   52   21 1    
    49   53   21 1    
    50   23   22 1    
    51   26   22 1    
    52   40   22 1    
    53   24   23 am   
    54   27   23 2    
    55   41   24 1    
    56   54   26 1    
@<TRIPOS>SUBSTRUCTURE
     1 394450      1 GROUP   
@<TRIPOS>SET

