#    Name: 3jwp_AMP_1_INTS_M
#    Modification time : Tue Mar 25 18:00:42 2014

@<TRIPOS>MOLECULE
3jwp_AMP_1_INTS_M
   63     0    12     0     0
SMALL
NO_CHARGES


@<TRIPOS>ATOM
      1 N         -39.4825   17.8140  -15.0320 N.am      2 SEC2        0.0000 
      2 N         -41.1360   17.5590  -15.0530 N.am     10 SEL2        0.0000 
      3 N         -37.8290   18.0690  -15.0110 N.am      6 SEP2        0.0000 
      4 N         -40.2045   17.3100  -13.9465 N.am      2 SEC2        0.0000 
      5 N         -39.2730   17.0610  -12.8400 N.am      6 SEP2        0.0000 
      6 N         -41.2290   17.5890  -16.7820 N.am      2 SEC2        0.0000 
      7 N         -41.3220   17.6190  -18.5110 N.am      6 SEP2        0.0000 
      8 NZ        -44.1595   17.9540  -13.9815 N.4       3 LYC4        0.0000 
      9 NZ        -43.5730   16.9700  -14.7370 N.4      11 LYL4        0.0000 
     10 NZ        -45.4130   20.0060  -13.6670 N.4       7 LYP4        0.0000 
     11 N         -44.1595   17.9540  -13.9815 N.am      2 SEC2        0.0000 
     12 N         -43.5730   16.9700  -14.7370 N.am     10 SEL2        0.0000 
     13 N         -44.7460   18.9380  -13.2260 N.am      6 SEP2        0.0000 
     14 N         -44.2190   15.7735  -15.8330 N.am      2 SEC2        0.0000 
     15 N         -44.8650   14.5770  -16.9290 N.am      6 SEP2        0.0000 
     16 CA        -42.9230   14.3980  -14.3115 C.3       4 GLC5        0.0000 
     17 CA        -40.7770   14.4930  -14.1540 C.3      12 GLL5        0.0000 
     18 CA        -45.0690   14.3030  -14.4690 C.3       8 GLP5        0.0000 
     19 CA        -39.1550   13.2075  -16.5335 C.3       4 GLC5        0.0000 
     20 CA        -40.6350   13.2100  -14.9530 C.3      12 GLL5        0.0000 
     21 CA        -37.6750   13.2050  -18.1140 C.3       8 GLP5        0.0000 
     22 CA        -43.2740   13.1785  -14.4550 C.3       4 GLC5        0.0000 
     23 CA        -41.4790   12.0540  -14.4410 C.3      12 GLL5        0.0000 
     24 N         -41.5295   11.1385  -16.7020 N.am      2 SEC2        0.0000 
     25 N         -42.2910   11.5510  -15.5080 N.am     10 SEL2        0.0000 
     26 N         -40.7680   10.7260  -17.8960 N.am      6 SEP2        0.0000 
     27 O         -40.4915    9.3020  -15.4690 O.2       1 ALC1        0.0000 
     28 O         -40.8810    9.6780  -14.2340 O.2       9 ALL1        0.0000 
     29 O         -40.1020    8.9260  -16.7040 O.2       5 ALP1        0.0000 
     30 CA        -37.7960   12.7480  -14.7580 C.3       4 GLC5        0.0000 
     31 CA        -39.2280   11.3770  -14.7350 C.3      12 GLL5        0.0000 
     32 CA        -36.3640   14.1190  -14.7810 C.3       8 GLP5        0.0000 
     33 CA        -38.4515   12.2910  -16.4245 C.3       4 GLC5        0.0000 
     34 CA        -33.7220    8.4050  -15.5495 C.3       4 GLC5        0.0000 
     35 CA        -34.4910   10.0460  -14.4460 C.3      12 GLL5        0.0000 
     36 CA        -32.9530    6.7640  -16.6530 C.3       8 GLP5        0.0000 
     37 CA        -33.0695   10.7120  -15.9585 C.3       4 GLC5        0.0000 
     38 CA        -31.6480   11.3780  -17.4710 C.3       8 GLP5        0.0000 
     39 O         -32.0860   10.0220  -13.9430 O.2       1 ALC1        0.0000 
     40 O         -33.4040    9.8560  -13.6760 O.2       9 ALL1        0.0000 
     41 O         -30.7680   10.1880  -14.2100 O.2       5 ALP1        0.0000 
     42 N         -33.3325    9.4015  -16.5590 N.am      2 SEC2        0.0000 
     43 N         -34.4440    9.8180  -15.7800 N.am     10 SEL2        0.0000 
     44 N         -32.2210    8.9850  -17.3380 N.am      6 SEP2        0.0000 
     45 CA        -36.5895   11.5965  -17.3545 C.3       4 GLC5        0.0000 
     46 CA        -35.5040    9.9880  -16.5950 C.3      12 GLL5        0.0000 
     47 CA        -36.9405    9.1275  -17.7995 C.3       4 GLC5        0.0000 
     48 CA        -38.3770    8.2670  -19.0040 C.3       8 GLP5        0.0000 
     49 CA        -35.8420    8.3095  -15.6920 C.3       4 GLC5        0.0000 
     50 CA        -36.1800    6.6310  -14.7890 C.3       8 GLP5        0.0000 
     51 CA        -34.2285    8.3760  -16.6240 C.3       4 GLC5        0.0000 
     52 CA        -33.5760   10.6830  -17.0330 C.3       4 GLC5        0.0000 
     53 CA        -37.2780   11.9355  -16.4670 C.3       4 GLC5        0.0000 
     54 CA        -36.8810   10.6660  -14.8200 C.3      12 GLL5        0.0000 
     55 CA        -37.6880    8.8655  -14.3500 C.3       4 GLC5        0.0000 
     56 CA        -38.4950    7.0650  -13.8800 C.3       8 GLP5        0.0000 
     57 CA        -38.5350   13.9853  -14.6673 C.3       4 GLC5        0.0000 
     58 CA        -40.7775   14.5443  -16.3657 C.3       4 GLC5        0.0000 
     59 CA        -40.8490   15.2370  -18.1780 C.3       8 GLP5        0.0000 
     60 CA        -39.1735    9.1313  -14.1133 C.3       4 GLC5        0.0000 
     61 CA        -35.6555    8.4527  -14.4730 C.3       4 GLC5        0.0000 
     62 CA        -35.7710   10.5030  -13.8680 C.3      12 GLL5        0.0000 
     63 CA        -36.1850   12.2946  -14.6348 C.3       4 GLC5        0.0000 
@<TRIPOS>BOND
@<TRIPOS>SUBSTRUCTURE
     1 ALC1       27 GROUP        1 X    ALC  0     ROOT ALC X 1
     2 SEC2        1 GROUP        1 X    SEC  0     **** SEC X 2
     3 LYC4        8 GROUP        1 X    LYC  0     **** LYC X 4
     4 GLC5       16 GROUP        1 X    GLC  0     **** GLC X 6
     5 ALP1       29 GROUP        1 Y    ALP  0     ROOT ALP Y 8
     6 SEP2        3 GROUP        1 Y    SEP  0     **** SEP Y 9
     7 LYP4       10 GROUP        1 Y    LYP  0     **** LYP Y 11
     8 GLP5       18 GROUP        1 Y    GLP  0     **** GLP Y 13
     9 ALL1       28 GROUP        1 Z    ALL  0     ROOT ALL Z 15
    10 SEL2        2 GROUP        1 Z    SEL  0     **** SEL Z 16
    11 LYL4        9 GROUP        1 Z    LYL  0     **** LYL Z 18
    12 GLL5       17 GROUP        1 Z    GLL  0     **** GLL Z 20
@<TRIPOS>SET

