#    Name: 3jwp_AMP_1_ligand
#    Modification time : Tue Mar 25 18:00:42 2014

@<TRIPOS>MOLECULE
3jwp_AMP_1_ligand
   35    37     1     0     0
SMALL
NO_CHARGES


@<TRIPOS>ATOM
      1 P         -42.1460   16.7360  -14.2920 P.3       1 AMP266      0.0000 
      2 O1P       -41.1360   17.5590  -15.0530 O.co2     1 AMP266      0.0000 
      3 O2P       -41.9370   16.7230  -12.7890 O.co2     1 AMP266      0.0000 
      4 O3P       -43.5730   16.9700  -14.7370 O.co2     1 AMP266      0.0000 
      5 O5'       -41.8630   15.2200  -14.7090 O.3       1 AMP266      0.0000 
      6 C5'       -40.7770   14.4930  -14.1540 C.3       1 AMP266      0.0000 
      7 C4'       -40.6350   13.2100  -14.9530 C.3       1 AMP266      0.0000 
      8 O4'       -39.2850   12.7920  -14.8950 O.3       1 AMP266      0.0000 
      9 C3'       -41.4790   12.0540  -14.4410 C.3       1 AMP266      0.0000 
     10 O3'       -42.2910   11.5510  -15.5080 O.3       1 AMP266      0.0000 
     11 C2'       -40.4760   11.0180  -13.9580 C.3       1 AMP266      0.0000 
     12 O2'       -40.8810    9.6780  -14.2340 O.3       1 AMP266      0.0000 
     13 C1'       -39.2280   11.3770  -14.7350 C.3       1 AMP266      0.0000 
     14 N9        -37.9240   11.0660  -14.1040 N.pl3     1 AMP266      0.0000 
     15 C8        -37.5500   11.1850  -12.8040 C.2       1 AMP266      0.0000 
     16 N7        -36.2410   10.8360  -12.6480 N.2       1 AMP266      0.0000 
     17 C5        -35.7710   10.5030  -13.8680 C.ar      1 AMP266      0.0000 
     18 C6        -34.4910   10.0460  -14.4460 C.ar      1 AMP266      0.0000 
     19 N6        -33.4040    9.8560  -13.6760 N.pl3     1 AMP266      0.0000 
     20 N1        -34.4440    9.8180  -15.7800 N.ar      1 AMP266      0.0000 
     21 C2        -35.5040    9.9880  -16.5950 C.ar      1 AMP266      0.0000 
     22 N3        -36.6940   10.3980  -16.1370 N.ar      1 AMP266      0.0000 
     23 C4        -36.8810   10.6660  -14.8200 C.ar      1 AMP266      0.0000 
     24 H         -40.9527   14.2254  -13.1136 H         1 AMP266      0.0000 
     25 H         -39.8390   15.0407  -14.2249 H         1 AMP266      0.0000 
     26 H         -40.9177   13.4074  -15.9817 H         1 AMP266      0.0000 
     27 H         -42.0450   12.3975  -13.6109 H         1 AMP266      0.0000 
     28 H         -40.2809   11.2028  -12.9251 H         1 AMP266      0.0000 
     29 H         -39.2871   10.9155  -15.7149 H         1 AMP266      0.0000 
     30 H         -38.1339   11.4789  -12.0803 H         1 AMP266      0.0000 
     31 H         -33.4898    9.1677  -12.9557 H         1 AMP266      0.0000 
     32 H         -32.6072   10.4201  -13.8927 H         1 AMP266      0.0000 
     33 H         -35.3888    9.7905  -17.6278 H         1 AMP266      0.0000 
     34 H         -42.4421   10.5877  -15.2860 H         1 AMP266      0.0000 
     35 H         -40.5104    9.4773  -15.1408 H         1 AMP266      0.0000 
@<TRIPOS>BOND
     1    2    1 ar   
     2    3    1 ar   
     3    4    1 ar   
     4    5    1 1    
     5    6    5 1    
     6    7    6 1    
     7   24    6 1    
     8   25    6 1    
     9    8    7 1    
    10    9    7 1    
    11   26    7 1    
    12   13    8 1    
    13   10    9 1    
    14   11    9 1    
    15   27    9 1    
    16   34   10 1    
    17   12   11 1    
    18   13   11 1    
    19   28   11 1    
    20   35   12 1    
    21   14   13 1    
    22   29   13 1    
    23   15   14 1    
    24   23   14 1    
    25   16   15 2    
    26   30   15 1    
    27   17   16 1    
    28   18   17 ar   
    29   23   17 ar   
    30   19   18 1    
    31   20   18 ar   
    32   31   19 1    
    33   32   19 1    
    34   21   20 ar   
    35   22   21 ar   
    36   33   21 1    
    37   23   22 ar   
@<TRIPOS>SUBSTRUCTURE
     1 AMP266      1 GROUP   
@<TRIPOS>SET

