#    Name: 2c9b_PUG_4_INTS_M
#    Modification time : Mon Mar 24 23:18:26 2014

@<TRIPOS>MOLECULE
2c9b_PUG_4_INTS_M
   43     0     9     0     0
SMALL
NO_CHARGES


@<TRIPOS>ATOM
      1 N          13.8295  -11.9040   -8.7580 N.am      2 SEC2        0.0000 
      2 N          13.6510  -12.4060  -10.4170 N.am      8 SEL2        0.0000 
      3 N          14.0080  -11.4020   -7.0990 N.am      5 SEP2        0.0000 
      4 O          12.4615  -12.1495  -12.4270 O.2       1 ALC1        0.0000 
      5 O          11.8700  -13.1230  -11.5740 O.2       7 ALL1        0.0000 
      6 O          13.0530  -11.1760  -13.2800 O.2       4 ALP1        0.0000 
      7 CA         12.5125  -15.7885  -10.1325 C.3       3 GLC5        0.0000 
      8 CA         11.2650  -14.7700   -9.4080 C.3       9 GLL5        0.0000 
      9 CA         13.7600  -16.8070  -10.8570 C.3       6 GLP5        0.0000 
     10 CA         11.5710  -16.1355  -11.0270 C.3       3 GLC5        0.0000 
     11 CA         10.4280  -14.7890  -10.5290 C.3       9 GLL5        0.0000 
     12 CA         12.7140  -17.4820  -11.5250 C.3       6 GLP5        0.0000 
     13 N           7.5935  -16.6075   -8.2880 N.am      2 SEC2        0.0000 
     14 N           8.9270  -17.0180   -8.5380 N.am      8 SEL2        0.0000 
     15 N           6.2600  -16.1970   -8.0380 N.am      5 SEP2        0.0000 
     16 N           9.2030  -18.2420   -8.1275 N.am      2 SEC2        0.0000 
     17 N           9.4790  -19.4660   -7.7170 N.am      5 SEP2        0.0000 
     18 CA         12.3100  -17.0790   -8.0565 C.3       3 GLC5        0.0000 
     19 CA         11.2910  -15.9820   -7.1760 C.3       9 GLL5        0.0000 
     20 CA         13.3290  -18.1760   -8.9370 C.3       6 GLP5        0.0000 
     21 CA         11.4200  -13.3170   -4.0415 C.3       3 GLC5        0.0000 
     22 CA         11.9760  -15.1570   -4.8640 C.3       9 GLL5        0.0000 
     23 CA         10.8640  -11.4770   -3.2190 C.3       6 GLP5        0.0000 
     24 O          14.4275  -14.8860   -4.1090 O.2       1 ALC1        0.0000 
     25 O          13.3490  -15.5680   -4.7840 O.2       7 ALL1        0.0000 
     26 O          15.5060  -14.2040   -3.4340 O.2       4 ALP1        0.0000 
     27 O          13.5925  -14.8960   -3.3940 O.2       1 ALC1        0.0000 
     28 O          13.8360  -14.2240   -2.0040 O.2       4 ALP1        0.0000 
     29 O           8.8160  -16.4305   -3.2620 O.2       1 ALC1        0.0000 
     30 O           9.6960  -15.7830   -4.2530 O.2       7 ALL1        0.0000 
     31 O           7.9360  -17.0780   -2.2710 O.2       4 ALP1        0.0000 
     32 CA          9.7825  -16.3165   -1.6040 C.3       3 GLC5        0.0000 
     33 CA         11.4820  -16.8150   -2.9760 C.3       9 GLL5        0.0000 
     34 CA          8.0830  -15.8180   -0.2320 C.3       6 GLP5        0.0000 
     35 CA         11.9235  -18.6325   -2.2050 C.3       3 GLC5        0.0000 
     36 CA         12.3650  -20.4500   -1.4340 C.3       6 GLP5        0.0000 
     37 CA         13.3860  -17.1740   -2.4225 C.3       3 GLC5        0.0000 
     38 CA         15.2900  -17.5330   -1.8690 C.3       6 GLP5        0.0000 
     39 N          10.2795  -15.8215   -0.8555 N.am      2 SEC2        0.0000 
     40 N          11.0840  -15.9380   -1.9170 N.am      8 SEL2        0.0000 
     41 N           9.4750  -15.7050    0.2060 N.am      5 SEP2        0.0000 
     42 CA         13.5338  -14.2065   -6.1680 C.3       3 GLC5        0.0000 
     43 CA         15.2390  -13.4480   -6.7450 C.3       6 GLP5        0.0000 
@<TRIPOS>BOND
@<TRIPOS>SUBSTRUCTURE
     1 ALC1        4 GROUP        1 X    ALC  0     ROOT ALC X 1
     2 SEC2        1 GROUP        1 X    SEC  0     **** SEC X 2
     3 GLC5        7 GROUP        1 X    GLC  0     **** GLC X 6
     4 ALP1        6 GROUP        1 Y    ALP  0     ROOT ALP Y 8
     5 SEP2        3 GROUP        1 Y    SEP  0     **** SEP Y 9
     6 GLP5        9 GROUP        1 Y    GLP  0     **** GLP Y 13
     7 ALL1        5 GROUP        1 Z    ALL  0     ROOT ALL Z 15
     8 SEL2        2 GROUP        1 Z    SEL  0     **** SEL Z 16
     9 GLL5        8 GROUP        1 Z    GLL  0     **** GLL Z 20
@<TRIPOS>SET

