#    Name: 2c9b_PUG_4_ligand
#    Modification time : Mon Mar 24 23:18:26 2014

@<TRIPOS>MOLECULE
2c9b_PUG_4_ligand
   35    36     1     0     0
SMALL
NO_CHARGES


@<TRIPOS>ATOM
      1 O1         13.6510  -12.4060  -10.4170 O.2       1 PUG701      0.0000 
      2 C2         12.6420  -13.1430  -10.4630 C.2       1 PUG701      0.0000 
      3 N3         11.8700  -13.1230  -11.5740 N.am      1 PUG701      0.0000 
      4 C4         10.7700  -13.9010  -11.6720 C.2       1 PUG701      0.0000 
      5 O2         10.0570  -13.8760  -12.7010 O.2       1 PUG701      0.0000 
      6 N1         12.3500  -13.9460   -9.4080 N.am      1 PUG701      0.0000 
      7 C8         11.2650  -14.7700   -9.4080 C.2       1 PUG701      0.0000 
      8 C9         10.4280  -14.7890  -10.5290 C.2       1 PUG701      0.0000 
      9 N5          9.4210  -15.6640  -10.3180 N.am      1 PUG701      0.0000 
     10 N7         10.7700  -15.6350   -8.5040 N.am      1 PUG701      0.0000 
     11 C6          9.6840  -16.1400   -9.0930 C.2       1 PUG701      0.0000 
     12 O4          8.9270  -17.0180   -8.5380 O.2       1 PUG701      0.0000 
     13 C10        11.2910  -15.9820   -7.1760 C.3       1 PUG701      0.0000 
     14 C11        11.6810  -14.7730   -6.3180 C.3       1 PUG701      0.0000 
     15 O19        10.6510  -13.7780   -6.3510 O.3       1 PUG701      0.0000 
     16 C12        11.9760  -15.1570   -4.8640 C.3       1 PUG701      0.0000 
     17 O21        13.3490  -15.5680   -4.7840 O.3       1 PUG701      0.0000 
     18 C13        11.0480  -16.2600   -4.3340 C.3       1 PUG701      0.0000 
     19 O23         9.6960  -15.7830   -4.2530 O.3       1 PUG701      0.0000 
     20 C14        11.4820  -16.8150   -2.9760 C.3       1 PUG701      0.0000 
     21 O26        11.0840  -15.9380   -1.9170 O.3       1 PUG701      0.0000 
     22 H          12.1304  -12.4935  -12.3708 H         1 PUG701      0.0000 
     23 H          12.9787  -13.9332   -8.5648 H         1 PUG701      0.0000 
     24 H           8.7157  -15.8802  -10.8909 H         1 PUG701      0.0000 
     25 H          12.1844  -16.6335   -7.2700 H         1 PUG701      0.0000 
     26 H          10.5413  -16.5723   -6.6094 H         1 PUG701      0.0000 
     27 H          12.6083  -14.3587   -6.7373 H         1 PUG701      0.0000 
     28 H          11.8223  -14.2647   -4.2533 H         1 PUG701      0.0000 
     29 H          11.0938  -17.0955   -5.0545 H         1 PUG701      0.0000 
     30 H          12.5736  -16.9476   -3.0033 H         1 PUG701      0.0000 
     31 H          11.0338  -17.8134   -2.8650 H         1 PUG701      0.0000 
     32 H           9.9861  -14.0712   -5.6640 H         1 PUG701      0.0000 
     33 H          13.8066  -14.8428   -4.2695 H         1 PUG701      0.0000 
     34 H           9.1614  -16.5713   -3.9483 H         1 PUG701      0.0000 
     35 H          10.6259  -15.1743   -2.3719 H         1 PUG701      0.0000 
@<TRIPOS>BOND
     1    2    1 2    
     2    3    2 1    
     3    6    2 1    
     4    4    3 1    
     5   22    3 1    
     6    5    4 2    
     7    8    4 1    
     8    7    6 1    
     9   23    6 1    
    10    8    7 2    
    11   10    7 1    
    12    9    8 1    
    13   11    9 am   
    14   24    9 1    
    15   11   10 am   
    16   13   10 1    
    17   12   11 2    
    18   14   13 1    
    19   25   13 1    
    20   26   13 1    
    21   15   14 1    
    22   16   14 1    
    23   27   14 1    
    24   32   15 1    
    25   17   16 1    
    26   18   16 1    
    27   28   16 1    
    28   33   17 1    
    29   19   18 1    
    30   20   18 1    
    31   29   18 1    
    32   34   19 1    
    33   21   20 1    
    34   30   20 1    
    35   31   20 1    
    36   35   21 1    
@<TRIPOS>SUBSTRUCTURE
     1 PUG701      1 GROUP   
@<TRIPOS>SET

