#    Name: 4fny_I3K_1_INTS_M
#    Modification time : Mon Mar 24 20:24:01 2014

@<TRIPOS>MOLECULE
4fny_I3K_1_INTS_M
   95     0     9     0     0
SMALL
NO_CHARGES


@<TRIPOS>ATOM
      1 CA          1.3555    8.5200   45.3510 C.3       3 GLC5        0.0000 
      2 CA          1.1990    7.6560   43.3110 C.3       9 GLL5        0.0000 
      3 CA          1.5120    9.3840   47.3910 C.3       6 GLP5        0.0000 
      4 CA         -0.3785    7.3565   41.9195 C.3       3 GLC5        0.0000 
      5 CA         -1.9560    7.0570   40.5280 C.3       6 GLP5        0.0000 
      6 CA          2.2005    6.4865   42.2720 C.3       3 GLC5        0.0000 
      7 CA          3.2020    5.3170   41.2330 C.3       6 GLP5        0.0000 
      8 CA          3.1745    7.2195   42.2130 C.3       3 GLC5        0.0000 
      9 CA          3.1470    9.1220   43.1930 C.3       9 GLL5        0.0000 
     10 CA          5.0685    9.7505   46.1955 C.3       3 GLC5        0.0000 
     11 CA          6.4220    8.9490   44.7980 C.3       9 GLL5        0.0000 
     12 CA          3.7150   10.5520   47.5930 C.3       6 GLP5        0.0000 
     13 CA          7.6320    9.9640   43.9755 C.3       3 GLC5        0.0000 
     14 CA          8.8420   10.9790   43.1530 C.3       6 GLP5        0.0000 
     15 CA          5.2005   12.3215   44.4020 C.3       3 GLC5        0.0000 
     16 CA          5.1060   10.5520   43.0710 C.3       9 GLL5        0.0000 
     17 CA          5.2950   14.0910   45.7330 C.3       6 GLP5        0.0000 
     18 N           1.1975   11.4140   40.1975 N.am      2 SEC2        0.0000 
     19 N           2.5040   11.8930   40.8780 N.am      8 SEL2        0.0000 
     20 N          -0.1090   10.9350   39.5170 N.am      5 SEP2        0.0000 
     21 CA          0.8890   12.9260   40.3485 C.3       3 GLC5        0.0000 
     22 CA          3.0730   12.9680   40.3660 C.3       9 GLL5        0.0000 
     23 CA         -1.2950   12.8840   40.3310 C.3       6 GLP5        0.0000 
     24 CA          2.4665   11.9225   38.8140 C.3       3 GLC5        0.0000 
     25 CA          1.8600   10.8770   37.2620 C.3       6 GLP5        0.0000 
     26 CA          4.8870   15.3655   40.5655 C.3       3 GLC5        0.0000 
     27 CA          4.3700   13.3220   40.7160 C.3       9 GLL5        0.0000 
     28 CA          5.4040   17.4090   40.4150 C.3       6 GLP5        0.0000 
     29 CA          5.1870   13.3065   43.6765 C.3       3 GLC5        0.0000 
     30 CA          5.0790   12.5220   41.6200 C.3       9 GLL5        0.0000 
     31 CA          8.3440   17.4395   43.5445 C.3       3 GLC5        0.0000 
     32 CA          8.1050   15.9750   42.0430 C.3       9 GLL5        0.0000 
     33 CA          8.5830   18.9040   45.0460 C.3       6 GLP5        0.0000 
     34 CA          8.7925   13.9420   37.9555 C.3       3 GLC5        0.0000 
     35 CA          8.1610   15.1010   39.7700 C.3       9 GLL5        0.0000 
     36 CA          9.4240   12.7830   36.1410 C.3       6 GLP5        0.0000 
     37 N           9.8295   14.5280   38.1715 N.am      2 SEC2        0.0000 
     38 N           8.6440   15.4810   38.5720 N.am      8 SEL2        0.0000 
     39 N          11.0150   13.5750   37.7710 N.am      5 SEP2        0.0000 
     40 O          10.8920   18.2895   38.6225 O.2       1 ALC1        0.0000 
     41 O           9.8900   17.4670   37.9010 O.2       7 ALL1        0.0000 
     42 O          11.8940   19.1120   39.3440 O.2       4 ALP1        0.0000 
     43 CA          8.5470   16.2310   32.7880 C.3       3 GLC5        0.0000 
     44 CA          9.6740   16.2470   34.4840 C.3       9 GLL5        0.0000 
     45 CA          7.4200   16.2150   31.0920 C.3       6 GLP5        0.0000 
     46 CA         11.0365   18.1210   31.5385 C.3       3 GLC5        0.0000 
     47 CA         11.3250   16.3350   32.3700 C.3       9 GLL5        0.0000 
     48 CA         10.7480   19.9070   30.7070 C.3       6 GLP5        0.0000 
     49 CA          9.3725   16.2750   31.7310 C.3       3 GLC5        0.0000 
     50 CA         11.5295   16.5940   30.3875 C.3       3 GLC5        0.0000 
     51 CA         11.7340   16.8530   28.4050 C.3       6 GLP5        0.0000 
     52 CA         13.0890   17.1410   31.9375 C.3       3 GLC5        0.0000 
     53 CA         14.8530   17.9470   31.5050 C.3       6 GLP5        0.0000 
     54 CA         11.2945   14.2385   32.3700 C.3       3 GLC5        0.0000 
     55 CA         11.2640   12.1420   32.3700 C.3       6 GLP5        0.0000 
     56 CA          4.1398    9.0425   41.2065 C.3       3 GLC5        0.0000 
     57 CA          5.4550    8.5390   39.6790 C.3       6 GLP5        0.0000 
     58 CA          0.9022   11.1022   42.6200 C.3       3 GLC5        0.0000 
     59 CA          2.5020    9.9700   42.2750 C.3       9 GLL5        0.0000 
     60 CA         -1.0200   11.6710   43.2220 C.3       6 GLP5        0.0000 
     61 CA          2.1757   10.1212   40.1000 C.3       3 GLC5        0.0000 
     62 CA          1.5270    9.7090   38.1820 C.3       6 GLP5        0.0000 
     63 CA          3.3665   10.7237   44.6865 C.3       3 GLC5        0.0000 
     64 CA          1.9530   11.4620   46.0470 C.3       6 GLP5        0.0000 
     65 CA          5.1175    9.2622   41.5025 C.3       3 GLC5        0.0000 
     66 CA          4.4540    9.4190   43.5810 C.3       9 GLL5        0.0000 
     67 CA          4.6275    9.8910   40.8180 C.3       3 GLC5        0.0000 
     68 CA          3.1470   11.0970   41.7610 C.3       9 GLL5        0.0000 
     69 CA          2.4694   10.8918   44.1472 C.3       3 GLC5        0.0000 
     70 CA          5.2391   11.7583   39.8388 C.3       3 GLC5        0.0000 
     71 CA          6.0780   10.6830   38.5970 C.3       6 GLP5        0.0000 
     72 CA          6.3273   15.6723   40.6457 C.3       3 GLC5        0.0000 
     73 CA          7.4450   13.9900   40.2070 C.3       9 GLL5        0.0000 
     74 CA          6.6643   12.3093   39.7368 C.3       3 GLC5        0.0000 
     75 CA          7.7412   14.8910   44.2260 C.3       3 GLC5        0.0000 
     76 CA          7.3880   14.8690   42.4650 C.3       9 GLL5        0.0000 
     77 CA          7.7360   14.3600   46.1980 C.3       6 GLP5        0.0000 
     78 CA          6.5753   16.4155   41.3345 C.3       3 GLC5        0.0000 
     79 CA          6.8645   16.5000   40.3272 C.3       3 GLC5        0.0000 
     80 CA          8.4890   16.0810   40.7090 C.3       9 GLL5        0.0000 
     81 CA          9.3339   18.3954   35.5996 C.3       3 GLC5        0.0000 
     82 CA         10.2130   17.1840   36.6450 C.3       9 GLL5        0.0000 
     83 CA          8.9440   20.2440   35.8450 C.3       6 GLP5        0.0000 
     84 CA          9.5739   14.6649   35.7476 C.3       3 GLC5        0.0000 
     85 CA         12.6127   15.1618   33.0853 C.3       3 GLC5        0.0000 
     86 CA         10.9020   16.6740   34.0090 C.3       9 GLL5        0.0000 
     87 CA         14.1120   13.8190   32.9810 C.3       6 GLP5        0.0000 
     88 CA         12.2222   16.1014   36.6801 C.3       3 GLC5        0.0000 
     89 CA         11.7870   17.3630   34.8390 C.3       9 GLL5        0.0000 
     90 CA         13.1370   14.8200   37.7390 C.3       6 GLP5        0.0000 
     91 CA         10.8759   19.0124   35.4175 C.3       3 GLC5        0.0000 
     92 CA         11.4430   17.6210   36.1620 C.3       9 GLL5        0.0000 
     93 CA         10.3580   20.7050   35.5420 C.3       6 GLP5        0.0000 
     94 CA          2.8742   13.6269   42.0254 C.3       3 GLC5        0.0000 
     95 CA          1.6680   14.7400   42.8860 C.3       6 GLP5        0.0000 
@<TRIPOS>BOND
@<TRIPOS>SUBSTRUCTURE
     1 ALC1       40 GROUP        1 X    ALC  0     ROOT ALC X 1
     2 SEC2       18 GROUP        1 X    SEC  0     **** SEC X 2
     3 GLC5        1 GROUP        1 X    GLC  0     **** GLC X 6
     4 ALP1       42 GROUP        1 Y    ALP  0     ROOT ALP Y 8
     5 SEP2       20 GROUP        1 Y    SEP  0     **** SEP Y 9
     6 GLP5        3 GROUP        1 Y    GLP  0     **** GLP Y 13
     7 ALL1       41 GROUP        1 Z    ALL  0     ROOT ALL Z 15
     8 SEL2       19 GROUP        1 Z    SEL  0     **** SEL Z 16
     9 GLL5        2 GROUP        1 Z    GLL  0     **** GLL Z 20
@<TRIPOS>SET

