#    Name: 4fny_I3K_1_ligand
#    Modification time : Mon Mar 24 20:24:01 2014

@<TRIPOS>MOLECULE
4fny_I3K_1_ligand
   50    54     1     0     0
SMALL
NO_CHARGES


@<TRIPOS>ATOM
      1 C19         1.1990    7.6560   43.3110 C.3       1 I3K1501     0.0000 
      2 O18         2.5440    8.0080   43.7350 O.3       1 I3K1501     0.0000 
      3 C13         3.1470    9.1220   43.1930 C.ar      1 I3K1501     0.0000 
      4 C14         2.5020    9.9700   42.2750 C.ar      1 I3K1501     0.0000 
      5 C12         4.4540    9.4190   43.5810 C.ar      1 I3K1501     0.0000 
      6 O16         5.0490    8.5830   44.4740 O.3       1 I3K1501     0.0000 
      7 C17         6.4220    8.9490   44.7980 C.3       1 I3K1501     0.0000 
      8 C15         5.1060   10.5520   43.0710 C.ar      1 I3K1501     0.0000 
      9 C6          4.4530   11.3890   42.1530 C.ar      1 I3K1501     0.0000 
     10 C7          3.1470   11.0970   41.7610 C.ar      1 I3K1501     0.0000 
     11 N8          2.5040   11.8930   40.8780 N.ar      1 I3K1501     0.0000 
     12 C9          3.0730   12.9680   40.3660 C.ar      1 I3K1501     0.0000 
     13 C10         4.3700   13.3220   40.7160 C.ar      1 I3K1501     0.0000 
     14 C11         5.0790   12.5220   41.6200 C.ar      1 I3K1501     0.0000 
     15 O20         6.3710   12.8020   42.0150 O.3       1 I3K1501     0.0000 
     16 C21         7.0560   13.8810   41.5460 C.ar      1 I3K1501     0.0000 
     17 C22         7.4450   13.9900   40.2070 C.ar      1 I3K1501     0.0000 
     18 C24         7.3880   14.8690   42.4650 C.ar      1 I3K1501     0.0000 
     19 C23         8.1050   15.9750   42.0430 C.ar      1 I3K1501     0.0000 
     20 C1          8.4890   16.0810   40.7090 C.ar      1 I3K1501     0.0000 
     21 O5          9.1760   17.0500   40.0640 O.3       1 I3K1501     0.0000 
     22 C2          8.1610   15.1010   39.7700 C.ar      1 I3K1501     0.0000 
     23 N3          8.6440   15.4810   38.5720 N.2       1 I3K1501     0.0000 
     24 C4          9.2600   16.6630   38.7640 C.2       1 I3K1501     0.0000 
     25 N25         9.8900   17.4670   37.9010 N.pl3     1 I3K1501     0.0000 
     26 C26        10.2130   17.1840   36.6450 C.ar      1 I3K1501     0.0000 
     27 C27         9.3340   16.5090   35.8040 C.ar      1 I3K1501     0.0000 
     28 C28         9.6740   16.2470   34.4840 C.ar      1 I3K1501     0.0000 
     29 C29        10.9020   16.6740   34.0090 C.ar      1 I3K1501     0.0000 
     30 CL3        11.3250   16.3350   32.3700 Cl        1 I3K1501     0.0000 
     31 C30        11.7870   17.3630   34.8390 C.ar      1 I3K1501     0.0000 
     32 C31        11.4430   17.6210   36.1620 C.ar      1 I3K1501     0.0000 
     33 H           1.5377    9.7526   41.9794 H         1 I3K1501     0.0000 
     34 H           6.0626   10.7693   43.3699 H         1 I3K1501     0.0000 
     35 H           2.5669   13.5812   39.6857 H         1 I3K1501     0.0000 
     36 H           4.8066   14.1573   40.3201 H         1 I3K1501     0.0000 
     37 H           7.1990   13.2428   39.5430 H         1 I3K1501     0.0000 
     38 H           7.1034   14.7772   43.4455 H         1 I3K1501     0.0000 
     39 H           8.3546   16.7166   42.7084 H         1 I3K1501     0.0000 
     40 H          10.1657   18.4579   38.2713 H         1 I3K1501     0.0000 
     41 H           8.4169   16.1994   36.1679 H         1 I3K1501     0.0000 
     42 H           9.0251   15.7454   33.8724 H         1 I3K1501     0.0000 
     43 H          12.6929   17.6792   34.4711 H         1 I3K1501     0.0000 
     44 H          12.0880   18.1273   36.7745 H         1 I3K1501     0.0000 
     45 H           1.1534    7.4813   42.3274 H         1 I3K1501     0.0000 
     46 H           0.8684    6.8318   43.7707 H         1 I3K1501     0.0000 
     47 H           0.5441    8.3851   43.5098 H         1 I3K1501     0.0000 
     48 H           6.8307    8.3142   45.4538 H         1 I3K1501     0.0000 
     49 H           7.0073    8.9500   43.9872 H         1 I3K1501     0.0000 
     50 H           6.4776    9.8626   45.2007 H         1 I3K1501     0.0000 
@<TRIPOS>BOND
     1    2    1 1    
     2   45    1 1    
     3   46    1 1    
     4   47    1 1    
     5    3    2 1    
     6    4    3 ar   
     7    5    3 ar   
     8   10    4 ar   
     9   33    4 1    
    10    6    5 1    
    11    8    5 ar   
    12    7    6 1    
    13   48    7 1    
    14   49    7 1    
    15   50    7 1    
    16    9    8 ar   
    17   34    8 1    
    18   10    9 ar   
    19   14    9 ar   
    20   11   10 ar   
    21   12   11 ar   
    22   13   12 ar   
    23   35   12 1    
    24   14   13 ar   
    25   36   13 1    
    26   15   14 1    
    27   16   15 1    
    28   17   16 ar   
    29   18   16 ar   
    30   22   17 ar   
    31   37   17 1    
    32   19   18 ar   
    33   38   18 1    
    34   20   19 ar   
    35   39   19 1    
    36   21   20 1    
    37   22   20 ar   
    38   24   21 1    
    39   23   22 1    
    40   24   23 2    
    41   25   24 1    
    42   26   25 1    
    43   40   25 1    
    44   27   26 ar   
    45   32   26 ar   
    46   28   27 ar   
    47   41   27 1    
    48   29   28 ar   
    49   42   28 1    
    50   30   29 1    
    51   31   29 ar   
    52   32   31 ar   
    53   43   31 1    
    54   44   32 1    
@<TRIPOS>SUBSTRUCTURE
     1 I3K1501     1 GROUP   
@<TRIPOS>SET

