#    Name: 3tu1_07G_1_INTS_M
#    Modification time : Mon Mar 24 20:56:27 2014

@<TRIPOS>MOLECULE
3tu1_07G_1_INTS_M
   64     0     6     0     0
SMALL
NO_CHARGES


@<TRIPOS>ATOM
      1 CA          7.6770    5.3755   22.5005 C.3       2 GLC5        0.0000 
      2 CA          7.4630    4.6110   20.9280 C.3       6 GLL5        0.0000 
      3 CA          7.8910    6.1400   24.0730 C.3       4 GLP5        0.0000 
      4 CA          4.6560    6.5305   19.9575 C.3       2 GLC5        0.0000 
      5 CA          4.8660    4.8280   20.2120 C.3       6 GLL5        0.0000 
      6 CA          4.4460    8.2330   19.7030 C.3       4 GLP5        0.0000 
      7 CA          9.2115   -0.5310   21.5755 C.3       2 GLC5        0.0000 
      8 CA          7.1230   -0.2900   21.1030 C.3       6 GLL5        0.0000 
      9 CA         11.3000   -0.7720   22.0480 C.3       4 GLP5        0.0000 
     10 CA         11.9030   -5.4340   18.3415 C.3       2 GLC5        0.0000 
     11 CA          9.9380   -5.0580   18.2180 C.3       6 GLL5        0.0000 
     12 CA         13.8680   -5.8100   18.4650 C.3       4 GLP5        0.0000 
     13 CA         11.6575   -3.3025   15.2165 C.3       2 GLC5        0.0000 
     14 CA          9.9680   -4.1620   15.8870 C.3       6 GLL5        0.0000 
     15 CA         13.3470   -2.4430   14.5460 C.3       4 GLP5        0.0000 
     16 CA          8.6525   -5.1605   15.1870 C.3       2 GLC5        0.0000 
     17 CA          7.3370   -6.1590   14.4870 C.3       4 GLP5        0.0000 
     18 CA         12.2885   -2.7115   16.1045 C.3       2 GLC5        0.0000 
     19 CA         11.2300   -2.9800   17.6630 C.3       6 GLL5        0.0000 
     20 CA         12.5340   -3.8900   18.5415 C.3       2 GLC5        0.0000 
     21 CA         13.8380   -4.8000   19.4200 C.3       4 GLP5        0.0000 
     22 CA         12.8790   -1.9185   17.9335 C.3       2 GLC5        0.0000 
     23 CA         14.5280   -0.8570   18.2040 C.3       4 GLP5        0.0000 
     24 CA         11.7700   -2.0240   19.3065 C.3       2 GLC5        0.0000 
     25 CA         12.3100   -1.0680   20.9500 C.3       4 GLP5        0.0000 
     26 CA         10.8950   -0.2325   19.5905 C.3       2 GLC5        0.0000 
     27 CA          9.4800    0.6030   18.2310 C.3       6 GLL5        0.0000 
     28 CA         10.5715    2.8615   19.4855 C.3       2 GLC5        0.0000 
     29 CA         10.3200    1.6060   17.7850 C.3       6 GLL5        0.0000 
     30 CA         10.8230    4.1170   21.1860 C.3       4 GLP5        0.0000 
     31 CA         12.3850    5.1070   16.3285 C.3       2 GLC5        0.0000 
     32 CA         10.9280    3.7540   16.2560 C.3       6 GLL5        0.0000 
     33 CA         13.8420    6.4600   16.4010 C.3       4 GLP5        0.0000 
     34 CA         12.6430    3.3800   17.0980 C.3       2 GLC5        0.0000 
     35 CA         14.3580    3.0060   17.9400 C.3       4 GLP5        0.0000 
     36 O           6.1340    1.7585   15.2830 O.2       1 ALC1        0.0000 
     37 O           6.4950    1.0340   16.3990 O.2       5 ALL1        0.0000 
     38 O           5.7730    2.4830   14.1670 O.2       3 ALP1        0.0000 
     39 CA          6.5427    3.5993   22.5382 C.3       2 GLC5        0.0000 
     40 CA          7.2600    2.2350   20.9840 C.3       6 GLL5        0.0000 
     41 CA          6.0970    4.3320   24.1970 C.3       4 GLP5        0.0000 
     42 CA          6.7320    4.6783   19.2538 C.3       2 GLC5        0.0000 
     43 CA          6.3740    5.3020   17.6560 C.3       4 GLP5        0.0000 
     44 CA          9.0244    3.9279   21.0449 C.3       2 GLC5        0.0000 
     45 CA          5.0225    3.9527   22.1708 C.3       2 GLC5        0.0000 
     46 CA          4.9190    3.6870   24.0300 C.3       4 GLP5        0.0000 
     47 CA          5.6197    4.3226   18.9679 C.3       2 GLC5        0.0000 
     48 CA          5.3860    3.6090   20.4110 C.3       6 GLL5        0.0000 
     49 CA          5.3012    2.5724   22.3110 C.3       2 GLC5        0.0000 
     50 CA          4.6050    2.4680   20.2480 C.3       6 GLL5        0.0000 
     51 CA         11.0810    0.7988   16.5245 C.3       2 GLC5        0.0000 
     52 CA         12.2620    0.4930   15.0410 C.3       4 GLP5        0.0000 
     53 CA         10.1692    4.6845   17.7910 C.3       2 GLC5        0.0000 
     54 CA          9.8850    2.4920   16.8080 C.3       6 GLL5        0.0000 
     55 CA          9.9320    6.2460   19.0500 C.3       4 GLP5        0.0000 
     56 CA          7.2750    3.5865   17.0793 C.3       2 GLC5        0.0000 
     57 CA          8.6020    2.3730   16.2800 C.3       6 GLL5        0.0000 
     58 CA          9.2596    3.2795   14.5870 C.3       2 GLC5        0.0000 
     59 CA          9.0150    3.8110   12.7680 C.3       4 GLP5        0.0000 
     60 CA          8.1745    0.6575   15.0483 C.3       2 GLC5        0.0000 
     61 CA          8.1730   -0.5560   13.5940 C.3       4 GLP5        0.0000 
     62 CA         10.8831    1.6205   15.7235 C.3       2 GLC5        0.0000 
     63 CA          7.5354   -0.2734   15.5312 C.3       2 GLC5        0.0000 
     64 CA          7.1730   -0.4030   17.9290 C.3       6 GLL5        0.0000 
@<TRIPOS>BOND
@<TRIPOS>SUBSTRUCTURE
     1 ALC1       36 GROUP        1 X    ALC  0     ROOT ALC X 1
     2 GLC5        1 GROUP        1 X    GLC  0     **** GLC X 6
     3 ALP1       38 GROUP        1 Y    ALP  0     ROOT ALP Y 8
     4 GLP5        3 GROUP        1 Y    GLP  0     **** GLP Y 13
     5 ALL1       37 GROUP        1 Z    ALL  0     ROOT ALL Z 15
     6 GLL5        2 GROUP        1 Z    GLL  0     **** GLL Z 20
@<TRIPOS>SET

