#    Name: 3tu1_07G_1_ligand
#    Modification time : Mon Mar 24 20:56:27 2014

@<TRIPOS>MOLECULE
3tu1_07G_1_ligand
   53    55     1     0     0
SMALL
NO_CHARGES


@<TRIPOS>ATOM
      1 C3          7.2600    2.2350   20.9840 C.ar      1 07G1        0.0000 
      2 C4          6.7170    3.4980   20.7750 C.ar      1 07G1        0.0000 
      3 F1          7.4630    4.6110   20.9280 F         1 07G1        0.0000 
      4 C5          5.3860    3.6090   20.4110 C.ar      1 07G1        0.0000 
      5 F2          4.8660    4.8280   20.2120 F         1 07G1        0.0000 
      6 C6          4.6050    2.4680   20.2480 C.ar      1 07G1        0.0000 
      7 C1          5.1530    1.2030   20.4620 C.ar      1 07G1        0.0000 
      8 C2          6.4880    1.0800   20.8290 C.ar      1 07G1        0.0000 
      9 C7          7.1230   -0.2900   21.1030 C.3       1 07G1        0.0000 
     10 N1          6.6320   -1.3660   20.2320 N.am      1 07G1        0.0000 
     11 C8          5.6610   -2.1920   20.5980 C.2       1 07G1        0.0000 
     12 O1          5.0690   -2.0370   21.6680 O.2       1 07G1        0.0000 
     13 C9          7.4400   -1.4280   19.0360 C.2       1 07G1        0.0000 
     14 C10         8.4890   -2.4580   18.8870 C.2       1 07G1        0.0000 
     15 O2          9.1050   -2.7100   19.9160 O.2       1 07G1        0.0000 
     16 N3          8.8010   -2.9060   17.6550 N.am      1 07G1        0.0000 
     17 C20         9.9610   -3.7900   17.3680 C.3       1 07G1        0.0000 
     18 C22         9.9380   -5.0580   18.2180 C.3       1 07G1        0.0000 
     19 C23         9.9680   -4.1620   15.8870 C.3       1 07G1        0.0000 
     20 C21        11.2300   -2.9800   17.6630 C.3       1 07G1        0.0000 
     21 C11         7.1730   -0.4030   17.9290 C.2       1 07G1        0.0000 
     22 C14         8.1940    0.4940   17.7010 C.ar      1 07G1        0.0000 
     23 C15         9.4800    0.6030   18.2310 C.ar      1 07G1        0.0000 
     24 C16        10.3200    1.6060   17.7850 C.ar      1 07G1        0.0000 
     25 C17         9.8850    2.4920   16.8080 C.ar      1 07G1        0.0000 
     26 CL1        10.9280    3.7540   16.2560 Cl        1 07G1        0.0000 
     27 C18         8.6020    2.3730   16.2800 C.ar      1 07G1        0.0000 
     28 C13         7.7500    1.3690   16.7250 C.ar      1 07G1        0.0000 
     29 N2          6.4950    1.0340   16.3990 N.pl3     1 07G1        0.0000 
     30 C12         6.1120   -0.0270   17.1220 C.2       1 07G1        0.0000 
     31 C19         4.7310   -0.6430   16.9740 C.2       1 07G1        0.0000 
     32 O4          4.3320   -1.4890   17.7940 O.co2     1 07G1        0.0000 
     33 O3          4.0650   -0.2090   16.0230 O.co2     1 07G1        0.0000 
     34 H           8.2542    2.1451   21.2596 H         1 07G1        0.0000 
     35 H           3.6183    2.5569   19.9682 H         1 07G1        0.0000 
     36 H           4.5695    0.3660   20.3481 H         1 07G1        0.0000 
     37 H           6.9397   -0.5413   22.1679 H         1 07G1        0.0000 
     38 H           8.2221   -0.1806   20.9994 H         1 07G1        0.0000 
     39 H           5.4196   -2.9909   19.9257 H         1 07G1        0.0000 
     40 H           8.2289   -2.6486   16.8156 H         1 07G1        0.0000 
     41 H           9.7950   -0.0606   18.9477 H         1 07G1        0.0000 
     42 H          11.2685    1.6987   18.1751 H         1 07G1        0.0000 
     43 H           8.2836    3.0332   15.5557 H         1 07G1        0.0000 
     44 H           5.9434    1.4925   15.7361 H         1 07G1        0.0000 
     45 H          10.7186   -5.6513   18.0212 H         1 07G1        0.0000 
     46 H           9.9669   -4.8503   19.1958 H         1 07G1        0.0000 
     47 H           9.1117   -5.5979   18.0574 H         1 07G1        0.0000 
     48 H          10.0346   -3.3541   15.3015 H         1 07G1        0.0000 
     49 H          10.7393   -4.7553   15.6567 H         1 07G1        0.0000 
     50 H           9.1351   -4.6480   15.6222 H         1 07G1        0.0000 
     51 H          12.0588   -3.5120   17.4898 H         1 07G1        0.0000 
     52 H          11.2858   -2.1577   17.0966 H         1 07G1        0.0000 
     53 H          11.2670   -2.6820   18.6168 H         1 07G1        0.0000 
@<TRIPOS>BOND
     1    2    1 ar   
     2    8    1 ar   
     3   34    1 1    
     4    3    2 1    
     5    4    2 ar   
     6    5    4 1    
     7    6    4 ar   
     8    7    6 ar   
     9   35    6 1    
    10    8    7 ar   
    11   36    7 1    
    12    9    8 1    
    13   10    9 1    
    14   37    9 1    
    15   38    9 1    
    16   11   10 am   
    17   13   10 2    
    18   12   11 2    
    19   39   11 1    
    20   14   13 1    
    21   21   13 1    
    22   15   14 2    
    23   16   14 am   
    24   17   16 1    
    25   40   16 1    
    26   18   17 1    
    27   19   17 1    
    28   20   17 1    
    29   45   18 1    
    30   46   18 1    
    31   47   18 1    
    32   48   19 1    
    33   49   19 1    
    34   50   19 1    
    35   51   20 1    
    36   52   20 1    
    37   53   20 1    
    38   22   21 1    
    39   30   21 2    
    40   23   22 ar   
    41   28   22 ar   
    42   24   23 ar   
    43   41   23 1    
    44   25   24 ar   
    45   42   24 1    
    46   26   25 1    
    47   27   25 ar   
    48   28   27 ar   
    49   43   27 1    
    50   29   28 1    
    51   30   29 1    
    52   44   29 1    
    53   31   30 1    
    54   32   31 ar   
    55   33   31 ar   
@<TRIPOS>SUBSTRUCTURE
     1 07G1        1 GROUP   
@<TRIPOS>SET

