#    Name: 4fad_0TB_1_INTS_M
#    Modification time : Mon Mar 24 19:11:41 2014

@<TRIPOS>MOLECULE
4fad_0TB_1_INTS_M
   79     0     9     0     0
SMALL
NO_CHARGES


@<TRIPOS>ATOM
      1 N          48.7245   12.0680   28.2270 N.am      2 SEC2        0.0000 
      2 N          47.7750   13.1390   28.4680 N.am      8 SEL2        0.0000 
      3 N          49.6740   10.9970   27.9860 N.am      5 SEP2        0.0000 
      4 CA         44.8865   10.5030   27.4080 C.3       3 GLC5        0.0000 
      5 CA         45.8770   11.6960   28.3240 C.3       9 GLL5        0.0000 
      6 CA         43.8960    9.3100   26.4920 C.3       6 GLP5        0.0000 
      7 CA         44.6260   10.7775   29.9115 C.3       3 GLC5        0.0000 
      8 CA         43.3750    9.8590   31.4990 C.3       6 GLP5        0.0000 
      9 CA         45.7785   12.8235   26.5290 C.3       3 GLC5        0.0000 
     10 CA         45.6800   13.9510   24.7340 C.3       6 GLP5        0.0000 
     11 CA         44.4525   13.2365   27.5230 C.3       3 GLC5        0.0000 
     12 CA         43.0280   14.7770   26.7220 C.3       6 GLP5        0.0000 
     13 CA         41.6150   14.2735   29.0575 C.3       3 GLC5        0.0000 
     14 CA         41.5250   13.2850   30.8060 C.3       9 GLL5        0.0000 
     15 CA         41.7050   15.2620   27.3090 C.3       6 GLP5        0.0000 
     16 CA         39.7955   14.0525   30.1275 C.3       3 GLC5        0.0000 
     17 CA         38.0660   14.8200   29.4490 C.3       6 GLP5        0.0000 
     18 CA         38.4030   12.1340   34.6585 C.3       3 GLC5        0.0000 
     19 CA         38.2620   11.8220   32.5240 C.3       9 GLL5        0.0000 
     20 CA         38.5440   12.4460   36.7930 C.3       6 GLP5        0.0000 
     21 CA         37.5860   10.6290   34.0010 C.3       3 GLC5        0.0000 
     22 CA         36.9100    9.4360   35.4780 C.3       6 GLP5        0.0000 
     23 CA         37.1670   10.3540   31.3180 C.3       3 GLC5        0.0000 
     24 CA         36.0720    8.8860   30.1120 C.3       6 GLP5        0.0000 
     25 CA         39.7360   11.0450   33.0825 C.3       3 GLC5        0.0000 
     26 CA         41.2100   10.2680   33.6410 C.3       6 GLP5        0.0000 
     27 CA         38.1640   13.3210   30.9865 C.3       3 GLC5        0.0000 
     28 CA         46.7625   20.8900   31.7300 C.3       3 GLC5        0.0000 
     29 CA         45.6180   19.0020   32.0910 C.3       9 GLL5        0.0000 
     30 CA         47.9070   22.7780   31.3690 C.3       6 GLP5        0.0000 
     31 CA         48.3585   16.2450   33.3425 C.3       3 GLC5        0.0000 
     32 CA         46.7340   17.0500   32.9690 C.3       9 GLL5        0.0000 
     33 CA         49.9830   15.4400   33.7160 C.3       6 GLP5        0.0000 
     34 CA         46.4890   15.1925   33.3930 C.3       3 GLC5        0.0000 
     35 CA         46.2440   13.3350   33.8170 C.3       6 GLP5        0.0000 
     36 CA         49.7270   13.1485   29.9425 C.3       3 GLC5        0.0000 
     37 CA         48.3600   14.2420   28.9630 C.3       9 GLL5        0.0000 
     38 CA         51.0940   12.0550   30.9220 C.3       6 GLP5        0.0000 
     39 CA         49.3575   12.6540   27.8305 C.3       3 GLC5        0.0000 
     40 CA         50.3550   11.0660   26.6980 C.3       6 GLP5        0.0000 
     41 CA         48.1955   15.8200   28.2045 C.3       3 GLC5        0.0000 
     42 CA         48.0310   17.3980   27.4460 C.3       6 GLP5        0.0000 
     43 O          50.6640   13.7165   28.0420 O.2       1 ALC1        0.0000 
     44 O          49.6620   14.5170   28.5380 O.2       7 ALL1        0.0000 
     45 O          51.6660   12.9160   27.5460 O.2       4 ALP1        0.0000 
     46 CA         43.9355   11.6390   30.8495 C.3       3 GLC5        0.0000 
     47 CA         44.4960   13.4190   30.2000 C.3       9 GLL5        0.0000 
     48 CA         39.0865   13.9790   30.9995 C.3       3 GLC5        0.0000 
     49 CA         40.1070   13.1380   32.5500 C.3       9 GLL5        0.0000 
     50 N          39.7035   13.7585   29.8465 N.am      2 SEC2        0.0000 
     51 N          40.3110   12.9360   31.2410 N.am      8 SEL2        0.0000 
     52 N          39.0960   14.5810   28.4520 N.am      5 SEP2        0.0000 
     53 N          38.4360   13.0680   34.4540 N.am      2 SEC2        0.0000 
     54 N          38.9080   12.8770   33.2000 N.am      8 SEL2        0.0000 
     55 N          37.9640   13.2590   35.7080 N.am      5 SEP2        0.0000 
     56 CA         46.2065   17.4690   29.1485 C.3       3 GLC5        0.0000 
     57 CA         46.0120   18.1150   30.9510 C.3       9 GLL5        0.0000 
     58 CA         46.4010   16.8230   27.3460 C.3       6 GLP5        0.0000 
     59 CA         44.3040   17.6275   29.8855 C.3       3 GLC5        0.0000 
     60 CA         42.5960   17.1400   28.8200 C.3       6 GLP5        0.0000 
     61 CA         44.0985   14.1777   28.3465 C.3       3 GLC5        0.0000 
     62 CA         45.8420   13.7380   29.7420 C.3       9 GLL5        0.0000 
     63 CA         47.7505   11.2957   29.4520 C.3       3 GLC5        0.0000 
     64 CA         46.5190   12.9070   28.8740 C.3       9 GLL5        0.0000 
     65 CA         49.3030   10.2900   30.3050 C.3       6 GLP5        0.0000 
     66 CA         47.1955   11.6077   26.9645 C.3       3 GLC5        0.0000 
     67 CA         48.1930   10.9140   25.3300 C.3       6 GLP5        0.0000 
     68 CA         46.3756   15.2104   28.3878 C.3       3 GLC5        0.0000 
     69 CA         42.8937   15.5765   30.0710 C.3       3 GLC5        0.0000 
     70 CA         42.5310   13.8210   31.5790 C.3       9 GLL5        0.0000 
     71 CA         39.7157   13.0860   35.4235 C.3       3 GLC5        0.0000 
     72 CA         41.0420   13.6630   33.4020 C.3       9 GLL5        0.0000 
     73 CA         42.8666   11.7540   31.2815 C.3       3 GLC5        0.0000 
     74 CA         46.5517   17.1015   34.9287 C.3       3 GLC5        0.0000 
     75 CA         46.6440   16.4810   36.7080 C.3       6 GLP5        0.0000 
     76 CA         45.7914   13.5944   31.9547 C.3       3 GLC5        0.0000 
     77 CA         44.4906   13.6690   32.9695 C.3       3 GLC5        0.0000 
     78 CA         43.8520   14.2050   31.0650 C.3       9 GLL5        0.0000 
     79 CA         41.0094   11.9520   33.7110 C.3       3 GLC5        0.0000 
@<TRIPOS>BOND
@<TRIPOS>SUBSTRUCTURE
     1 ALC1       43 GROUP        1 X    ALC  0     ROOT ALC X 1
     2 SEC2        1 GROUP        1 X    SEC  0     **** SEC X 2
     3 GLC5        4 GROUP        1 X    GLC  0     **** GLC X 6
     4 ALP1       45 GROUP        1 Y    ALP  0     ROOT ALP Y 8
     5 SEP2        3 GROUP        1 Y    SEP  0     **** SEP Y 9
     6 GLP5        6 GROUP        1 Y    GLP  0     **** GLP Y 13
     7 ALL1       44 GROUP        1 Z    ALL  0     ROOT ALL Z 15
     8 SEL2        2 GROUP        1 Z    SEL  0     **** SEL Z 16
     9 GLL5        5 GROUP        1 Z    GLL  0     **** GLL Z 20
@<TRIPOS>SET

