#    Name: 4fad_0TB_1_ligand
#    Modification time : Mon Mar 24 19:11:41 2014

@<TRIPOS>MOLECULE
4fad_0TB_1_ligand
   46    49     1     0     0
SMALL
NO_CHARGES


@<TRIPOS>ATOM
      1 N1         47.7750   13.1390   28.4680 N.ar      1 0TB1201     0.0000 
      2 N3         47.7810   15.1000   29.8260 N.ar      1 0TB1201     0.0000 
      3 C4         46.5210   14.8390   30.2280 C.ar      1 0TB1201     0.0000 
      4 C5         45.8420   13.7380   29.7420 C.ar      1 0TB1201     0.0000 
      5 C6         46.5190   12.9070   28.8740 C.ar      1 0TB1201     0.0000 
      6 C8         45.8770   11.6960   28.3240 C.3       1 0TB1201     0.0000 
      7 C13        43.8520   14.2050   31.0650 C.2       1 0TB1201     0.0000 
      8 C15        42.5310   13.8210   31.5790 C.ar      1 0TB1201     0.0000 
      9 C17        41.0420   13.6630   33.4020 C.ar      1 0TB1201     0.0000 
     10 C20        41.5250   13.2850   30.8060 C.ar      1 0TB1201     0.0000 
     11 C22        38.2620   11.8220   32.5240 C.3       1 0TB1201     0.0000 
     12 C24        45.6180   19.0020   32.0910 C.3       1 0TB1201     0.0000 
     13 C26        46.7340   17.0500   32.9690 C.3       1 0TB1201     0.0000 
     14 C2         48.3600   14.2420   28.9630 C.ar      1 0TB1201     0.0000 
     15 N7         49.6620   14.5170   28.5380 N.pl3     1 0TB1201     0.0000 
     16 N9         45.8450   15.7170   31.1360 N.am      1 0TB1201     0.0000 
     17 N10        46.5360   16.8830   31.5350 N.3       1 0TB1201     0.0000 
     18 C11        44.4960   13.4190   30.2000 C.2       1 0TB1201     0.0000 
     19 C12        44.5200   15.4620   31.5490 C.2       1 0TB1201     0.0000 
     20 O14        43.8780   16.2050   32.2860 O.2       1 0TB1201     0.0000 
     21 C16        42.2830   13.9930   32.9220 C.ar      1 0TB1201     0.0000 
     22 C18        40.1070   13.1380   32.5500 C.ar      1 0TB1201     0.0000 
     23 N19        40.3110   12.9360   31.2410 N.ar      1 0TB1201     0.0000 
     24 O21        38.9080   12.8770   33.2000 O.3       1 0TB1201     0.0000 
     25 C23        46.0120   18.1150   30.9510 C.3       1 0TB1201     0.0000 
     26 C25        46.1850   18.3940   33.3300 C.3       1 0TB1201     0.0000 
     27 F27        40.7330   13.7890   34.7060 F         1 0TB1201     0.0000 
     28 H          41.7528   13.1408   29.7614 H         1 0TB1201     0.0000 
     29 H          44.5414   19.0500   32.1622 H         1 0TB1201     0.0000 
     30 H          46.0272   19.9906   31.9438 H         1 0TB1201     0.0000 
     31 H          47.7882   17.0148   33.2199 H         1 0TB1201     0.0000 
     32 H          46.2021   16.2853   33.5238 H         1 0TB1201     0.0000 
     33 H          50.2348   13.7234   28.3330 H         1 0TB1201     0.0000 
     34 H          49.9094   15.4839   28.4753 H         1 0TB1201     0.0000 
     35 H          44.0756   12.5520   29.8150 H         1 0TB1201     0.0000 
     36 H          43.0079   14.3579   33.5439 H         1 0TB1201     0.0000 
     37 H          46.7694   18.6113   30.3562 H         1 0TB1201     0.0000 
     38 H          45.1419   17.9107   30.3387 H         1 0TB1201     0.0000 
     39 H          45.4072   18.2835   34.0763 H         1 0TB1201     0.0000 
     40 H          46.9783   19.0212   33.7193 H         1 0TB1201     0.0000 
     41 H          45.8240   11.7245   27.3258 H         1 0TB1201     0.0000 
     42 H          46.3794   10.8663   28.5672 H         1 0TB1201     0.0000 
     43 H          44.9433   11.5836   28.6640 H         1 0TB1201     0.0000 
     44 H          38.8164   10.9897   32.5186 H         1 0TB1201     0.0000 
     45 H          37.3874   11.5889   32.9491 H         1 0TB1201     0.0000 
     46 H          38.0717   12.0536   31.5700 H         1 0TB1201     0.0000 
@<TRIPOS>BOND
     1    5    1 ar   
     2   14    1 ar   
     3    3    2 ar   
     4   14    2 ar   
     5    4    3 ar   
     6   16    3 1    
     7    5    4 ar   
     8   18    4 1    
     9    6    5 1    
    10   41    6 1    
    11   42    6 1    
    12   43    6 1    
    13    8    7 1    
    14   18    7 2    
    15   19    7 1    
    16   10    8 ar   
    17   21    8 ar   
    18   21    9 ar   
    19   22    9 ar   
    20   27    9 1    
    21   23   10 ar   
    22   28   10 1    
    23   24   11 1    
    24   44   11 1    
    25   45   11 1    
    26   46   11 1    
    27   25   12 1    
    28   26   12 1    
    29   29   12 1    
    30   30   12 1    
    31   17   13 1    
    32   26   13 1    
    33   31   13 1    
    34   32   13 1    
    35   15   14 1    
    36   33   15 1    
    37   34   15 1    
    38   17   16 1    
    39   19   16 am   
    40   25   17 1    
    41   35   18 1    
    42   20   19 2    
    43   36   21 1    
    44   23   22 ar   
    45   24   22 1    
    46   37   25 1    
    47   38   25 1    
    48   39   26 1    
    49   40   26 1    
@<TRIPOS>SUBSTRUCTURE
     1 0TB1201     1 GROUP   
@<TRIPOS>SET

