#    Name: 3a9v_AMP_1_INTS_M
#    Modification time : Tue Mar 25 11:39:03 2014

@<TRIPOS>MOLECULE
3a9v_AMP_1_INTS_M
   59     0    12     0     0
SMALL
NO_CHARGES


@<TRIPOS>ATOM
      1 N         -20.2850   -9.0085   13.1635 N.am      2 SEC2        0.0000 
      2 N         -21.1160  -10.0890   13.8240 N.am     10 SEL2        0.0000 
      3 N         -19.4540   -7.9280   12.5030 N.am      6 SEP2        0.0000 
      4 N         -19.8560   -9.7690   14.2890 N.am      2 SEC2        0.0000 
      5 N         -18.5960   -9.4490   14.7540 N.am      6 SEP2        0.0000 
      6 NZ        -24.1155  -10.1445   16.1135 N.4       3 LYC4        0.0000 
      7 NZ        -22.2660  -10.6960   16.0210 N.4      11 LYL4        0.0000 
      8 NZ        -25.9650   -9.5930   16.2060 N.4       7 LYP4        0.0000 
      9 N         -21.8045  -12.0720   15.6985 N.am      2 SEC2        0.0000 
     10 N         -22.2660  -10.6960   16.0210 N.am     10 SEL2        0.0000 
     11 N         -21.3430  -13.4480   15.3760 N.am      6 SEP2        0.0000 
     12 N         -21.5280   -8.2560   16.6905 N.am      2 SEC2        0.0000 
     13 N         -22.2240   -8.3280   15.2880 N.am     10 SEL2        0.0000 
     14 N         -20.8320   -8.1840   18.0930 N.am      6 SEP2        0.0000 
     15 N         -24.7805   -9.7940   15.1625 N.am      2 SEC2        0.0000 
     16 N         -23.5960   -9.9950   14.1190 N.am     10 SEL2        0.0000 
     17 N         -25.9650   -9.5930   16.2060 N.am      6 SEP2        0.0000 
     18 CA        -22.7195   -8.2090   12.1135 C.3       4 GLC5        0.0000 
     19 CA        -24.0210   -9.2320   12.9780 C.3      12 GLL5        0.0000 
     20 CA        -21.4180   -7.1860   11.2490 C.3       8 GLP5        0.0000 
     21 CA        -25.2280  -11.7825   12.5800 C.3       4 GLC5        0.0000 
     22 CA        -25.2310   -9.8200   12.3440 C.3      12 GLL5        0.0000 
     23 CA        -25.2250  -13.7450   12.8160 C.3       8 GLP5        0.0000 
     24 CA        -26.3600  -10.6225   13.9000 C.3       4 GLC5        0.0000 
     25 CA        -27.4890  -11.4250   15.4560 C.3       8 GLP5        0.0000 
     26 CA        -23.6375   -8.5370   10.4300 C.3       4 GLC5        0.0000 
     27 CA        -25.5540   -9.2670   10.9820 C.3      12 GLL5        0.0000 
     28 CA        -21.7210   -7.8070    9.8780 C.3       8 GLP5        0.0000 
     29 CA        -25.4040  -11.2460    9.9485 C.3       4 GLC5        0.0000 
     30 CA        -25.2540  -13.2250    8.9150 C.3       8 GLP5        0.0000 
     31 N         -24.4625  -11.1595    9.5375 N.am      2 SEC2        0.0000 
     32 N         -24.8190  -10.0200   10.0170 N.am     10 SEL2        0.0000 
     33 N         -24.1060  -12.2990    9.0580 N.am      6 SEP2        0.0000 
     34 O         -25.4775   -9.7670    8.7870 O.2       1 ALC1        0.0000 
     35 O         -24.8190  -10.0200   10.0170 O.2       9 ALL1        0.0000 
     36 O         -26.1360   -9.5140    7.5570 O.2       5 ALP1        0.0000 
     37 O         -27.5870  -10.8480    9.3910 O.2       1 ALC1        0.0000 
     38 O         -27.4390  -10.7750   10.6560 O.2       9 ALL1        0.0000 
     39 O         -27.7350  -10.9210    8.1260 O.2       5 ALP1        0.0000 
     40 CA        -27.4920  -10.2615   13.9110 C.3       4 GLC5        0.0000 
     41 CA        -27.4950   -9.0980   12.3660 C.3      12 GLL5        0.0000 
     42 CA        -28.1620   -5.6225   14.5415 C.3       4 GLC5        0.0000 
     43 CA        -28.9010   -5.7470   12.5160 C.3      12 GLL5        0.0000 
     44 CA        -27.4230   -5.4980   16.5670 C.3       8 GLP5        0.0000 
     45 O         -29.3185   -2.4405   12.6000 O.2       1 ALC1        0.0000 
     46 O         -30.0600   -3.6410   12.5150 O.2       9 ALL1        0.0000 
     47 O         -28.5770   -1.2400   12.6850 O.2       5 ALP1        0.0000 
     48 CA        -31.0275   -6.7770   13.5545 C.3       4 GLC5        0.0000 
     49 CA        -31.1620   -6.8570   11.5230 C.3      12 GLL5        0.0000 
     50 CA        -30.8930   -6.6970   15.5860 C.3       8 GLP5        0.0000 
     51 CA        -32.2640   -7.1580   12.8275 C.3       4 GLC5        0.0000 
     52 CA        -33.3660   -7.4590   14.1320 C.3       8 GLP5        0.0000 
     53 CA        -30.4835   -6.3460    9.8440 C.3       4 GLC5        0.0000 
     54 CA        -29.8050   -5.8350    8.1650 C.3       8 GLP5        0.0000 
     55 CA        -26.2447   -7.6930    9.8970 C.3       4 GLC5        0.0000 
     56 CA        -27.0370   -9.4490   10.9600 C.3      12 GLL5        0.0000 
     57 CA        -26.1940   -6.0280    8.8230 C.3       8 GLP5        0.0000 
     58 CA        -30.0739   -6.4560   13.9453 C.3       4 GLC5        0.0000 
     59 CA        -29.5299   -6.0250   10.2347 C.3       4 GLC5        0.0000 
@<TRIPOS>BOND
@<TRIPOS>SUBSTRUCTURE
     1 ALC1       34 GROUP        1 X    ALC  0     ROOT ALC X 1
     2 SEC2        1 GROUP        1 X    SEC  0     **** SEC X 2
     3 LYC4        6 GROUP        1 X    LYC  0     **** LYC X 4
     4 GLC5       18 GROUP        1 X    GLC  0     **** GLC X 6
     5 ALP1       36 GROUP        1 Y    ALP  0     ROOT ALP Y 8
     6 SEP2        3 GROUP        1 Y    SEP  0     **** SEP Y 9
     7 LYP4        8 GROUP        1 Y    LYP  0     **** LYP Y 11
     8 GLP5       20 GROUP        1 Y    GLP  0     **** GLP Y 13
     9 ALL1       35 GROUP        1 Z    ALL  0     ROOT ALL Z 15
    10 SEL2        2 GROUP        1 Z    SEL  0     **** SEL Z 16
    11 LYL4        7 GROUP        1 Z    LYL  0     **** LYL Z 18
    12 GLL5       19 GROUP        1 Z    GLL  0     **** GLL Z 20
@<TRIPOS>SET

