#    Name: 3a9v_AMP_1_ligand
#    Modification time : Tue Mar 25 11:39:03 2014

@<TRIPOS>MOLECULE
3a9v_AMP_1_ligand
   35    37     1     0     0
SMALL
NO_CHARGES


@<TRIPOS>ATOM
      1 P         -22.2020   -9.7070   14.7700 P.3       1 AMP551      0.0000 
      2 O1P       -21.1160  -10.0890   13.8240 O.co2     1 AMP551      0.0000 
      3 O2P       -22.2660  -10.6960   16.0210 O.co2     1 AMP551      0.0000 
      4 O3P       -22.2240   -8.3280   15.2880 O.co2     1 AMP551      0.0000 
      5 O5'       -23.5960   -9.9950   14.1190 O.3       1 AMP551      0.0000 
      6 C5'       -24.0210   -9.2320   12.9780 C.3       1 AMP551      0.0000 
      7 C4'       -25.2310   -9.8200   12.3440 C.3       1 AMP551      0.0000 
      8 O4'       -26.3530   -9.4330   13.1740 O.3       1 AMP551      0.0000 
      9 C3'       -25.5540   -9.2670   10.9820 C.3       1 AMP551      0.0000 
     10 O3'       -24.8190  -10.0200   10.0170 O.3       1 AMP551      0.0000 
     11 C2'       -27.0370   -9.4490   10.9600 C.3       1 AMP551      0.0000 
     12 O2'       -27.4390  -10.7750   10.6560 O.3       1 AMP551      0.0000 
     13 C1'       -27.4950   -9.0980   12.3660 C.3       1 AMP551      0.0000 
     14 N9        -27.8260   -7.6520   12.5250 N.pl3     1 AMP551      0.0000 
     15 C8        -27.0520   -6.6120   12.9900 C.2       1 AMP551      0.0000 
     16 N7        -27.6410   -5.4530   13.0070 N.2       1 AMP551      0.0000 
     17 C5        -28.9010   -5.7470   12.5160 C.ar      1 AMP551      0.0000 
     18 C6        -30.0600   -4.9450   12.2680 C.ar      1 AMP551      0.0000 
     19 N6        -30.0600   -3.6410   12.5150 N.pl3     1 AMP551      0.0000 
     20 N1        -31.1740   -5.5440   11.7690 N.ar      1 AMP551      0.0000 
     21 C2        -31.1620   -6.8570   11.5230 C.ar      1 AMP551      0.0000 
     22 N3        -30.1530   -7.7220   11.7070 N.ar      1 AMP551      0.0000 
     23 C4        -29.0290   -7.0840   12.2170 C.ar      1 AMP551      0.0000 
     24 H         -23.2149   -9.1787   12.2210 H         1 AMP551      0.0000 
     25 H         -24.2451   -8.1872   13.2678 H         1 AMP551      0.0000 
     26 H         -25.1654  -10.8774   12.3018 H         1 AMP551      0.0000 
     27 H         -25.3219   -8.2349   10.9981 H         1 AMP551      0.0000 
     28 H         -27.4679   -8.7216   10.2970 H         1 AMP551      0.0000 
     29 H         -28.3217   -9.7160   12.6176 H         1 AMP551      0.0000 
     30 H         -26.0981   -6.7782   13.2878 H         1 AMP551      0.0000 
     31 H         -30.9396   -3.2424   12.7746 H         1 AMP551      0.0000 
     32 H         -29.1804   -3.1750   12.4191 H         1 AMP551      0.0000 
     33 H         -32.0928   -7.2835   11.1200 H         1 AMP551      0.0000 
     34 H         -25.2701   -9.8326    9.1444 H         1 AMP551      0.0000 
     35 H         -27.9755  -10.6964    9.8157 H         1 AMP551      0.0000 
@<TRIPOS>BOND
     1    2    1 ar   
     2    3    1 ar   
     3    4    1 ar   
     4    5    1 1    
     5    6    5 1    
     6    7    6 1    
     7   24    6 1    
     8   25    6 1    
     9    8    7 1    
    10    9    7 1    
    11   26    7 1    
    12   13    8 1    
    13   10    9 1    
    14   11    9 1    
    15   27    9 1    
    16   34   10 1    
    17   12   11 1    
    18   13   11 1    
    19   28   11 1    
    20   35   12 1    
    21   14   13 1    
    22   29   13 1    
    23   15   14 1    
    24   23   14 1    
    25   16   15 2    
    26   30   15 1    
    27   17   16 1    
    28   18   17 ar   
    29   23   17 ar   
    30   19   18 1    
    31   20   18 ar   
    32   31   19 1    
    33   32   19 1    
    34   21   20 ar   
    35   22   21 ar   
    36   33   21 1    
    37   23   22 ar   
@<TRIPOS>SUBSTRUCTURE
     1 AMP551      1 GROUP   
@<TRIPOS>SET

