#    Name: 2yyy_NAP_1_INTS_M
#    Modification time : Tue Mar 25 09:51:18 2014

@<TRIPOS>MOLECULE
2yyy_NAP_1_INTS_M
  100     0    12     0     0
SMALL
NO_CHARGES


@<TRIPOS>ATOM
      1 N          45.3675   26.8065   44.2780 N.am      2 SEC2        0.0000 
      2 N          45.7920   25.4640   44.7030 N.am     10 SEL2        0.0000 
      3 N          44.9430   28.1490   43.8530 N.am      6 SEP2        0.0000 
      4 CA         47.8370   29.2455   49.3990 C.3       4 GLC5        0.0000 
      5 CA         47.8980   27.5140   48.4800 C.3      12 GLL5        0.0000 
      6 CA         47.7760   30.9770   50.3180 C.3       8 GLP5        0.0000 
      7 CA         48.6925   29.3530   50.1595 C.3       4 GLC5        0.0000 
      8 CA         49.6090   27.7290   50.0010 C.3      12 GLL5        0.0000 
      9 CA         51.6145   27.5965   50.8720 C.3       4 GLC5        0.0000 
     10 CA         53.6200   27.4640   51.7430 C.3       8 GLP5        0.0000 
     11 CA         48.4735   26.1520   50.8760 C.3       4 GLC5        0.0000 
     12 CA         47.3380   24.5750   51.7510 C.3       8 GLP5        0.0000 
     13 CA         52.4035   27.4155   55.4915 C.3       4 GLC5        0.0000 
     14 CA         50.3140   27.2900   54.7600 C.3      12 GLL5        0.0000 
     15 CA         54.4930   27.5410   56.2230 C.3       8 GLP5        0.0000 
     16 N          48.4570   28.5950   55.9285 N.am      2 SEC2        0.0000 
     17 N          49.7330   28.4950   55.0540 N.am     10 SEL2        0.0000 
     18 N          47.1810   28.6950   56.8030 N.am      6 SEP2        0.0000 
     19 N          50.0445   29.3855   56.0955 N.am      2 SEC2        0.0000 
     20 N          50.3560   30.2760   57.1370 N.am      6 SEP2        0.0000 
     21 CA         48.5105   30.1570   52.1965 C.3       4 GLC5        0.0000 
     22 CA         49.2450   29.3370   54.0750 C.3      12 GLL5        0.0000 
     23 CA         50.8420   30.0710   53.7880 C.3       4 GLC5        0.0000 
     24 CA         52.4390   30.8050   53.5010 C.3       8 GLP5        0.0000 
     25 CA         47.7180   28.2250   53.9100 C.3       4 GLC5        0.0000 
     26 CA         46.1910   27.1130   53.7450 C.3       8 GLP5        0.0000 
     27 CA         48.8170   29.3580   51.3840 C.3       4 GLC5        0.0000 
     28 CA         49.8580   27.7390   52.4500 C.3      12 GLL5        0.0000 
     29 N          42.7685   27.9445   45.3920 N.am      2 SEC2        0.0000 
     30 N          43.1920   26.8190   46.1890 N.am     10 SEL2        0.0000 
     31 N          42.3450   29.0700   44.5950 N.am      6 SEP2        0.0000 
     32 CA         41.1305   26.9965   47.4930 C.3       4 GLC5        0.0000 
     33 CA         42.3540   25.7730   48.8700 C.3      12 GLL5        0.0000 
     34 CA         39.9070   28.2200   46.1160 C.3       8 GLP5        0.0000 
     35 N          38.5230   23.6855   51.6745 N.am      2 SEC2        0.0000 
     36 N          39.9480   24.1730   51.3470 N.am     10 SEL2        0.0000 
     37 N          37.0980   23.1980   52.0020 N.am      6 SEP2        0.0000 
     38 O          40.7765   24.5925   52.3020 O.2       1 ALC1        0.0000 
     39 O          39.9480   24.1730   51.3470 O.2       9 ALL1        0.0000 
     40 O          41.6050   25.0120   53.2570 O.2       5 ALP1        0.0000 
     41 CA         39.4720   26.5950   47.4225 C.3       4 GLC5        0.0000 
     42 CA         39.0370   24.9700   48.7290 C.3      12 GLL5        0.0000 
     43 CA         38.7785   26.2620   49.9235 C.3       4 GLC5        0.0000 
     44 CA         38.5200   27.5540   51.1180 C.3       8 GLP5        0.0000 
     45 CA         39.4350   26.4055   46.2010 C.3       4 GLC5        0.0000 
     46 CA         38.9630   24.5910   46.2860 C.3      12 GLL5        0.0000 
     47 N          38.6325   22.1000   42.5330 N.am      2 SEC2        0.0000 
     48 N          38.1310   23.6340   42.8050 N.am     10 SEL2        0.0000 
     49 N          39.1340   20.5660   42.2610 N.am      6 SEP2        0.0000 
     50 O          40.8645   23.3560   42.5625 O.2       1 ALC1        0.0000 
     51 O          40.2640   23.9060   43.7670 O.2       9 ALL1        0.0000 
     52 O          41.4650   22.8060   41.3580 O.2       5 ALP1        0.0000 
     53 CA         34.6170   25.0570   47.3955 C.3       4 GLC5        0.0000 
     54 CA         36.3940   25.6750   46.1680 C.3      12 GLL5        0.0000 
     55 CA         32.8400   24.4390   48.6230 C.3       8 GLP5        0.0000 
     56 CA         34.8555   26.9355   46.2100 C.3       4 GLC5        0.0000 
     57 CA         33.3170   28.1960   46.2520 C.3       8 GLP5        0.0000 
     58 CA         38.4850   26.9010   46.7560 C.3       4 GLC5        0.0000 
     59 CA         37.0630   25.5820   47.3960 C.3      12 GLL5        0.0000 
     60 CA         37.7915   26.5680   49.2570 C.3       4 GLC5        0.0000 
     61 N          53.9630   25.9895   49.2385 N.am      2 SEC2        0.0000 
     62 N          52.9890   25.7440   48.3040 N.am     10 SEL2        0.0000 
     63 N          54.9370   26.2350   50.1730 N.am      6 SEP2        0.0000 
     64 NZ         53.3060   28.4255   46.0370 N.4       3 LYC4        0.0000 
     65 NZ         53.6670   27.9860   47.4680 N.4      11 LYL4        0.0000 
     66 NZ         52.9450   28.8650   44.6060 N.4       7 LYP4        0.0000 
     67 N          53.3060   28.4255   46.0370 N.am      2 SEC2        0.0000 
     68 N          53.6670   27.9860   47.4680 N.am     10 SEL2        0.0000 
     69 N          52.9450   28.8650   44.6060 N.am      6 SEP2        0.0000 
     70 N          54.0570   28.6425   48.6310 N.am      2 SEC2        0.0000 
     71 N          54.4470   29.2990   49.7940 N.am      6 SEP2        0.0000 
     72 N          55.0195   28.0560   47.8500 N.am      2 SEC2        0.0000 
     73 N          56.3720   28.1260   48.2320 N.am      6 SEP2        0.0000 
     74 NZ         52.4080   27.8115   45.4520 N.4       3 LYC4        0.0000 
     75 NZ         51.8710   26.7580   46.2980 N.4      11 LYL4        0.0000 
     76 N          52.4080   27.8115   45.4520 N.am      2 SEC2        0.0000 
     77 N          51.8710   26.7580   46.2980 N.am     10 SEL2        0.0000 
     78 CA         46.5770   26.9800   50.3050 C.3       4 GLC5        0.0000 
     79 CA         45.6960   27.0480   52.2540 C.3       8 GLP5        0.0000 
     80 CA         47.3980   25.7435   50.0535 C.3       4 GLC5        0.0000 
     81 CA         47.0180   26.3100   48.2320 C.3      12 GLL5        0.0000 
     82 CA         47.5680   28.1490   46.5918 C.3       4 GLC5        0.0000 
     83 CA         46.8000   29.1260   45.1520 C.3       8 GLP5        0.0000 
     84 CA         48.7237   25.9410   52.3442 C.3       4 GLC5        0.0000 
     85 CA         50.3610   26.8750   53.4250 C.3      12 GLL5        0.0000 
     86 CA         49.1343   26.0162   55.0838 C.3       4 GLC5        0.0000 
     87 CA         47.9310   24.9500   56.0750 C.3       8 GLP5        0.0000 
     88 CA         51.8589   27.4374   52.5071 C.3       4 GLC5        0.0000 
     89 CA         51.2684   29.1079   53.3861 C.3       4 GLC5        0.0000 
     90 CA         48.1444   27.2619   53.5081 C.3       4 GLC5        0.0000 
     91 CA         39.6998   26.2193   50.5138 C.3       4 GLC5        0.0000 
     92 CA         41.0560   25.6050   49.6870 C.3      12 GLL5        0.0000 
     93 CA         38.9825   22.9282   51.0195 C.3       4 GLC5        0.0000 
     94 CA         40.7030   24.1640   50.1320 C.3      12 GLL5        0.0000 
     95 CA         37.7220   21.9480   52.4550 C.3       8 GLP5        0.0000 
     96 CA         34.9995   24.8105   44.7048 C.3       4 GLC5        0.0000 
     97 CA         36.9860   25.1730   45.0070 C.3      12 GLL5        0.0000 
     98 CA         33.3090   24.1970   43.8220 C.3       8 GLP5        0.0000 
     99 CA         37.9714   26.8491   45.3034 C.3       4 GLC5        0.0000 
    100 CA         38.9250   28.4070   45.0040 C.3       8 GLP5        0.0000 
@<TRIPOS>BOND
@<TRIPOS>SUBSTRUCTURE
     1 ALC1       38 GROUP        1 X    ALC  0     ROOT ALC X 1
     2 SEC2        1 GROUP        1 X    SEC  0     **** SEC X 2
     3 LYC4       64 GROUP        1 X    LYC  0     **** LYC X 4
     4 GLC5        4 GROUP        1 X    GLC  0     **** GLC X 6
     5 ALP1       40 GROUP        1 Y    ALP  0     ROOT ALP Y 8
     6 SEP2        3 GROUP        1 Y    SEP  0     **** SEP Y 9
     7 LYP4       66 GROUP        1 Y    LYP  0     **** LYP Y 11
     8 GLP5        6 GROUP        1 Y    GLP  0     **** GLP Y 13
     9 ALL1       39 GROUP        1 Z    ALL  0     ROOT ALL Z 15
    10 SEL2        2 GROUP        1 Z    SEL  0     **** SEL Z 16
    11 LYL4       65 GROUP        1 Z    LYL  0     **** LYL Z 18
    12 GLL5        5 GROUP        1 Z    GLL  0     **** GLL Z 20
@<TRIPOS>SET

