#    Name: 2yyy_NAP_1_ligand
#    Modification time : Tue Mar 25 09:51:18 2014

@<TRIPOS>MOLECULE
2yyy_NAP_1_ligand
   73    77     1     0     0
SMALL
NO_CHARGES


@<TRIPOS>ATOM
      1 PA         46.0340   25.0690   46.1030 P.3       1 NAP2001     0.0000 
      2 O1A        45.7920   25.4640   44.7030 O.co2     1 NAP2001     0.0000 
      3 O2A        46.9140   23.8880   46.3280 O.co2     1 NAP2001     0.0000 
      4 O5B        46.6940   26.3280   46.8530 O.3       1 NAP2001     0.0000 
      5 C5B        47.0180   26.3100   48.2320 C.3       1 NAP2001     0.0000 
      6 C4B        47.8980   27.5140   48.4800 C.3       1 NAP2001     0.0000 
      7 O4B        48.2140   27.5960   49.8590 O.3       1 NAP2001     0.0000 
      8 C3B        49.2140   27.4320   47.7070 C.3       1 NAP2001     0.0000 
      9 O3B        49.4340   28.7290   47.2040 O.3       1 NAP2001     0.0000 
     10 C2B        50.2320   27.0850   48.7860 C.3       1 NAP2001     0.0000 
     11 O2B        51.4490   27.7120   48.5300 O.3       1 NAP2001     0.0000 
     12 C1B        49.6090   27.7290   50.0010 C.3       1 NAP2001     0.0000 
     13 N9A        50.0480   27.1220   51.2580 N.pl3     1 NAP2001     0.0000 
     14 C8A        50.6420   25.8840   51.4780 C.2       1 NAP2001     0.0000 
     15 N7A        50.8410   25.7560   52.8060 N.2       1 NAP2001     0.0000 
     16 C5A        50.3610   26.8750   53.4250 C.ar      1 NAP2001     0.0000 
     17 C6A        50.3140   27.2900   54.7600 C.ar      1 NAP2001     0.0000 
     18 N6A        50.8080   26.5170   55.7560 N.pl3     1 NAP2001     0.0000 
     19 N1A        49.7330   28.4950   55.0540 N.ar      1 NAP2001     0.0000 
     20 C2A        49.2450   29.3370   54.0750 C.ar      1 NAP2001     0.0000 
     21 N3A        49.3170   28.9540   52.7570 N.ar      1 NAP2001     0.0000 
     22 C4A        49.8580   27.7390   52.4500 C.ar      1 NAP2001     0.0000 
     23 O3         44.6100   24.7420   46.8080 O.3       1 NAP2001     0.0000 
     24 PN         43.1510   25.3300   46.3550 P.3       1 NAP2001     0.0000 
     25 O1N        43.1920   26.8190   46.1890 O.co2     1 NAP2001     0.0000 
     26 O2N        42.6020   24.4680   45.2710 O.co2     1 NAP2001     0.0000 
     27 O5D        42.2650   24.9780   47.6810 O.3       1 NAP2001     0.0000 
     28 C5D        42.3540   25.7730   48.8700 C.3       1 NAP2001     0.0000 
     29 C4D        41.0560   25.6050   49.6870 C.3       1 NAP2001     0.0000 
     30 O4D        40.0000   26.0030   48.8300 O.3       1 NAP2001     0.0000 
     31 C3D        40.7030   24.1640   50.1320 C.3       1 NAP2001     0.0000 
     32 O3D        39.9480   24.1730   51.3470 O.3       1 NAP2001     0.0000 
     33 C2D        39.7830   23.6530   49.0360 C.3       1 NAP2001     0.0000 
     34 O2D        38.9060   22.6170   49.4780 O.3       1 NAP2001     0.0000 
     35 C1D        39.0370   24.9700   48.7290 C.3       1 NAP2001     0.0000 
     36 N1N        38.3410   25.0460   47.4340 N.pl3     1 NAP2001     0.0000 
     37 C2N        38.9630   24.5910   46.2860 C.ar      1 NAP2001     0.0000 
     38 C3N        38.2970   24.6420   45.0680 C.ar      1 NAP2001     0.0000 
     39 C7N        38.9480   24.0500   43.8490 C.2       1 NAP2001     0.0000 
     40 O7N        38.1310   23.6340   42.8050 O.2       1 NAP2001     0.0000 
     41 N7N        40.2640   23.9060   43.7670 N.am      1 NAP2001     0.0000 
     42 C4N        36.9860   25.1730   45.0070 C.ar      1 NAP2001     0.0000 
     43 C5N        36.3940   25.6750   46.1680 C.ar      1 NAP2001     0.0000 
     44 C6N        37.0630   25.5820   47.3960 C.ar      1 NAP2001     0.0000 
     45 P2B        52.6040   27.0160   47.6070 P.3       1 NAP2001     0.0000 
     46 O1X        52.9890   25.7440   48.3040 O.co2     1 NAP2001     0.0000 
     47 O2X        53.6670   27.9860   47.4680 O.co2     1 NAP2001     0.0000 
     48 O3X        51.8710   26.7580   46.2980 O.co2     1 NAP2001     0.0000 
     49 H          47.5731   25.4194   48.5107 H         1 NAP2001     0.0000 
     50 H          46.1371   26.3968   48.8609 H         1 NAP2001     0.0000 
     51 H          47.3762   28.4025   48.1534 H         1 NAP2001     0.0000 
     52 H          49.1502   26.6826   47.0073 H         1 NAP2001     0.0000 
     53 H          50.2596   26.0583   48.9172 H         1 NAP2001     0.0000 
     54 H          49.8826   28.7846   49.9864 H         1 NAP2001     0.0000 
     55 H          50.8599   25.2555   50.7956 H         1 NAP2001     0.0000 
     56 H          51.1754   25.6282   55.4822 H         1 NAP2001     0.0000 
     57 H          50.7617   26.9035   56.6771 H         1 NAP2001     0.0000 
     58 H          48.8314   30.2431   54.3326 H         1 NAP2001     0.0000 
     59 H          42.4651   26.8348   48.6439 H         1 NAP2001     0.0000 
     60 H          43.1852   25.4645   49.5062 H         1 NAP2001     0.0000 
     61 H          41.0940   26.2364   50.5481 H         1 NAP2001     0.0000 
     62 H          41.5647   23.5870   50.1589 H         1 NAP2001     0.0000 
     63 H          40.3724   23.4241   48.1930 H         1 NAP2001     0.0000 
     64 H          38.3017   25.1021   49.5470 H         1 NAP2001     0.0000 
     65 H          39.9203   24.2137   46.3309 H         1 NAP2001     0.0000 
     66 H          40.7879   24.1815   44.5730 H         1 NAP2001     0.0000 
     67 H          40.6133   23.5350   42.9066 H         1 NAP2001     0.0000 
     68 H          36.4857   25.1849   44.1192 H         1 NAP2001     0.0000 
     69 H          35.4669   26.1135   46.1241 H         1 NAP2001     0.0000 
     70 H          36.6073   25.9080   48.2512 H         1 NAP2001     0.0000 
     71 H          50.2251   29.0721   47.7104 H         1 NAP2001     0.0000 
     72 H          40.5879   24.4905   52.0468 H         1 NAP2001     0.0000 
     73 H          38.9983   22.6072   50.4736 H         1 NAP2001     0.0000 
@<TRIPOS>BOND
     1    2    1 ar   
     2    3    1 ar   
     3    4    1 1    
     4   23    1 1    
     5    5    4 1    
     6    6    5 1    
     7   49    5 1    
     8   50    5 1    
     9    7    6 1    
    10    8    6 1    
    11   51    6 1    
    12   12    7 1    
    13    9    8 1    
    14   10    8 1    
    15   52    8 1    
    16   71    9 1    
    17   11   10 1    
    18   12   10 1    
    19   53   10 1    
    20   45   11 1    
    21   13   12 1    
    22   54   12 1    
    23   14   13 1    
    24   22   13 1    
    25   15   14 2    
    26   55   14 1    
    27   16   15 1    
    28   17   16 ar   
    29   22   16 ar   
    30   18   17 1    
    31   19   17 ar   
    32   56   18 1    
    33   57   18 1    
    34   20   19 ar   
    35   21   20 ar   
    36   58   20 1    
    37   22   21 ar   
    38   24   23 1    
    39   25   24 ar   
    40   26   24 ar   
    41   27   24 1    
    42   28   27 1    
    43   29   28 1    
    44   59   28 1    
    45   60   28 1    
    46   30   29 1    
    47   31   29 1    
    48   61   29 1    
    49   35   30 1    
    50   32   31 1    
    51   33   31 1    
    52   62   31 1    
    53   72   32 1    
    54   34   33 1    
    55   35   33 1    
    56   63   33 1    
    57   73   34 1    
    58   36   35 1    
    59   64   35 1    
    60   37   36 ar   
    61   44   36 ar   
    62   38   37 ar   
    63   65   37 1    
    64   39   38 1    
    65   42   38 ar   
    66   40   39 2    
    67   41   39 am   
    68   66   41 1    
    69   67   41 1    
    70   43   42 ar   
    71   68   42 1    
    72   44   43 ar   
    73   69   43 1    
    74   70   44 1    
    75   46   45 ar   
    76   47   45 ar   
    77   48   45 ar   
@<TRIPOS>SUBSTRUCTURE
     1 NAP2001     1 GROUP   
@<TRIPOS>SET

