#    Name: 3mdy_LDN_2_INTS_M
#    Modification time : Mon Mar 24 23:04:01 2014

@<TRIPOS>MOLECULE
3mdy_LDN_2_INTS_M
   58     0     6     0     0
SMALL
NO_CHARGES


@<TRIPOS>ATOM
      1 CA         18.1315    4.9945   10.6370 C.3       2 GLC5        0.0000 
      2 CA         19.2430    5.9660   12.2290 C.3       6 GLL5        0.0000 
      3 CA         17.0200    4.0230    9.0450 C.3       4 GLP5        0.0000 
      4 CA         23.9230    5.3225   16.2270 C.3       2 GLC5        0.0000 
      5 CA         23.7640    6.0630   14.1790 C.3       6 GLL5        0.0000 
      6 CA         24.0820    4.5820   18.2750 C.3       4 GLP5        0.0000 
      7 CA         25.7425    5.8310   13.7770 C.3       2 GLC5        0.0000 
      8 CA         27.7210    5.5990   13.3750 C.3       4 GLP5        0.0000 
      9 CA         25.7605    7.1870   13.2010 C.3       2 GLC5        0.0000 
     10 CA         23.5980    7.3400   13.6410 C.3       6 GLL5        0.0000 
     11 CA         27.9230    7.0340   12.7610 C.3       4 GLP5        0.0000 
     12 CA         14.0190   15.1500   10.6385 C.3       2 GLC5        0.0000 
     13 CA         14.5450   16.4430   12.3080 C.3       6 GLL5        0.0000 
     14 CA         13.4930   13.8570    8.9690 C.3       4 GLP5        0.0000 
     15 N          23.5245   12.2240   10.7180 N.am      1 SEC2        0.0000 
     16 N          22.8030   10.9930   11.5230 N.am      5 SEL2        0.0000 
     17 N          24.2460   13.4550    9.9130 N.am      3 SEP2        0.0000 
     18 CA         19.0015   13.3610   14.5280 C.3       2 GLC5        0.0000 
     19 CA         18.6420   13.2610   12.4440 C.3       6 GLL5        0.0000 
     20 CA         19.3610   13.4610   16.6120 C.3       4 GLP5        0.0000 
     21 CA         21.3760   11.1870   14.0860 C.3       2 GLC5        0.0000 
     22 CA         21.2610    9.9060   12.6480 C.3       6 GLL5        0.0000 
     23 CA         21.4910   12.4680   15.5240 C.3       4 GLP5        0.0000 
     24 CA         21.4365    9.3360   14.6170 C.3       2 GLC5        0.0000 
     25 CA         21.6120    8.7660   16.5860 C.3       4 GLP5        0.0000 
     26 CA         20.5710    9.7375   10.9230 C.3       2 GLC5        0.0000 
     27 CA         19.8810    9.5690    9.1980 C.3       4 GLP5        0.0000 
     28 CA         20.6702    4.7635   11.1905 C.3       2 GLC5        0.0000 
     29 CA         21.9930    4.1870    9.8640 C.3       4 GLP5        0.0000 
     30 CA         19.8400    2.7563   12.6777 C.3       2 GLC5        0.0000 
     31 CA         19.4520    4.7140   12.8050 C.3       6 GLL5        0.0000 
     32 CA         19.6230    0.9200   12.2260 C.3       4 GLP5        0.0000 
     33 CA         22.6465    7.7338   15.2480 C.3       2 GLC5        0.0000 
     34 CA         24.3135    6.3647   12.3255 C.3       2 GLC5        0.0000 
     35 CA         24.9460    6.0280   10.7410 C.3       4 GLP5        0.0000 
     36 CA         20.7910    5.7992   15.2527 C.3       2 GLC5        0.0000 
     37 CA         21.6640    5.4460   13.4950 C.3       6 GLL5        0.0000 
     38 CA         20.4190    6.6400   17.0310 C.3       4 GLP5        0.0000 
     39 CA         21.5780    4.5728   11.6693 C.3       2 GLC5        0.0000 
     40 CA         21.4108    5.5075   11.2417 C.3       2 GLC5        0.0000 
     41 CA         21.4420    6.7110   12.9320 C.3       6 GLL5        0.0000 
     42 CA         20.8100   12.3083   13.8920 C.3       2 GLC5        0.0000 
     43 CA         20.7500   12.1720   11.9610 C.3       6 GLL5        0.0000 
     44 CA         19.0910   12.8242   10.7050 C.3       2 GLC5        0.0000 
     45 CA         19.5080   12.1250   12.5590 C.3       6 GLL5        0.0000 
     46 CA         18.0530   13.5000    9.1500 C.3       4 GLP5        0.0000 
     47 CA         20.0050   10.8588   10.7290 C.3       2 GLC5        0.0000 
     48 CA         23.6715    7.2052   11.7475 C.3       2 GLC5        0.0000 
     49 CA         22.4390    7.7190   13.0130 C.3       6 GLL5        0.0000 
     50 CA         21.8425    7.9533   10.7705 C.3       2 GLC5        0.0000 
     51 CA         21.2880    7.5240    8.7870 C.3       4 GLP5        0.0000 
     52 CA         23.9769    9.3874   13.8070 C.3       2 GLC5        0.0000 
     53 CA         22.3550    9.0460   12.4950 C.3       6 GLL5        0.0000 
     54 CA         25.2670   10.4870   14.7030 C.3       4 GLP5        0.0000 
     55 CA         23.2495    6.0533   11.9772 C.3       2 GLC5        0.0000 
     56 CA         21.7658    8.1564   14.7145 C.3       2 GLC5        0.0000 
     57 CA         20.9367    7.0536   10.6935 C.3       2 GLC5        0.0000 
     58 CA         17.8919   13.9239   10.7386 C.3       2 GLC5        0.0000 
@<TRIPOS>BOND
@<TRIPOS>SUBSTRUCTURE
     1 SEC2       15 GROUP        1 X    SEC  0     ROOT SEC X 2
     2 GLC5        1 GROUP        1 X    GLC  0     **** GLC X 6
     3 SEP2       17 GROUP        1 Y    SEP  0     ROOT SEP Y 9
     4 GLP5        3 GROUP        1 Y    GLP  0     **** GLP Y 13
     5 SEL2       16 GROUP        1 Z    SEL  0     ROOT SEL Z 16
     6 GLL5        2 GROUP        1 Z    GLL  0     **** GLL Z 20
@<TRIPOS>SET

