#    Name: 3mdy_LDN_2_ligand
#    Modification time : Mon Mar 24 23:04:01 2014

@<TRIPOS>MOLECULE
3mdy_LDN_2_ligand
   52    57     1     0     0
SMALL
NO_CHARGES


@<TRIPOS>ATOM
      1 CAA        19.4520    4.7140   12.8050 C.ar      1 LDN1        0.0000 
      2 CAB        19.2430    5.9660   12.2290 C.ar      1 LDN1        0.0000 
      3 CAC        23.7640    6.0630   14.1790 C.ar      1 LDN1        0.0000 
      4 CAD        23.5980    7.3400   13.6410 C.ar      1 LDN1        0.0000 
      5 CAE        17.2460   13.1080   12.5920 C.ar      1 LDN1        0.0000 
      6 CAF        19.1030   14.5400   12.1610 C.ar      1 LDN1        0.0000 
      7 CAG        16.3390   14.1540   12.4790 C.ar      1 LDN1        0.0000 
      8 CAH        18.2020   15.5990   12.0350 C.ar      1 LDN1        0.0000 
      9 CAI        20.6620    4.4710   13.4540 C.ar      1 LDN1        0.0000 
     10 CAJ        20.2150    6.9450   12.3070 C.ar      1 LDN1        0.0000 
     11 CAK        19.1590   10.9060   13.1980 C.2       1 LDN1        0.0000 
     12 CAL        23.2810    9.7640   11.8030 C.2       1 LDN1        0.0000 
     13 CAM        20.7500   12.1720   11.9610 C.2       1 LDN1        0.0000 
     14 CAN        15.4460   18.4920   10.6200 C.3       1 LDN1        0.0000 
     15 CAO        13.9600   17.8490   12.5650 C.3       1 LDN1        0.0000 
     16 CAP        16.5260   17.6640   11.2990 C.3       1 LDN1        0.0000 
     17 CAQ        14.5450   16.4430   12.3080 C.3       1 LDN1        0.0000 
     18 NAR        22.8450    5.1370   14.1050 N.ar      1 LDN1        0.0000 
     19 NAS        20.0150    9.8450   13.2410 N.2       1 LDN1        0.0000 
     20 NAT        22.8030   10.9930   11.5230 N.2       1 LDN1        0.0000 
     21 NAU        14.2920   18.7780   11.4870 N.4       1 LDN1        0.0000 
     22 CAV        18.6420   13.2610   12.4440 C.ar      1 LDN1        0.0000 
     23 CAW        19.5080   12.1250   12.5590 C.2       1 LDN1        0.0000 
     24 CAX        16.8360   15.4300   12.2310 C.ar      1 LDN1        0.0000 
     25 CAY        22.4390    7.7190   13.0130 C.ar      1 LDN1        0.0000 
     26 CAZ        22.3550    9.0460   12.4950 C.2       1 LDN1        0.0000 
     27 CBA        21.6640    5.4460   13.4950 C.ar      1 LDN1        0.0000 
     28 CBB        21.4420    6.7110   12.9320 C.ar      1 LDN1        0.0000 
     29 CBC        21.2610    9.9060   12.6480 C.2       1 LDN1        0.0000 
     30 NBD        15.9770   16.5200   12.0260 N.3       1 LDN1        0.0000 
     31 NBE        21.6580   11.1070   11.9990 N.pl3     1 LDN1        0.0000 
     32 H          18.7367    3.9923   12.7531 H         1 LDN1        0.0000 
     33 H          18.3531    6.1581   11.7414 H         1 LDN1        0.0000 
     34 H          24.6904    5.8724   14.6619 H         1 LDN1        0.0000 
     35 H          24.3863    8.0204   13.7244 H         1 LDN1        0.0000 
     36 H          16.8816   12.1436   12.7994 H         1 LDN1        0.0000 
     37 H          20.1108   14.7110   12.0433 H         1 LDN1        0.0000 
     38 H          15.3409   13.9933   12.5745 H         1 LDN1        0.0000 
     39 H          18.5662   16.5422   11.7868 H         1 LDN1        0.0000 
     40 H          20.8224    3.5590   13.9113 H         1 LDN1        0.0000 
     41 H          20.0347    7.8816   11.8919 H         1 LDN1        0.0000 
     42 H          18.2179   10.8442   13.6390 H         1 LDN1        0.0000 
     43 H          24.1618    9.4309   11.5495 H         1 LDN1        0.0000 
     44 H          21.0363   13.0445   11.4507 H         1 LDN1        0.0000 
     45 H          15.1161   17.9520    9.7109 H         1 LDN1        0.0000 
     46 H          15.9039   19.4377   10.2695 H         1 LDN1        0.0000 
     47 H          14.3546   18.2043   13.5267 H         1 LDN1        0.0000 
     48 H          12.8718   17.7434   12.6729 H         1 LDN1        0.0000 
     49 H          17.0874   18.3239   11.9829 H         1 LDN1        0.0000 
     50 H          17.2381   17.3260   10.5263 H         1 LDN1        0.0000 
     51 H          14.0005   16.0027   11.4665 H         1 LDN1        0.0000 
     52 H          14.3501   15.8322   13.1953 H         1 LDN1        0.0000 
@<TRIPOS>BOND
     1    2    1 ar   
     2    9    1 ar   
     3   32    1 1    
     4   10    2 ar   
     5   33    2 1    
     6    4    3 ar   
     7   18    3 ar   
     8   34    3 1    
     9   25    4 ar   
    10   35    4 1    
    11    7    5 ar   
    12   22    5 ar   
    13   36    5 1    
    14    8    6 ar   
    15   22    6 ar   
    16   37    6 1    
    17   24    7 ar   
    18   38    7 1    
    19   24    8 ar   
    20   39    8 1    
    21   27    9 ar   
    22   40    9 1    
    23   28   10 ar   
    24   41   10 1    
    25   19   11 2    
    26   23   11 1    
    27   42   11 1    
    28   20   12 2    
    29   26   12 1    
    30   43   12 1    
    31   23   13 2    
    32   31   13 1    
    33   44   13 1    
    34   16   14 1    
    35   21   14 1    
    36   45   14 1    
    37   46   14 1    
    38   17   15 1    
    39   21   15 1    
    40   47   15 1    
    41   48   15 1    
    42   30   16 1    
    43   49   16 1    
    44   50   16 1    
    45   30   17 1    
    46   51   17 1    
    47   52   17 1    
    48   27   18 ar   
    49   29   19 1    
    50   31   20 1    
    51   23   22 1    
    52   30   24 1    
    53   26   25 1    
    54   28   25 ar   
    55   29   26 2    
    56   28   27 ar   
    57   31   29 1    
@<TRIPOS>SUBSTRUCTURE
     1 LDN1        1 GROUP   
@<TRIPOS>SET

