#    Name: 2hw1_ANP_1_INTS_M
#    Modification time : Tue Mar 25 17:07:34 2014

@<TRIPOS>MOLECULE
2hw1_ANP_1_INTS_M
   51     0     9     0     0
SMALL
NO_CHARGES


@<TRIPOS>ATOM
      1 NZ         29.3310   14.9015  -45.3515 N.4       2 LYC4        0.0000 
      2 NZ         29.1340   16.1200  -46.1990 N.4       8 LYL4        0.0000 
      3 NZ         28.6730   12.6820  -44.3650 N.4       5 LYP4        0.0000 
      4 N          29.3310   14.9015  -45.3515 N.am      1 SEC2        0.0000 
      5 N          29.1340   16.1200  -46.1990 N.am      7 SEL2        0.0000 
      6 N          29.5280   13.6830  -44.5040 N.am      4 SEP2        0.0000 
      7 NZ         27.3140   13.7625  -46.0560 N.4       2 LYC4        0.0000 
      8 NZ         27.0990   14.8490  -47.0750 N.4       8 LYL4        0.0000 
      9 N          27.3140   13.7625  -46.0560 N.am      1 SEC2        0.0000 
     10 N          27.0990   14.8490  -47.0750 N.am      7 SEL2        0.0000 
     11 N          27.5290   12.6760  -45.0370 N.am      4 SEP2        0.0000 
     12 N          25.9455   14.9400  -47.8190 N.am      1 SEC2        0.0000 
     13 N          24.7920   15.0310  -48.5630 N.am      4 SEP2        0.0000 
     14 N          26.3035   18.3045  -46.8570 N.am      1 SEC2        0.0000 
     15 N          27.3980   17.3860  -47.6930 N.am      7 SEL2        0.0000 
     16 N          25.2090   19.2230  -46.0210 N.am      4 SEP2        0.0000 
     17 N          26.8090   18.9190  -47.9840 N.am      1 SEC2        0.0000 
     18 N          26.2200   20.4520  -48.2750 N.am      4 SEP2        0.0000 
     19 NZ         28.6110   14.3980  -43.8440 N.4       2 LYC4        0.0000 
     20 NZ         28.5490   16.1140  -43.3230 N.4       8 LYL4        0.0000 
     21 N          26.5625   19.9050  -39.1340 N.am      1 SEC2        0.0000 
     22 N          27.2720   19.3960  -40.5100 N.am      7 SEL2        0.0000 
     23 N          25.8530   20.4140  -37.7580 N.am      4 SEP2        0.0000 
     24 CA         25.5205   20.7860  -44.1995 C.3       3 GLC5        0.0000 
     25 CA         24.9210   21.2120  -42.5360 C.3       9 GLL5        0.0000 
     26 CA         26.1200   20.3600  -45.8630 C.3       6 GLP5        0.0000 
     27 CA         22.0270   21.7605  -43.2120 C.3       3 GLC5        0.0000 
     28 CA         23.6000   21.6990  -41.9570 C.3       9 GLL5        0.0000 
     29 CA         20.4540   21.8220  -44.4670 C.3       6 GLP5        0.0000 
     30 CA         20.7650   21.6980  -38.3615 C.3       3 GLC5        0.0000 
     31 CA         22.1590   21.5760  -40.1030 C.3       9 GLL5        0.0000 
     32 CA         19.3710   21.8200  -36.6200 C.3       6 GLP5        0.0000 
     33 CA         21.0640   21.2230  -42.8385 C.3       3 GLC5        0.0000 
     34 CA         21.6740   20.6240  -41.2100 C.3       9 GLL5        0.0000 
     35 CA         21.1240   16.5230  -36.8315 C.3       3 GLC5        0.0000 
     36 CA         20.3360   16.6120  -38.8030 C.3       9 GLL5        0.0000 
     37 CA         21.9120   16.4340  -34.8600 C.3       6 GLP5        0.0000 
     38 CA         19.0725   20.0760  -37.6620 C.3       3 GLC5        0.0000 
     39 CA         18.7740   18.3320  -38.7040 C.3       9 GLL5        0.0000 
     40 CA         17.0195   18.5270  -38.5815 C.3       3 GLC5        0.0000 
     41 CA         15.2650   18.7220  -38.4590 C.3       6 GLP5        0.0000 
     42 CA         24.0947   22.6587  -43.6797 C.3       3 GLC5        0.0000 
     43 CA         23.9290   23.8620  -45.1130 C.3       6 GLP5        0.0000 
     44 CA         25.4894   22.7836  -41.1401 C.3       3 GLC5        0.0000 
     45 CA         27.0380   23.9690  -40.9440 C.3       6 GLP5        0.0000 
     46 CA         23.8595   20.5207  -39.0292 C.3       3 GLC5        0.0000 
     47 CA         23.6210   21.7410  -40.4260 C.3       9 GLL5        0.0000 
     48 CA         24.8290   19.3830  -37.7940 C.3       6 GLP5        0.0000 
     49 CA         20.2715   17.3013  -41.5530 C.3       3 GLC5        0.0000 
     50 CA         20.7160   18.7040  -39.8920 C.3       9 GLL5        0.0000 
     51 CA         19.6110   16.5380  -43.3720 C.3       6 GLP5        0.0000 
@<TRIPOS>BOND
@<TRIPOS>SUBSTRUCTURE
     1 SEC2        4 GROUP        1 X    SEC  0     ROOT SEC X 2
     2 LYC4        1 GROUP        1 X    LYC  0     **** LYC X 4
     3 GLC5       24 GROUP        1 X    GLC  0     **** GLC X 6
     4 SEP2        6 GROUP        1 Y    SEP  0     ROOT SEP Y 9
     5 LYP4        3 GROUP        1 Y    LYP  0     **** LYP Y 11
     6 GLP5       26 GROUP        1 Y    GLP  0     **** GLP Y 13
     7 SEL2        5 GROUP        1 Z    SEL  0     ROOT SEL Z 16
     8 LYL4        2 GROUP        1 Z    LYL  0     **** LYL Z 18
     9 GLL5       25 GROUP        1 Z    GLL  0     **** GLL Z 20
@<TRIPOS>SET

