#    Name: 2hw1_ANP_1_ligand
#    Modification time : Tue Mar 25 17:07:35 2014

@<TRIPOS>MOLECULE
2hw1_ANP_1_ligand
   43    45     1     0     0
SMALL
NO_CHARGES


@<TRIPOS>ATOM
      1 PG         27.5330   16.1870  -46.5730 P.3       1 ANP301      0.0000 
      2 O1G        29.1340   16.1200  -46.1990 O.co2     1 ANP301      0.0000 
      3 O2G        27.0990   14.8490  -47.0750 O.co2     1 ANP301      0.0000 
      4 O3G        27.3980   17.3860  -47.6930 O.co2     1 ANP301      0.0000 
      5 PB         27.6720   17.3440  -43.9580 P.3       1 ANP301      0.0000 
      6 O1B        28.5490   16.1140  -43.3230 O.co2     1 ANP301      0.0000 
      7 O2B        28.7990   18.4300  -44.5160 O.co2     1 ANP301      0.0000 
      8 N3B        26.7340   16.7650  -45.2270 N.4       1 ANP301      0.0000 
      9 PA         26.8640   19.5050  -41.9420 P.3       1 ANP301      0.0000 
     10 O1A        27.2720   19.3960  -40.5100 O.co2     1 ANP301      0.0000 
     11 O2A        27.6010   20.4580  -42.8190 O.co2     1 ANP301      0.0000 
     12 O3A        26.7410   17.9890  -42.6910 O.3       1 ANP301      0.0000 
     13 O5'        25.3000   19.9530  -41.9640 O.3       1 ANP301      0.0000 
     14 C5'        24.9210   21.2120  -42.5360 C.3       1 ANP301      0.0000 
     15 C4'        23.6000   21.6990  -41.9570 C.3       1 ANP301      0.0000 
     16 O4'        22.6760   20.6560  -42.2800 O.3       1 ANP301      0.0000 
     17 C3'        23.6210   21.7410  -40.4260 C.3       1 ANP301      0.0000 
     18 O3'        24.0180   23.0240  -39.9490 O.3       1 ANP301      0.0000 
     19 C2'        22.1590   21.5760  -40.1030 C.3       1 ANP301      0.0000 
     20 O2'        21.5420   22.8600  -40.2160 O.3       1 ANP301      0.0000 
     21 C1'        21.6740   20.6240  -41.2100 C.3       1 ANP301      0.0000 
     22 N9         21.6710   19.2570  -40.6400 N.pl3     1 ANP301      0.0000 
     23 C8         22.6580   18.3660  -40.7820 C.2       1 ANP301      0.0000 
     24 N7         22.3380   17.2490  -40.1340 N.2       1 ANP301      0.0000 
     25 C5         21.1480   17.4250  -39.5760 C.ar      1 ANP301      0.0000 
     26 C6         20.3360   16.6120  -38.8030 C.ar      1 ANP301      0.0000 
     27 N6         20.7340   15.3780  -38.4910 N.pl3     1 ANP301      0.0000 
     28 N1         19.1540   17.1010  -38.3830 N.ar      1 ANP301      0.0000 
     29 C2         18.7740   18.3320  -38.7040 C.ar      1 ANP301      0.0000 
     30 N3         19.5240   19.1310  -39.4450 N.ar      1 ANP301      0.0000 
     31 C4         20.7160   18.7040  -39.8920 C.ar      1 ANP301      0.0000 
     32 H          24.8039   21.1380  -43.6284 H         1 ANP301      0.0000 
     33 H          25.6801   21.9860  -42.3426 H         1 ANP301      0.0000 
     34 H          23.3253   22.6078  -42.3545 H         1 ANP301      0.0000 
     35 H          24.1528   20.9407  -40.0579 H         1 ANP301      0.0000 
     36 H          22.0546   21.1174  -39.1793 H         1 ANP301      0.0000 
     37 H          20.7346   20.9111  -41.5360 H         1 ANP301      0.0000 
     38 H          23.4831   18.5156  -41.2837 H         1 ANP301      0.0000 
     39 H          20.0983   14.8365  -37.9409 H         1 ANP301      0.0000 
     40 H          21.6324   15.1052  -38.8352 H         1 ANP301      0.0000 
     41 H          17.8334   18.6862  -38.3521 H         1 ANP301      0.0000 
     42 H          23.1670   23.4742  -39.6787 H         1 ANP301      0.0000 
     43 H          21.3540   22.9717  -41.1918 H         1 ANP301      0.0000 
@<TRIPOS>BOND
     1    2    1 ar   
     2    3    1 ar   
     3    4    1 ar   
     4    8    1 1    
     5    6    5 ar   
     6    7    5 ar   
     7    8    5 1    
     8   12    5 1    
     9   10    9 ar   
    10   11    9 ar   
    11   12    9 1    
    12   13    9 1    
    13   14   13 1    
    14   15   14 1    
    15   32   14 1    
    16   33   14 1    
    17   16   15 1    
    18   17   15 1    
    19   34   15 1    
    20   21   16 1    
    21   18   17 1    
    22   19   17 1    
    23   35   17 1    
    24   42   18 1    
    25   20   19 1    
    26   21   19 1    
    27   36   19 1    
    28   43   20 1    
    29   22   21 1    
    30   37   21 1    
    31   23   22 1    
    32   31   22 1    
    33   24   23 2    
    34   38   23 1    
    35   25   24 1    
    36   26   25 ar   
    37   31   25 ar   
    38   27   26 1    
    39   28   26 ar   
    40   39   27 1    
    41   40   27 1    
    42   29   28 ar   
    43   30   29 ar   
    44   41   29 1    
    45   31   30 ar   
@<TRIPOS>SUBSTRUCTURE
     1 ANP301      1 GROUP   
@<TRIPOS>SET

