#    Name: 3zsx_N44_1_INTS_M
#    Modification time : Tue Mar 25 03:57:14 2014

@<TRIPOS>MOLECULE
3zsx_N44_1_INTS_M
   69     0     9     0     0
SMALL
NO_CHARGES


@<TRIPOS>ATOM
      1 CA         -8.8240   43.2580   -2.6630 C.3       3 GLC5        0.0000 
      2 CA         -8.4790   43.5210   -0.4930 C.3       9 GLL5        0.0000 
      3 CA         -9.1690   42.9950   -4.8330 C.3       6 GLP5        0.0000 
      4 CA         -8.4825   44.9980   -2.1400 C.3       3 GLC5        0.0000 
      5 CA         -8.4860   46.4750   -3.7870 C.3       6 GLP5        0.0000 
      6 CA        -13.4495   48.2245    5.1315 C.3       3 GLC5        0.0000 
      7 CA        -11.4430   48.8430    5.3080 C.3       9 GLL5        0.0000 
      8 CA        -15.4560   47.6060    4.9550 C.3       6 GLP5        0.0000 
      9 CA        -13.4370   48.8805    3.9440 C.3       3 GLC5        0.0000 
     10 CA        -11.3160   49.0260    3.9420 C.3       9 GLL5        0.0000 
     11 CA        -15.5580   48.7350    3.9460 C.3       6 GLP5        0.0000 
     12 CA        -11.6940   46.8360   -3.0090 C.3       3 GLC5        0.0000 
     13 CA        -11.4150   45.4100   -1.4350 C.3       9 GLL5        0.0000 
     14 CA        -11.9730   48.2620   -4.5830 C.3       6 GLP5        0.0000 
     15 CA        -10.6965   43.9195   -3.6225 C.3       3 GLC5        0.0000 
     16 CA        -12.2240   44.8440   -2.4120 C.3       9 GLL5        0.0000 
     17 CA        -13.1495   43.7050    0.9800 C.3       3 GLC5        0.0000 
     18 CA        -13.2840   45.6280    0.1090 C.3       9 GLL5        0.0000 
     19 CA        -13.0150   41.7820    1.8510 C.3       6 GLP5        0.0000 
     20 CA        -13.8105   42.9445   -3.2360 C.3       3 GLC5        0.0000 
     21 CA        -13.5540   44.6850   -2.0970 C.3       9 GLL5        0.0000 
     22 CA        -14.0670   41.2040   -4.3750 C.3       6 GLP5        0.0000 
     23 CA        -14.3195   43.5070    0.5790 C.3       3 GLC5        0.0000 
     24 CA        -14.0720   45.0580   -0.8820 C.3       9 GLL5        0.0000 
     25 CA        -14.5670   41.9560    2.0400 C.3       6 GLP5        0.0000 
     26 CA        -17.4520   43.4315   -2.2790 C.3       3 GLC5        0.0000 
     27 CA        -15.6780   44.2290   -2.1100 C.3       9 GLL5        0.0000 
     28 CA        -19.2260   42.6340   -2.4480 C.3       6 GLP5        0.0000 
     29 CA        -15.4445   42.2305   -2.2090 C.3       3 GLC5        0.0000 
     30 CA        -15.2110   40.2320   -2.3080 C.3       6 GLP5        0.0000 
     31 O          -9.0640   44.8770    4.3100 O.2       1 ALC1        0.0000 
     32 O          -8.1140   45.4850    3.4500 O.2       7 ALL1        0.0000 
     33 O         -10.0140   44.2690    5.1700 O.2       4 ALP1        0.0000 
     34 N         -15.8175   45.6290    2.8185 N.am      2 SEC2        0.0000 
     35 N         -14.8250   45.3120    1.8660 N.am      8 SEL2        0.0000 
     36 N         -16.8100   45.9460    3.7710 N.am      5 SEP2        0.0000 
     37 N         -16.1245   46.1745    1.1840 N.am      2 SEC2        0.0000 
     38 N         -17.4240   47.0370    0.5020 N.am      5 SEP2        0.0000 
     39 N         -14.9585   43.9735    1.3805 N.am      2 SEC2        0.0000 
     40 N         -15.0920   42.6350    0.8950 N.am      5 SEP2        0.0000 
     41 N         -13.8105   46.8855    3.4315 N.am      2 SEC2        0.0000 
     42 N         -13.3620   46.9690    2.1130 N.am      8 SEL2        0.0000 
     43 N         -14.2590   46.8020    4.7500 N.am      5 SEP2        0.0000 
     44 N         -16.4330   45.9195   -0.1545 N.am      2 SEC2        0.0000 
     45 N         -15.4420   44.8020   -0.8110 N.am      8 SEL2        0.0000 
     46 CA         -9.9430   45.9017    6.5673 C.3       3 GLC5        0.0000 
     47 CA         -9.5690   47.3550    5.2370 C.3       9 GLL5        0.0000 
     48 CA         -9.8210   44.1230    7.5430 C.3       6 GLP5        0.0000 
     49 CA        -11.8855   46.6822    5.4405 C.3       3 GLC5        0.0000 
     50 CA        -10.5610   48.0060    5.9460 C.3       9 GLL5        0.0000 
     51 CA        -12.7690   44.9400    5.2540 C.3       6 GLP5        0.0000 
     52 CA         -6.7162   40.6028    1.7105 C.3       3 GLC5        0.0000 
     53 CA         -7.8310   42.5170    1.9820 C.3       9 GLL5        0.0000 
     54 CA         -5.3340   39.1030    1.9180 C.3       6 GLP5        0.0000 
     55 CA         -7.1579   41.6955   -1.0528 C.3       3 GLC5        0.0000 
     56 CA         -5.8100   40.6610   -2.0610 C.3       6 GLP5        0.0000 
     57 CA        -11.1372   46.1917    4.9037 C.3       3 GLC5        0.0000 
     58 CA         -9.4420   47.5320    3.8700 C.3       9 GLL5        0.0000 
     59 CA        -10.1528   45.8010   -2.8552 C.3       3 GLC5        0.0000 
     60 CA        -12.7865   46.0162   -3.8628 C.3       3 GLC5        0.0000 
     61 CA        -12.6840   47.2680   -5.4710 C.3       6 GLP5        0.0000 
     62 CA         -8.8344   41.8081    2.7960 C.3       3 GLC5        0.0000 
     63 CA         -7.6250   43.8540    1.7210 C.3       9 GLL5        0.0000 
     64 CA         -9.8070   40.6380    3.9800 C.3       6 GLP5        0.0000 
     65 CA         -6.0554   44.2910    0.0648 C.3       3 GLC5        0.0000 
     66 CA         -4.1910   44.6870   -0.7260 C.3       6 GLP5        0.0000 
     67 CA         -9.2973   47.8605   -2.6087 C.3       3 GLC5        0.0000 
     68 CA        -10.4420   48.6770   -1.3170 C.3       9 GLL5        0.0000 
     69 CA        -11.4049   48.5935   -2.7341 C.3       3 GLC5        0.0000 
@<TRIPOS>BOND
@<TRIPOS>SUBSTRUCTURE
     1 ALC1       31 GROUP        1 X    ALC  0     ROOT ALC X 1
     2 SEC2       34 GROUP        1 X    SEC  0     **** SEC X 2
     3 GLC5        1 GROUP        1 X    GLC  0     **** GLC X 6
     4 ALP1       33 GROUP        1 Y    ALP  0     ROOT ALP Y 8
     5 SEP2       36 GROUP        1 Y    SEP  0     **** SEP Y 9
     6 GLP5        3 GROUP        1 Y    GLP  0     **** GLP Y 13
     7 ALL1       32 GROUP        1 Z    ALL  0     ROOT ALL Z 15
     8 SEL2       35 GROUP        1 Z    SEL  0     **** SEL Z 16
     9 GLL5        2 GROUP        1 Z    GLL  0     **** GLL Z 20
@<TRIPOS>SET

