#    Name: 3zsx_N44_1_ligand
#    Modification time : Tue Mar 25 03:57:14 2014

@<TRIPOS>MOLECULE
3zsx_N44_1_ligand
   58    61     1     0     0
SMALL
NO_CHARGES


@<TRIPOS>ATOM
      1 C1         -8.6990   42.1900   -0.2160 C.ar      1 N441215     0.0000 
      2 C2        -10.5610   48.0060    5.9460 C.ar      1 N441215     0.0000 
      3 C3         -8.3660   41.6880    1.0240 C.ar      1 N441215     0.0000 
      4 C4         -8.4790   43.5210   -0.4930 C.ar      1 N441215     0.0000 
      5 C5        -11.4430   48.8430    5.3080 C.ar      1 N441215     0.0000 
      6 C6         -9.5690   47.3550    5.2370 C.ar      1 N441215     0.0000 
      7 C7         -7.8310   42.5170    1.9820 C.ar      1 N441215     0.0000 
      8 C8         -7.9500   44.3510    0.4730 C.ar      1 N441215     0.0000 
      9 C9        -11.3160   49.0260    3.9420 C.ar      1 N441215     0.0000 
     10 C10       -11.4150   45.4100   -1.4350 C.ar      1 N441215     0.0000 
     11 C11       -12.2240   44.8440   -2.4120 C.ar      1 N441215     0.0000 
     12 C12        -9.4420   47.5320    3.8700 C.ar      1 N441215     0.0000 
     13 C13       -13.2840   45.6280    0.1090 C.ar      1 N441215     0.0000 
     14 C14        -7.6250   43.8540    1.7210 C.ar      1 N441215     0.0000 
     15 C15       -10.3280   48.3820    3.2220 C.ar      1 N441215     0.0000 
     16 C16       -11.9300   45.7920   -0.1960 C.ar      1 N441215     0.0000 
     17 C17       -13.5540   44.6850   -2.0970 C.ar      1 N441215     0.0000 
     18 C18       -14.0720   45.0580   -0.8820 C.ar      1 N441215     0.0000 
     19 C19        -9.7750   49.8150   -1.5440 C.2       1 N441215     0.0000 
     20 C20       -10.4420   48.6770   -1.3170 C.2       1 N441215     0.0000 
     21 C21        -8.3530   46.8170    3.1400 C.2       1 N441215     0.0000 
     22 C22       -13.8630   46.0140    1.4470 C.2       1 N441215     0.0000 
     23 C23       -15.6780   44.2290   -2.1100 C.3       1 N441215     0.0000 
     24 C24        -7.0610   44.7550    2.7740 C.3       1 N441215     0.0000 
     25 C25       -10.2600   48.6390    1.7570 C.3       1 N441215     0.0000 
     26 C26       -10.9790   46.4010    0.7950 C.3       1 N441215     0.0000 
     27 C27       -11.5650   48.6040   -0.3400 C.3       1 N441215     0.0000 
     28 N28        -8.1140   45.4850    3.4500 N.am      1 N441215     0.0000 
     29 N29       -11.2360   47.8790    0.9330 N.4       1 N441215     0.0000 
     30 O30       -14.8250   45.3120    1.8660 O.co2     1 N441215     0.0000 
     31 O31        -7.7010   47.4220    2.3030 O.2       1 N441215     0.0000 
     32 O32       -13.3620   46.9690    2.1130 O.co2     1 N441215     0.0000 
     33 O33       -14.4970   44.1510   -2.9400 O.3       1 N441215     0.0000 
     34 O34       -15.4420   44.8020   -0.8110 O.3       1 N441215     0.0000 
     35 H          -9.1099   41.5727   -0.9307 H         1 N441215     0.0000 
     36 H         -10.6365   47.8582    6.9697 H         1 N441215     0.0000 
     37 H          -8.5191   40.6876    1.2324 H         1 N441215     0.0000 
     38 H          -8.7105   43.8994   -1.4263 H         1 N441215     0.0000 
     39 H         -12.1814   49.3243    5.8278 H         1 N441215     0.0000 
     40 H          -8.9118   46.7265    5.7341 H         1 N441215     0.0000 
     41 H          -7.5792   42.1321    2.9127 H         1 N441215     0.0000 
     42 H          -7.7950   45.3521    0.2635 H         1 N441215     0.0000 
     43 H         -11.9764   49.6597    3.4496 H         1 N441215     0.0000 
     44 H         -10.4055   45.5529   -1.6283 H         1 N441215     0.0000 
     45 H         -11.8494   44.5656   -3.3055 H         1 N441215     0.0000 
     46 H         -10.2209   47.7880   -1.8009 H         1 N441215     0.0000 
     47 H         -16.1205   43.2054   -1.9954 H         1 N441215     0.0000 
     48 H         -16.4692   44.8175   -2.6432 H         1 N441215     0.0000 
     49 H          -6.3490   45.4500    2.3006 H         1 N441215     0.0000 
     50 H          -6.4888   44.1454    3.4916 H         1 N441215     0.0000 
     51 H          -9.2265   48.4159    1.3968 H         1 N441215     0.0000 
     52 H         -10.4001   49.7318    1.5732 H         1 N441215     0.0000 
     53 H          -9.9510   46.2410    0.4615 H         1 N441215     0.0000 
     54 H         -11.1049   45.9185    1.7670 H         1 N441215     0.0000 
     55 H         -12.4376   48.1098   -0.8196 H         1 N441215     0.0000 
     56 H         -11.9021   49.6334   -0.0903 H         1 N441215     0.0000 
     57 H          -8.6682   44.9939    4.1536 H         1 N441215     0.0000 
     58 H         -12.2367   47.9444    1.5499 H         1 N441215     0.0000 
@<TRIPOS>BOND
     1    3    1 ar   
     2    4    1 ar   
     3   35    1 1    
     4    5    2 ar   
     5    6    2 ar   
     6   36    2 1    
     7    7    3 ar   
     8   37    3 1    
     9    8    4 ar   
    10   38    4 1    
    11    9    5 ar   
    12   39    5 1    
    13   12    6 ar   
    14   40    6 1    
    15   14    7 ar   
    16   41    7 1    
    17   14    8 ar   
    18   42    8 1    
    19   15    9 ar   
    20   43    9 1    
    21   11   10 ar   
    22   16   10 ar   
    23   44   10 1    
    24   17   11 ar   
    25   45   11 1    
    26   15   12 ar   
    27   21   12 1    
    28   16   13 ar   
    29   18   13 ar   
    30   22   13 1    
    31   24   14 1    
    32   25   15 1    
    33   26   16 1    
    34   18   17 ar   
    35   33   17 1    
    36   34   18 1    
    37   20   19 2    
    38   27   20 1    
    39   46   20 1    
    40   28   21 am   
    41   31   21 2    
    42   30   22 ar   
    43   32   22 ar   
    44   33   23 1    
    45   34   23 1    
    46   47   23 1    
    47   48   23 1    
    48   28   24 1    
    49   49   24 1    
    50   50   24 1    
    51   29   25 1    
    52   51   25 1    
    53   52   25 1    
    54   29   26 1    
    55   53   26 1    
    56   54   26 1    
    57   29   27 1    
    58   55   27 1    
    59   56   27 1    
    60   57   28 1    
    61   58   29 1    
@<TRIPOS>SUBSTRUCTURE
     1 N441215     1 GROUP   
@<TRIPOS>SET

