#    Name: 2r6y_LLC_1_INTS_M
#    Modification time : Mon Mar 24 23:18:14 2014

@<TRIPOS>MOLECULE
2r6y_LLC_1_INTS_M
   84     0    12     0     0
SMALL
NO_CHARGES


@<TRIPOS>ATOM
      1 CA         14.7225    1.2995   25.7110 C.3       4 GLC5        0.0000 
      2 CA         14.2680   -0.4430   26.7780 C.3      12 GLL5        0.0000 
      3 CA         15.1770    3.0420   24.6440 C.3       8 GLP5        0.0000 
      4 CA         14.0645   -5.8505   25.3745 C.3       4 GLC5        0.0000 
      5 CA         12.3540   -5.2150   24.4220 C.3      12 GLL5        0.0000 
      6 CA         15.7750   -6.4860   26.3270 C.3       8 GLP5        0.0000 
      7 OD1        10.7705   -6.9200   18.3650 O.co2     3 ASC3        0.0000 
      8 OD1        11.8240   -6.0700   18.1060 O.co2    11 ASL3        0.0000 
      9 OD1         9.7170   -7.7700   18.6240 O.co2     7 ASP3        0.0000 
     10 O          10.7705   -6.9200   18.3650 O.2       1 ALC1        0.0000 
     11 O          11.8240   -6.0700   18.1060 O.2       9 ALL1        0.0000 
     12 O           9.7170   -7.7700   18.6240 O.2       5 ALP1        0.0000 
     13 CA          8.4360   -4.5520   15.9165 C.3       4 GLC5        0.0000 
     14 CA         10.3840   -4.5120   16.8640 C.3      12 GLL5        0.0000 
     15 CA          6.4880   -4.5920   14.9690 C.3       8 GLP5        0.0000 
     16 CA          6.1005   -6.0220   26.7805 C.3       4 GLC5        0.0000 
     17 CA          6.7840   -4.2440   25.8530 C.3      12 GLL5        0.0000 
     18 CA          5.4170   -7.8000   27.7080 C.3       8 GLP5        0.0000 
     19 CA          6.8640   -3.2380   23.9790 C.3       4 GLC5        0.0000 
     20 CA          6.9440   -2.2320   22.1050 C.3       8 GLP5        0.0000 
     21 N           3.6960   -3.3065   27.2810 N.am      2 SEC2        0.0000 
     22 N           4.6500   -3.1750   26.1640 N.am     10 SEL2        0.0000 
     23 N           2.7420   -3.4380   28.3980 N.am      6 SEP2        0.0000 
     24 O           4.3460   -4.1390   25.4280 O.2       1 ALC1        0.0000 
     25 O           4.6500   -3.1750   26.1640 O.2       9 ALL1        0.0000 
     26 O           4.0420   -5.1030   24.6920 O.2       5 ALP1        0.0000 
     27 CA          5.6435   -0.9805   28.1385 C.3       4 GLC5        0.0000 
     28 CA          6.6170   -1.9870   26.7010 C.3      12 GLL5        0.0000 
     29 CA          4.6700    0.0260   29.5760 C.3       8 GLP5        0.0000 
     30 CA          8.7820    1.2075   26.7365 C.3       4 GLC5        0.0000 
     31 CA          9.1040   -0.6720   27.3110 C.3      12 GLL5        0.0000 
     32 CA          8.4600    3.0870   26.1620 C.3       8 GLP5        0.0000 
     33 N          16.7330   -0.1675   27.9705 N.am      2 SEC2        0.0000 
     34 N          15.6340    0.5200   28.5000 N.am     10 SEL2        0.0000 
     35 N          17.8320   -0.8550   27.4410 N.am      6 SEP2        0.0000 
     36 CA         11.6107    1.1978   27.1543 C.3       4 GLC5        0.0000 
     37 CA         12.1520   -0.5100   28.6560 C.3      12 GLL5        0.0000 
     38 CA         11.1620    3.1460   26.3090 C.3       8 GLP5        0.0000 
     39 CA         13.8247   -1.7845   29.2092 C.3       4 GLC5        0.0000 
     40 CA         14.8820   -3.3120   29.5810 C.3       8 GLP5        0.0000 
     41 CA         11.4942    0.9470   29.7777 C.3       4 GLC5        0.0000 
     42 CA         13.3830   -0.0040   29.0190 C.3      12 GLL5        0.0000 
     43 CA         10.2210    2.1510   30.7180 C.3       8 GLP5        0.0000 
     44 CA         13.8345    1.8680   28.9483 C.3       4 GLC5        0.0000 
     45 CA         13.7600    3.7240   29.3470 C.3       8 GLP5        0.0000 
     46 CA         14.6167   -1.7597   28.5050 C.3       4 GLC5        0.0000 
     47 CA         14.4350    0.0280   28.0800 C.3      12 GLL5        0.0000 
     48 CA         14.5303   -1.9095   24.9815 C.3       4 GLC5        0.0000 
     49 CA         15.4120   -3.1220   23.3710 C.3       8 GLP5        0.0000 
     50 CA          7.9048   -4.9685   24.1627 C.3       4 GLC5        0.0000 
     51 CA          8.1750   -4.2560   25.9620 C.3      12 GLL5        0.0000 
     52 CA          8.3300   -5.6870   22.4180 C.3       8 GLP5        0.0000 
     53 CA         11.6492   -6.1325   26.0615 C.3       4 GLC5        0.0000 
     54 CA         11.5270   -4.1330   24.8220 C.3      12 GLL5        0.0000 
     55 CA         11.3580   -7.5910   27.5010 C.3       8 GLP5        0.0000 
     56 CA          9.7750   -4.7138   23.3775 C.3       4 GLC5        0.0000 
     57 CA         10.5120   -1.3965   23.1460 C.3       4 GLC5        0.0000 
     58 CA         10.9130   -3.3480   23.8520 C.3      12 GLL5        0.0000 
     59 CA         10.0310    0.6740   23.1140 C.3       8 GLP5        0.0000 
     60 CA          8.9685   -2.8495   22.6415 C.3       4 GLC5        0.0000 
     61 CA         12.8658   -7.7215   20.4230 C.3       4 GLC5        0.0000 
     62 CA         12.7740   -6.0140   20.4290 C.3      12 GLL5        0.0000 
     63 CA         12.8140   -9.4840   21.1750 C.3       8 GLP5        0.0000 
     64 CA         10.1570   -5.2372   22.5521 C.3       4 GLC5        0.0000 
     65 CA         12.4960   -5.4500   23.0670 C.3      12 GLL5        0.0000 
     66 CA         13.8151   -4.0920   23.6077 C.3       4 GLC5        0.0000 
     67 CA         11.7585   -6.9841   23.0754 C.3       4 GLC5        0.0000 
     68 CA         11.3690   -8.9700   23.2250 C.3       8 GLP5        0.0000 
     69 CA         12.7965   -2.7147   22.3392 C.3       4 GLC5        0.0000 
     70 CA         11.8710   -4.6640   22.1070 C.3      12 GLL5        0.0000 
     71 CA         14.1610   -1.3640   22.0360 C.3       8 GLP5        0.0000 
     72 CA         10.8535   -2.9972   18.3833 C.3       4 GLC5        0.0000 
     73 CA         10.9500   -4.8990   18.2650 C.3      12 GLL5        0.0000 
     74 CA         11.0400   -1.2890   19.2020 C.3       8 GLP5        0.0000 
     75 CA         10.2835   -3.6018   14.8582 C.3       4 GLC5        0.0000 
     76 CA          9.8750   -2.1670   13.3370 C.3       8 GLP5        0.0000 
     77 CA          6.4969   -1.3539   25.0200 C.3       4 GLC5        0.0000 
     78 CA          6.0080   -3.1600   26.2430 C.3      12 GLL5        0.0000 
     79 CA          5.8470   -0.4440   23.4160 C.3       8 GLP5        0.0000 
     80 CA          7.7633   -0.7890   28.7677 C.3       4 GLC5        0.0000 
     81 CA          7.9810   -1.9540   26.7760 C.3      12 GLL5        0.0000 
     82 CA          6.9840   -0.2650   30.4920 C.3       8 GLP5        0.0000 
     83 CA         13.6900   -2.1415   28.2278 C.3       4 GLC5        0.0000 
     84 CA         11.9670   -0.9910   27.3430 C.3      12 GLL5        0.0000 
@<TRIPOS>BOND
@<TRIPOS>SUBSTRUCTURE
     1 ALC1       10 GROUP        1 X    ALC  0     ROOT ALC X 1
     2 SEC2       21 GROUP        1 X    SEC  0     **** SEC X 2
     3 ASC3        7 GROUP        1 X    ASC  0     **** ASC X 3
     4 GLC5        1 GROUP        1 X    GLC  0     **** GLC X 6
     5 ALP1       12 GROUP        1 Y    ALP  0     ROOT ALP Y 8
     6 SEP2       23 GROUP        1 Y    SEP  0     **** SEP Y 9
     7 ASP3        9 GROUP        1 Y    ASP  0     **** ASP Y 10
     8 GLP5        3 GROUP        1 Y    GLP  0     **** GLP Y 13
     9 ALL1       11 GROUP        1 Z    ALL  0     ROOT ALL Z 15
    10 SEL2       22 GROUP        1 Z    SEL  0     **** SEL Z 16
    11 ASL3        8 GROUP        1 Z    ASL  0     **** ASL Z 17
    12 GLL5        2 GROUP        1 Z    GLL  0     **** GLL Z 20
@<TRIPOS>SET

