#    Name: 2r6y_LLC_1_ligand
#    Modification time : Mon Mar 24 23:18:14 2014

@<TRIPOS>MOLECULE
2r6y_LLC_1_ligand
   59    63     1     0     0
SMALL
NO_CHARGES


@<TRIPOS>ATOM
      1 C4         12.1520   -0.5100   28.6560 C.ar      1 LLC1        0.0000 
      2 C5         13.3830   -0.0040   29.0190 C.ar      1 LLC1        0.0000 
      3 C6         14.4350    0.0280   28.0800 C.ar      1 LLC1        0.0000 
      4 C8         14.2680   -0.4430   26.7780 C.ar      1 LLC1        0.0000 
      5 C13         8.1750   -4.2560   25.9620 C.ar      1 LLC1        0.0000 
      6 C15         6.0080   -3.1600   26.2430 C.ar      1 LLC1        0.0000 
      7 C20        11.5270   -4.1330   24.8220 C.ar      1 LLC1        0.0000 
      8 C21        10.9130   -3.3480   23.8520 C.ar      1 LLC1        0.0000 
      9 C22        11.0730   -3.5860   22.5040 C.ar      1 LLC1        0.0000 
     10 C26        13.0610   -5.9040   18.9130 C.3       1 LLC1        0.0000 
     11 C28        12.2090   -6.1380   16.6850 C.3       1 LLC1        0.0000 
     12 O19        12.0270   -4.2520   27.1140 O.2       1 LLC1        0.0000 
     13 C18        11.3070   -3.7800   26.2460 C.2       1 LLC1        0.0000 
     14 C33        12.3540   -5.2150   24.4220 C.ar      1 LLC1        0.0000 
     15 C32        12.4960   -5.4500   23.0670 C.ar      1 LLC1        0.0000 
     16 C23        11.8710   -4.6640   22.1070 C.ar      1 LLC1        0.0000 
     17 O24        11.9720   -4.8700   20.7670 O.3       1 LLC1        0.0000 
     18 C25        12.7740   -6.0140   20.4290 C.3       1 LLC1        0.0000 
     19 N27        11.8240   -6.0700   18.1060 N.4       1 LLC1        0.0000 
     20 C31        10.9500   -4.8990   18.2650 C.3       1 LLC1        0.0000 
     21 C30        10.3840   -4.5120   16.8640 C.3       1 LLC1        0.0000 
     22 C29        11.0000   -5.5610   15.8950 C.3       1 LLC1        0.0000 
     23 C1         10.2560   -2.7790   26.5780 C.2       1 LLC1        0.0000 
     24 C12         8.8230   -3.0590   26.4270 C.ar      1 LLC1        0.0000 
     25 C14         6.7840   -4.2440   25.8530 C.ar      1 LLC1        0.0000 
     26 O17         4.6500   -3.1750   26.1640 O.3       1 LLC1        0.0000 
     27 C16         6.6170   -1.9870   26.7010 C.ar      1 LLC1        0.0000 
     28 C11         7.9810   -1.9540   26.7760 C.ar      1 LLC1        0.0000 
     29 S10         9.1040   -0.6720   27.3110 S.3       1 LLC1        0.0000 
     30 C2         10.6250   -1.5300   27.0440 C.2       1 LLC1        0.0000 
     31 C3         11.9670   -0.9910   27.3430 C.ar      1 LLC1        0.0000 
     32 C9         13.0290   -0.9510   26.4060 C.ar      1 LLC1        0.0000 
     33 O7         15.6340    0.5200   28.5000 O.3       1 LLC1        0.0000 
     34 H          11.3761   -0.5420   29.3187 H         1 LLC1        0.0000 
     35 H          13.5470    0.3519   29.9675 H         1 LLC1        0.0000 
     36 H          15.0402   -0.4143   26.1144 H         1 LLC1        0.0000 
     37 H           8.7240   -5.0641   25.7283 H         1 LLC1        0.0000 
     38 H          10.3103   -2.5510   24.1615 H         1 LLC1        0.0000 
     39 H          10.6245   -2.9960   21.8054 H         1 LLC1        0.0000 
     40 H          13.7957   -6.6725   18.6501 H         1 LLC1        0.0000 
     41 H          13.5133   -4.9247   18.7234 H         1 LLC1        0.0000 
     42 H          12.3626   -7.1495   16.3683 H         1 LLC1        0.0000 
     43 H          13.0640   -5.5261   16.4806 H         1 LLC1        0.0000 
     44 H          12.8153   -5.7835   25.1166 H         1 LLC1        0.0000 
     45 H          13.0948   -6.2474   22.7504 H         1 LLC1        0.0000 
     46 H          13.7215   -6.0143   20.9440 H         1 LLC1        0.0000 
     47 H          12.2521   -6.9423   20.5984 H         1 LLC1        0.0000 
     48 H          11.3158   -6.9583   18.3866 H         1 LLC1        0.0000 
     49 H          11.4969   -4.0469   18.6473 H         1 LLC1        0.0000 
     50 H          10.1102   -5.1178   18.9117 H         1 LLC1        0.0000 
     51 H          10.7239   -3.5469   16.6030 H         1 LLC1        0.0000 
     52 H           9.3328   -4.6114   16.8710 H         1 LLC1        0.0000 
     53 H          10.2988   -6.3280   15.7138 H         1 LLC1        0.0000 
     54 H          11.3466   -5.0761   15.0247 H         1 LLC1        0.0000 
     55 H           6.3071   -5.0898   25.4600 H         1 LLC1        0.0000 
     56 H           6.0457   -1.1869   26.9679 H         1 LLC1        0.0000 
     57 H          12.8712   -1.3001   25.4555 H         1 LLC1        0.0000 
     58 H           4.4476   -3.5477   25.2584 H         1 LLC1        0.0000 
     59 H          16.2114    1.0974   29.0774 H         1 LLC1        0.0000 
@<TRIPOS>BOND
     1    2    1 ar   
     2   31    1 ar   
     3   34    1 1    
     4    3    2 ar   
     5   35    2 1    
     6    4    3 ar   
     7   33    3 1    
     8   32    4 ar   
     9   36    4 1    
    10   24    5 ar   
    11   25    5 ar   
    12   37    5 1    
    13   25    6 ar   
    14   26    6 1    
    15   27    6 ar   
    16    8    7 ar   
    17   13    7 1    
    18   14    7 ar   
    19    9    8 ar   
    20   38    8 1    
    21   16    9 ar   
    22   39    9 1    
    23   18   10 1    
    24   19   10 1    
    25   40   10 1    
    26   41   10 1    
    27   19   11 1    
    28   22   11 1    
    29   42   11 1    
    30   43   11 1    
    31   13   12 2    
    32   23   13 1    
    33   15   14 ar   
    34   44   14 1    
    35   16   15 ar   
    36   45   15 1    
    37   17   16 1    
    38   18   17 1    
    39   46   18 1    
    40   47   18 1    
    41   20   19 1    
    42   48   19 1    
    43   21   20 1    
    44   49   20 1    
    45   50   20 1    
    46   22   21 1    
    47   51   21 1    
    48   52   21 1    
    49   53   22 1    
    50   54   22 1    
    51   24   23 1    
    52   30   23 2    
    53   28   24 ar   
    54   55   25 1    
    55   58   26 1    
    56   28   27 ar   
    57   56   27 1    
    58   29   28 1    
    59   30   29 1    
    60   31   30 1    
    61   32   31 ar   
    62   57   32 1    
    63   59   33 1    
@<TRIPOS>SUBSTRUCTURE
     1 LLC1        1 GROUP   
@<TRIPOS>SET

