#    Name: 2hyd_ADP_1_INTS_M
#    Modification time : Tue Mar 25 17:11:03 2014

@<TRIPOS>MOLECULE
2hyd_ADP_1_INTS_M
   43     0     9     0     0
SMALL
NO_CHARGES


@<TRIPOS>ATOM
      1 N          95.2905   56.3330  170.3685 N.am      1 SEC2        0.0000 
      2 N          96.6730   56.7870  171.2060 N.am      7 SEL2        0.0000 
      3 N          93.9080   55.8790  169.5310 N.am      4 SEP2        0.0000 
      4 N          96.1365   57.5455  170.1655 N.am      1 SEC2        0.0000 
      5 N          95.6000   58.3040  169.1250 N.am      4 SEP2        0.0000 
      6 NZ         94.5980   55.9195  174.2335 N.4       2 LYC4        0.0000 
      7 NZ         94.9930   55.4940  172.5340 N.4       8 LYL4        0.0000 
      8 NZ         94.2030   56.3450  175.9330 N.4       5 LYP4        0.0000 
      9 N          95.2255   53.7780  172.4775 N.am      1 SEC2        0.0000 
     10 N          94.9930   55.4940  172.5340 N.am      7 SEL2        0.0000 
     11 N          95.4580   52.0620  172.4210 N.am      4 SEP2        0.0000 
     12 N          94.4505   55.6865  171.0325 N.am      1 SEC2        0.0000 
     13 N          98.1705   55.0345  174.1840 N.am      1 SEC2        0.0000 
     14 N          97.4040   55.5990  173.3140 N.am      7 SEL2        0.0000 
     15 N          98.9370   54.4700  175.0540 N.am      4 SEP2        0.0000 
     16 N          97.3525   54.0400  173.9755 N.am      1 SEC2        0.0000 
     17 N          97.3010   52.4810  174.6370 N.am      4 SEP2        0.0000 
     18 CA         99.7920   53.1345  172.2180 C.3       3 GLC5        0.0000 
     19 CA        100.0570   52.9310  170.0740 C.3       9 GLL5        0.0000 
     20 CA         99.5270   53.3380  174.3620 C.3       6 GLP5        0.0000 
     21 CA        100.5505   54.7265  171.2485 C.3       3 GLC5        0.0000 
     22 CA        101.0440   56.5220  172.4230 C.3       6 GLP5        0.0000 
     23 CA        100.3080   50.0525  168.6735 C.3       3 GLC5        0.0000 
     24 CA        100.6860   51.6300  169.6840 C.3       9 GLL5        0.0000 
     25 CA         99.9300   48.4750  167.6630 C.3       6 GLP5        0.0000 
     26 CA        103.6475   53.6095  168.8070 C.3       3 GLC5        0.0000 
     27 CA        102.8240   51.5560  168.5090 C.3       9 GLL5        0.0000 
     28 CA        104.4710   55.6630  169.1050 C.3       6 GLP5        0.0000 
     29 CA        100.4725   50.8140  166.2925 C.3       3 GLC5        0.0000 
     30 CA        101.6480   51.3280  167.5530 C.3       9 GLL5        0.0000 
     31 CA         99.2970   50.3000  165.0320 C.3       6 GLP5        0.0000 
     32 CA        103.0050   55.7180  162.9930 C.3       3 GLC5        0.0000 
     33 CA        102.6290   53.6080  163.3880 C.3       9 GLL5        0.0000 
     34 CA        103.3810   57.8280  162.5980 C.3       6 GLP5        0.0000 
     35 CA        102.4725   49.8735  163.0970 C.3       3 GLC5        0.0000 
     36 CA        103.5380   51.4440  163.5900 C.3       9 GLL5        0.0000 
     37 CA        101.4070   48.3030  162.6040 C.3       6 GLP5        0.0000 
     38 CA        104.9845   52.4935  163.5855 C.3       3 GLC5        0.0000 
     39 CA        106.4310   53.5430  163.5810 C.3       6 GLP5        0.0000 
     40 CA        101.0830   49.9585  167.8470 C.3       3 GLC5        0.0000 
     41 CA        103.7733   53.7818  165.1106 C.3       3 GLC5        0.0000 
     42 CA        102.0610   53.4720  164.6790 C.3       9 GLL5        0.0000 
     43 CA        105.2290   54.6690  165.5240 C.3       6 GLP5        0.0000 
@<TRIPOS>BOND
@<TRIPOS>SUBSTRUCTURE
     1 SEC2        1 GROUP        1 X    SEC  0     ROOT SEC X 2
     2 LYC4        6 GROUP        1 X    LYC  0     **** LYC X 4
     3 GLC5       18 GROUP        1 X    GLC  0     **** GLC X 6
     4 SEP2        3 GROUP        1 Y    SEP  0     ROOT SEP Y 9
     5 LYP4        8 GROUP        1 Y    LYP  0     **** LYP Y 11
     6 GLP5       20 GROUP        1 Y    GLP  0     **** GLP Y 13
     7 SEL2        2 GROUP        1 Z    SEL  0     ROOT SEL Z 16
     8 LYL4        7 GROUP        1 Z    LYL  0     **** LYL Z 18
     9 GLL5       19 GROUP        1 Z    GLL  0     **** GLL Z 20
@<TRIPOS>SET

