#    Name: 2hyd_ADP_1_ligand
#    Modification time : Tue Mar 25 17:11:03 2014

@<TRIPOS>MOLECULE
2hyd_ADP_1_ligand
   39    41     1     0     0
SMALL
NO_CHARGES


@<TRIPOS>ATOM
      1 PB         96.4760   55.5690  172.0210 P.3       1 ADP700      0.0000 
      2 O1B        96.6730   56.7870  171.2060 O.co2     1 ADP700      0.0000 
      3 O2B        94.9930   55.4940  172.5340 O.co2     1 ADP700      0.0000 
      4 O3B        97.4040   55.5990  173.3140 O.co2     1 ADP700      0.0000 
      5 PA         98.2130   54.3120  170.6770 P.3       1 ADP700      0.0000 
      6 O1A        98.1940   55.2000  169.5000 O.co2     1 ADP700      0.0000 
      7 O2A        99.2140   54.9800  171.7460 O.co2     1 ADP700      0.0000 
      8 O3A        96.7160   54.2360  171.1440 O.3       1 ADP700      0.0000 
      9 O5'        98.6380   52.8470  170.0930 O.3       1 ADP700      0.0000 
     10 C5'       100.0570   52.9310  170.0740 C.3       1 ADP700      0.0000 
     11 C4'       100.6860   51.6300  169.6840 C.3       1 ADP700      0.0000 
     12 O4'       100.4000   51.3770  168.3070 O.3       1 ADP700      0.0000 
     13 C3'       102.1890   51.7670  169.8630 C.3       1 ADP700      0.0000 
     14 O3'       102.6310   50.8490  170.8430 O.3       1 ADP700      0.0000 
     15 C2'       102.8240   51.5560  168.5090 C.3       1 ADP700      0.0000 
     16 O2'       103.7650   50.4550  168.5100 O.3       1 ADP700      0.0000 
     17 C1'       101.6480   51.3280  167.5530 C.3       1 ADP700      0.0000 
     18 N9        101.6700   52.3590  166.5350 N.pl3     1 ADP700      0.0000 
     19 C8        101.0800   53.5890  166.5740 C.2       1 ADP700      0.0000 
     20 N7        101.3130   54.2420  165.4800 N.2       1 ADP700      0.0000 
     21 C5        102.0610   53.4720  164.6790 C.ar      1 ADP700      0.0000 
     22 C6        102.6290   53.6080  163.3880 C.ar      1 ADP700      0.0000 
     23 N6        102.4480   54.7600  162.6530 N.pl3     1 ADP700      0.0000 
     24 N1        103.3520   52.5830  162.8900 N.ar      1 ADP700      0.0000 
     25 C2        103.5380   51.4440  163.5900 C.ar      1 ADP700      0.0000 
     26 N3        103.0240   51.2760  164.7960 N.ar      1 ADP700      0.0000 
     27 C4        102.2900   52.2490  165.3610 C.ar      1 ADP700      0.0000 
     28 H         100.4543   53.2231  171.0670 H         1 ADP700      0.0000 
     29 H         100.4027   53.7087  169.3636 H         1 ADP700      0.0000 
     30 H         100.3313   50.8578  170.3180 H         1 ADP700      0.0000 
     31 H         102.3746   52.7973  170.1638 H         1 ADP700      0.0000 
     32 H         103.2939   52.4877  168.2184 H         1 ADP700      0.0000 
     33 H         101.7777   50.3553  167.1075 H         1 ADP700      0.0000 
     34 H         100.5545   53.9025  167.3495 H         1 ADP700      0.0000 
     35 H         101.9377   55.4932  163.1026 H         1 ADP700      0.0000 
     36 H         102.8427   54.7623  161.7342 H         1 ADP700      0.0000 
     37 H         104.1131   50.6714  163.1504 H         1 ADP700      0.0000 
     38 H         103.2342   50.2189  170.3539 H         1 ADP700      0.0000 
     39 H         104.6406   50.8628  168.2512 H         1 ADP700      0.0000 
@<TRIPOS>BOND
     1    2    1 ar   
     2    3    1 ar   
     3    4    1 ar   
     4    8    1 1    
     5    6    5 ar   
     6    7    5 ar   
     7    8    5 1    
     8    9    5 1    
     9   10    9 1    
    10   11   10 1    
    11   28   10 1    
    12   29   10 1    
    13   12   11 1    
    14   13   11 1    
    15   30   11 1    
    16   17   12 1    
    17   14   13 1    
    18   15   13 1    
    19   31   13 1    
    20   38   14 1    
    21   16   15 1    
    22   17   15 1    
    23   32   15 1    
    24   39   16 1    
    25   18   17 1    
    26   33   17 1    
    27   19   18 1    
    28   27   18 1    
    29   20   19 2    
    30   34   19 1    
    31   21   20 1    
    32   22   21 ar   
    33   27   21 ar   
    34   23   22 1    
    35   24   22 ar   
    36   35   23 1    
    37   36   23 1    
    38   25   24 ar   
    39   26   25 ar   
    40   37   25 1    
    41   27   26 ar   
@<TRIPOS>SUBSTRUCTURE
     1 ADP700      1 GROUP   
@<TRIPOS>SET

