#    Name: 2obx_INI_9_INTS_M
#    Modification time : Tue Mar 25 22:17:02 2014

@<TRIPOS>MOLECULE
2obx_INI_9_INTS_M
   45     0     9     0     0
SMALL
NO_CHARGES


@<TRIPOS>ATOM
      1 N          48.3010  -13.8065   11.4370 N.am      2 SEC2        0.0000 
      2 N          48.0840  -12.7400   12.3550 N.am      8 SEL2        0.0000 
      3 N          48.5180  -14.8730   10.5190 N.am      5 SEP2        0.0000 
      4 O          46.4265  -11.6200   14.5000 O.2       1 ALC1        0.0000 
      5 O          46.1260  -11.6900   13.0860 O.2       7 ALL1        0.0000 
      6 O          46.7270  -11.5500   15.9140 O.2       4 ALP1        0.0000 
      7 N          43.5815  -10.8125   15.0670 N.am      2 SEC2        0.0000 
      8 N          44.2570  -10.6930   13.8330 N.am      8 SEL2        0.0000 
      9 N          42.9060  -10.9320   16.3010 N.am      5 SEP2        0.0000 
     10 CA         45.4230   -9.3040   11.4355 C.3       3 GLC5        0.0000 
     11 CA         44.5660  -10.7890   11.2900 C.3       9 GLL5        0.0000 
     12 CA         46.2800   -7.8190   11.5810 C.3       6 GLP5        0.0000 
     13 CA         46.4210   -9.7990   10.5275 C.3       3 GLC5        0.0000 
     14 CA         45.5450  -11.2780   10.2990 C.3       9 GLL5        0.0000 
     15 CA         47.2970   -8.3200   10.7560 C.3       6 GLP5        0.0000 
     16 CA         43.7730  -14.0345    9.1345 C.3       3 GLC5        0.0000 
     17 CA         44.7740  -12.2750    8.1890 C.3       9 GLL5        0.0000 
     18 CA         42.7720  -15.7940   10.0800 C.3       6 GLP5        0.0000 
     19 N          46.7650  -15.2450    8.7700 N.am      2 SEC2        0.0000 
     20 N          46.5470  -13.8200    8.5750 N.am      8 SEL2        0.0000 
     21 N          46.9830  -16.6700    8.9650 N.am      5 SEP2        0.0000 
     22 O          48.7430  -13.1540    6.1115 O.2       1 ALC1        0.0000 
     23 O          47.6920  -12.2180    6.6570 O.2       7 ALL1        0.0000 
     24 O          49.7940  -14.0900    5.5660 O.2       4 ALP1        0.0000 
     25 O          44.0565  -12.3130    3.7010 O.2       1 ALC1        0.0000 
     26 O          44.6700  -12.4750    5.0620 O.2       7 ALL1        0.0000 
     27 O          43.4430  -12.1510    2.3400 O.2       4 ALP1        0.0000 
     28 CA         46.6425  -13.8980    1.7680 C.3       3 GLC5        0.0000 
     29 CA         45.9800  -13.4390    3.4660 C.3       9 GLL5        0.0000 
     30 CA         47.3050  -14.3570    0.0700 C.3       6 GLP5        0.0000 
     31 CA         44.4985  -13.9215    2.5300 C.3       3 GLC5        0.0000 
     32 CA         43.0170  -14.4040    1.5940 C.3       6 GLP5        0.0000 
     33 CA         45.5230  -15.5125    4.0110 C.3       3 GLC5        0.0000 
     34 CA         45.0660  -17.5860    4.5560 C.3       6 GLP5        0.0000 
     35 N          45.7850  -14.4900    2.4140 N.am      2 SEC2        0.0000 
     36 N          47.1680  -14.1690    3.3380 N.am      8 SEL2        0.0000 
     37 N          44.4020  -14.8110    1.4900 N.am      5 SEP2        0.0000 
     38 O          47.7610  -14.8725    4.0920 O.2       1 ALC1        0.0000 
     39 O          47.1680  -14.1690    3.3380 O.2       7 ALL1        0.0000 
     40 O          48.3540  -15.5760    4.8460 O.2       4 ALP1        0.0000 
     41 CA         47.9537  -13.2637    8.0365 C.3       3 GLC5        0.0000 
     42 CA         46.7060  -13.1260    6.3000 C.3       9 GLL5        0.0000 
     43 CA         49.7100  -13.2650    9.1550 C.3       6 GLP5        0.0000 
     44 CA         45.9693  -14.9667    6.8730 C.3       3 GLC5        0.0000 
     45 CA         45.7410  -16.6710    6.8280 C.3       6 GLP5        0.0000 
@<TRIPOS>BOND
@<TRIPOS>SUBSTRUCTURE
     1 ALC1        4 GROUP        1 X    ALC  0     ROOT ALC X 1
     2 SEC2        1 GROUP        1 X    SEC  0     **** SEC X 2
     3 GLC5       10 GROUP        1 X    GLC  0     **** GLC X 6
     4 ALP1        6 GROUP        1 Y    ALP  0     ROOT ALP Y 8
     5 SEP2        3 GROUP        1 Y    SEP  0     **** SEP Y 9
     6 GLP5       12 GROUP        1 Y    GLP  0     **** GLP Y 13
     7 ALL1        5 GROUP        1 Z    ALL  0     ROOT ALL Z 15
     8 SEL2        2 GROUP        1 Z    SEL  0     **** SEL Z 16
     9 GLL5       11 GROUP        1 Z    GLL  0     **** GLL Z 20
@<TRIPOS>SET

