#    Name: 2obx_INI_9_ligand
#    Modification time : Tue Mar 25 22:17:02 2014

@<TRIPOS>MOLECULE
2obx_INI_9_ligand
   35    35     1     0     0
SMALL
NO_CHARGES


@<TRIPOS>ATOM
      1 N1         46.6970  -11.9210   10.8010 N.am      1 INI209      0.0000 
      2 C2         47.0200  -12.1490   12.1430 C.2       1 INI209      0.0000 
      3 O2         48.0840  -12.7400   12.3550 O.2       1 INI209      0.0000 
      4 N3         46.1260  -11.6900   13.0860 N.am      1 INI209      0.0000 
      5 C4         44.9200  -11.0250   12.8060 C.2       1 INI209      0.0000 
      6 O4         44.2570  -10.6930   13.8330 O.2       1 INI209      0.0000 
      7 C5         44.5660  -10.7890   11.2900 C.2       1 INI209      0.0000 
      8 N5         43.3130  -10.1130   10.9850 N.pl3     1 INI209      0.0000 
      9 O51        42.5750   -9.7490   11.8410 O.2       1 INI209      0.0000 
     10 O52        43.0200   -9.9260    9.8350 O.2       1 INI209      0.0000 
     11 C6         45.5450  -11.2780   10.2990 C.2       1 INI209      0.0000 
     12 N7         45.4830  -11.1770    8.8810 N.pl3     1 INI209      0.0000 
     13 C8         44.7740  -12.2750    8.1890 C.3       1 INI209      0.0000 
     14 C9         45.6890  -13.3990    7.5360 C.3       1 INI209      0.0000 
     15 O9         46.5470  -13.8200    8.5750 O.3       1 INI209      0.0000 
     16 C10        46.7060  -13.1260    6.3000 C.3       1 INI209      0.0000 
     17 O10        47.6920  -12.2180    6.6570 O.3       1 INI209      0.0000 
     18 C11        46.1100  -12.5770    4.7900 C.3       1 INI209      0.0000 
     19 O11        44.6700  -12.4750    5.0620 O.3       1 INI209      0.0000 
     20 C12        45.9800  -13.4390    3.4660 C.3       1 INI209      0.0000 
     21 O12        47.1680  -14.1690    3.3380 O.3       1 INI209      0.0000 
     22 H          47.4003  -12.2723   10.0681 H         1 INI209      0.0000 
     23 H          46.3584  -11.8469   14.1141 H         1 INI209      0.0000 
     24 H          45.8752  -10.4401    8.3718 H         1 INI209      0.0000 
     25 H          44.1334  -11.8770    7.3720 H         1 INI209      0.0000 
     26 H          44.0823  -12.7977    8.8852 H         1 INI209      0.0000 
     27 H          45.0589  -14.2399    7.2527 H         1 INI209      0.0000 
     28 H          47.1776  -14.1030    6.0437 H         1 INI209      0.0000 
     29 H          46.4739  -11.6263    4.6045 H         1 INI209      0.0000 
     30 H          45.8152  -12.7325    2.6616 H         1 INI209      0.0000 
     31 H          45.1009  -14.0586    3.5951 H         1 INI209      0.0000 
     32 H          47.3859  -13.2906    8.4482 H         1 INI209      0.0000 
     33 H          48.5496  -12.6368    6.3586 H         1 INI209      0.0000 
     34 H          44.2414  -12.3991    4.1617 H         1 INI209      0.0000 
     35 H          47.0652  -14.9422    3.9638 H         1 INI209      0.0000 
@<TRIPOS>BOND
     1    2    1 1    
     2   11    1 1    
     3   22    1 1    
     4    3    2 2    
     5    4    2 1    
     6    5    4 1    
     7   23    4 1    
     8    6    5 2    
     9    7    5 1    
    10    8    7 1    
    11   11    7 2    
    12    9    8 2    
    13   10    8 2    
    14   12   11 1    
    15   13   12 1    
    16   24   12 1    
    17   14   13 1    
    18   25   13 1    
    19   26   13 1    
    20   15   14 1    
    21   16   14 1    
    22   27   14 1    
    23   32   15 1    
    24   17   16 1    
    25   18   16 1    
    26   28   16 1    
    27   33   17 1    
    28   19   18 1    
    29   20   18 1    
    30   29   18 1    
    31   34   19 1    
    32   21   20 1    
    33   30   20 1    
    34   31   20 1    
    35   35   21 1    
@<TRIPOS>SUBSTRUCTURE
     1 INI209      1 GROUP   
@<TRIPOS>SET

