#    Name: 1rkg_VD1_1_INTS_M
#    Modification time : Tue Mar 25 00:50:22 2014

@<TRIPOS>MOLECULE
1rkg_VD1_1_INTS_M
  104     0     9     0     0
SMALL
NO_CHARGES


@<TRIPOS>ATOM
      1 N          58.3105    8.7060    2.2020 N.am      2 SEC2        0.0000 
      2 N          58.9370    8.1280    1.0830 N.am      8 SEL2        0.0000 
      3 N          57.6840    9.2840    3.3210 N.am      5 SEP2        0.0000 
      4 O          58.4960    9.0630    0.0695 O.2       1 ALC1        0.0000 
      5 O          58.9370    8.1280    1.0830 O.2       7 ALL1        0.0000 
      6 O          58.0550    9.9980   -0.9440 O.2       4 ALP1        0.0000 
      7 CA         59.0880    8.4465    2.8905 C.3       3 GLC5        0.0000 
      8 CA         60.4370    8.0980    1.1750 C.3       9 GLL5        0.0000 
      9 CA         57.7390    8.7950    4.6060 C.3       6 GLP5        0.0000 
     10 CA         60.3965    9.6065    2.3940 C.3       3 GLC5        0.0000 
     11 CA         60.3560   11.1150    3.6130 C.3       6 GLP5        0.0000 
     12 CA         60.8575    9.0680    3.3750 C.3       3 GLC5        0.0000 
     13 CA         61.3590    7.0210    3.1370 C.3       9 GLL5        0.0000 
     14 CA         58.9665    4.4175    2.3400 C.3       3 GLC5        0.0000 
     15 CA         60.2640    5.5250    1.5640 C.3       9 GLL5        0.0000 
     16 CA         57.6690    3.3100    3.1160 C.3       6 GLP5        0.0000 
     17 CA         58.4110    5.7395    0.6960 C.3       3 GLC5        0.0000 
     18 CA         56.5580    5.9540   -0.1720 C.3       6 GLP5        0.0000 
     19 N          60.5700    4.2665    3.7430 N.am      2 SEC2        0.0000 
     20 N          60.7810    4.4000    2.3180 N.am      8 SEL2        0.0000 
     21 N          60.3590    4.1330    5.1680 N.am      5 SEP2        0.0000 
     22 O          61.9995    3.9295    2.2825 O.2       1 ALC1        0.0000 
     23 O          60.7810    4.4000    2.3180 O.2       7 ALL1        0.0000 
     24 O          63.2180    3.4590    2.2470 O.2       4 ALP1        0.0000 
     25 CA         62.5580    8.6950    0.8410 C.3       3 GLC5        0.0000 
     26 CA         60.9390    7.9940   -0.2290 C.3       9 GLL5        0.0000 
     27 CA         64.1770    9.3960    1.9110 C.3       6 GLP5        0.0000 
     28 CA         62.8620    5.9465    0.3140 C.3       3 GLC5        0.0000 
     29 CA         60.8570    5.4180    0.1380 C.3       9 GLL5        0.0000 
     30 CA         64.8670    6.4750    0.4900 C.3       6 GLP5        0.0000 
     31 CA         60.6895    3.3755   -0.2600 C.3       3 GLC5        0.0000 
     32 CA         60.5220    1.3330   -0.6580 C.3       6 GLP5        0.0000 
     33 CA         58.8900    6.1795   -5.0095 C.3       3 GLC5        0.0000 
     34 CA         60.4920    5.3120   -4.2960 C.3       9 GLL5        0.0000 
     35 CA         57.2880    7.0470   -5.7230 C.3       6 GLP5        0.0000 
     36 CA         59.5760    7.2940   -5.5515 C.3       3 GLC5        0.0000 
     37 CA         61.0010    6.4260   -5.1700 C.3       9 GLL5        0.0000 
     38 CA         58.1510    8.1620   -5.9330 C.3       6 GLP5        0.0000 
     39 CA         62.0680    8.3480   -4.7875 C.3       3 GLC5        0.0000 
     40 CA         63.1350   10.2700   -4.4050 C.3       6 GLP5        0.0000 
     41 CA         64.3105    6.3950   -5.6560 C.3       3 GLC5        0.0000 
     42 CA         62.3600    5.9990   -5.7330 C.3       9 GLL5        0.0000 
     43 CA         66.2610    6.7910   -5.5790 C.3       6 GLP5        0.0000 
     44 CA         63.4750    6.4180   -3.8800 C.3       3 GLC5        0.0000 
     45 CA         64.5900    6.8370   -2.0270 C.3       6 GLP5        0.0000 
     46 CA         62.5455    8.0805   -6.3125 C.3       3 GLC5        0.0000 
     47 CA         62.7310   10.1620   -6.8920 C.3       6 GLP5        0.0000 
     48 CA         64.2545    5.1690   -7.1915 C.3       3 GLC5        0.0000 
     49 CA         62.2970    4.6450   -6.4960 C.3       9 GLL5        0.0000 
     50 CA         66.2120    5.6930   -7.8870 C.3       6 GLP5        0.0000 
     51 CA         63.9625    2.1315   -3.7000 C.3       3 GLC5        0.0000 
     52 CA         62.8120    3.3200   -4.3680 C.3       9 GLL5        0.0000 
     53 CA         65.1130    0.9430   -3.0320 C.3       6 GLP5        0.0000 
     54 CA         58.6395    5.0415   -5.8485 C.3       3 GLC5        0.0000 
     55 CA         60.2880    3.9580   -4.9640 C.3       9 GLL5        0.0000 
     56 CA         56.9910    6.1250   -6.7330 C.3       6 GLP5        0.0000 
     57 CA         60.0935    2.0310   -2.5050 C.3       3 GLC5        0.0000 
     58 CA         59.6650    2.7290   -4.3520 C.3       9 GLL5        0.0000 
     59 CA         60.6865   -0.4715   -4.3920 C.3       3 GLC5        0.0000 
     60 CA         60.2690    1.5760   -5.2130 C.3       9 GLL5        0.0000 
     61 CA         61.1040   -2.5190   -3.5710 C.3       6 GLP5        0.0000 
     62 CA         63.8050    1.0800   -4.8065 C.3       3 GLC5        0.0000 
     63 CA         62.4970    1.2170   -6.5810 C.3       9 GLL5        0.0000 
     64 CA         63.1715   -0.1720   -8.8680 C.3       3 GLC5        0.0000 
     65 CA         61.7490    0.1650   -7.4320 C.3       9 GLL5        0.0000 
     66 CA         64.5940   -0.5090  -10.3040 C.3       6 GLP5        0.0000 
     67 CA         60.9820   -0.8555   -8.9575 C.3       3 GLC5        0.0000 
     68 CA         60.2150   -1.8760  -10.4830 C.3       6 GLP5        0.0000 
     69 CA         62.0235   -1.7935   -7.4090 C.3       3 GLC5        0.0000 
     70 CA         62.2980   -3.7520   -7.3860 C.3       6 GLP5        0.0000 
     71 CA         62.9630    2.9620   -8.9575 C.3       3 GLC5        0.0000 
     72 CA         63.6310    1.8910   -7.4060 C.3       9 GLL5        0.0000 
     73 CA         62.2950    4.0330  -10.5090 C.3       6 GLP5        0.0000 
     74 CA         66.3050    3.1540   -6.4850 C.3       3 GLC5        0.0000 
     75 CA         65.0260    1.6680   -6.8310 C.3       9 GLL5        0.0000 
     76 CA         67.5840    4.6400   -6.1390 C.3       6 GLP5        0.0000 
     77 CA         65.0695    1.3055   -4.9315 C.3       3 GLC5        0.0000 
     78 CA         66.4450    2.3800   -8.4235 C.3       3 GLC5        0.0000 
     79 CA         67.8640    3.0920  -10.0160 C.3       6 GLP5        0.0000 
     80 CA         59.2300    9.5875    0.1750 C.3       3 GLC5        0.0000 
     81 CA         57.7720   11.1290   -0.1230 C.3       6 GLP5        0.0000 
     82 CA         61.1165    9.7315    0.1020 C.3       3 GLC5        0.0000 
     83 CA         61.5450   11.4170   -0.2690 C.3       6 GLP5        0.0000 
     84 CA         62.9470    6.7100    1.5315 C.3       3 GLC5        0.0000 
     85 CA         62.5697    8.3241    2.1378 C.3       3 GLC5        0.0000 
     86 CA         59.2873    6.8395    3.4232 C.3       3 GLC5        0.0000 
     87 CA         60.6950    6.8690    2.0090 C.3       9 GLL5        0.0000 
     88 CA         57.9290    7.4440    4.7780 C.3       6 GLP5        0.0000 
     89 CA         59.0635    5.7132   -0.8628 C.3       3 GLC5        0.0000 
     90 CA         60.7530    6.6390   -0.8050 C.3       9 GLL5        0.0000 
     91 CA         57.3220    5.3980   -1.3920 C.3       6 GLP5        0.0000 
     92 CA         62.6280    6.9131   -1.6900 C.3       3 GLC5        0.0000 
     93 CA         60.4860    6.6620   -2.1890 C.3       9 GLL5        0.0000 
     94 CA         58.9115    7.1125   -3.1923 C.3       3 GLC5        0.0000 
     95 CA         60.2840    5.4180   -2.9840 C.3       9 GLL5        0.0000 
     96 CA         57.4380    8.1850   -3.7980 C.3       6 GLP5        0.0000 
     97 CA         58.8802    5.5370   -2.4166 C.3       3 GLC5        0.0000 
     98 CA         62.1827    5.8970   -7.9132 C.3       3 GLC5        0.0000 
     99 CA         62.0370    6.4720   -9.7120 C.3       6 GLP5        0.0000 
    100 CA         58.2985    0.9953   -4.5103 C.3       3 GLC5        0.0000 
    101 CA         56.6300   -0.1620   -4.2380 C.3       6 GLP5        0.0000 
    102 CA         64.4613    0.6352   -8.7112 C.3       3 GLC5        0.0000 
    103 CA         59.0516    2.5977   -6.7410 C.3       3 GLC5        0.0000 
    104 CA         57.7020    2.5850   -8.3150 C.3       6 GLP5        0.0000 
@<TRIPOS>BOND
@<TRIPOS>SUBSTRUCTURE
     1 ALC1        4 GROUP        1 X    ALC  0     ROOT ALC X 1
     2 SEC2        1 GROUP        1 X    SEC  0     **** SEC X 2
     3 GLC5        7 GROUP        1 X    GLC  0     **** GLC X 6
     4 ALP1        6 GROUP        1 Y    ALP  0     ROOT ALP Y 8
     5 SEP2        3 GROUP        1 Y    SEP  0     **** SEP Y 9
     6 GLP5        9 GROUP        1 Y    GLP  0     **** GLP Y 13
     7 ALL1        5 GROUP        1 Z    ALL  0     ROOT ALL Z 15
     8 SEL2        2 GROUP        1 Z    SEL  0     **** SEL Z 16
     9 GLL5        8 GROUP        1 Z    GLL  0     **** GLL Z 20
@<TRIPOS>SET

