#    Name: 1rkg_VD1_1_ligand
#    Modification time : Tue Mar 25 00:50:23 2014

@<TRIPOS>MOLECULE
1rkg_VD1_1_ligand
   59    61     1     0     0
SMALL
NO_CHARGES


@<TRIPOS>ATOM
      1 O2         58.9370    8.1280    1.0830 O.3       1 VD1500      0.0000 
      2 C3         60.4370    8.0980    1.1750 C.3       1 VD1500      0.0000 
      3 C2         60.6950    6.8690    2.0090 C.2       1 VD1500      0.0000 
      4 C28        61.3590    7.0210    3.1370 C.2       1 VD1500      0.0000 
      5 C1         60.2640    5.5250    1.5640 C.3       1 VD1500      0.0000 
      6 O1         60.7810    4.4000    2.3180 O.3       1 VD1500      0.0000 
      7 C4         60.9390    7.9940   -0.2290 C.3       1 VD1500      0.0000 
      8 C5         60.7530    6.6390   -0.8050 C.2       1 VD1500      0.0000 
      9 C10        60.8570    5.4180    0.1380 C.3       1 VD1500      0.0000 
     10 C6         60.4860    6.6620   -2.1890 C.2       1 VD1500      0.0000 
     11 C7         60.2840    5.4180   -2.9840 C.2       1 VD1500      0.0000 
     12 C8         60.4920    5.3120   -4.2960 C.2       1 VD1500      0.0000 
     13 C9         61.0010    6.4260   -5.1700 C.3       1 VD1500      0.0000 
     14 C11        62.3600    5.9990   -5.7330 C.3       1 VD1500      0.0000 
     15 C12        62.2970    4.6450   -6.4960 C.3       1 VD1500      0.0000 
     16 C13        61.7270    3.5660   -5.5560 C.3       1 VD1500      0.0000 
     17 C18        62.8120    3.3200   -4.3680 C.3       1 VD1500      0.0000 
     18 C14        60.2880    3.9580   -4.9640 C.3       1 VD1500      0.0000 
     19 C15        59.6650    2.7290   -4.3520 C.3       1 VD1500      0.0000 
     20 C17        61.3830    2.1790   -6.1390 C.3       1 VD1500      0.0000 
     21 C16        60.2690    1.5760   -5.2130 C.3       1 VD1500      0.0000 
     22 C20        62.4970    1.2170   -6.5810 C.3       1 VD1500      0.0000 
     23 C21        61.7490    0.1650   -7.4320 C.3       1 VD1500      0.0000 
     24 C22        63.6310    1.8910   -7.4060 C.3       1 VD1500      0.0000 
     25 C23        65.0260    1.6680   -6.8310 C.3       1 VD1500      0.0000 
     26 H          60.7678    8.9577    1.6581 H         1 VD1500      0.0000 
     27 H          59.2055    5.4907    1.4452 H         1 VD1500      0.0000 
     28 H          62.0112    8.2614   -0.2511 H         1 VD1500      0.0000 
     29 H          60.4156    8.7379   -0.8569 H         1 VD1500      0.0000 
     30 H          60.3822    4.5407   -0.3720 H         1 VD1500      0.0000 
     31 H          61.9379    5.1383    0.2301 H         1 VD1500      0.0000 
     32 H          60.4218    7.5513   -2.6982 H         1 VD1500      0.0000 
     33 H          59.9510    4.5946   -2.4091 H         1 VD1500      0.0000 
     34 H          61.1273    7.3262   -4.5892 H         1 VD1500      0.0000 
     35 H          60.3191    6.5981   -5.9879 H         1 VD1500      0.0000 
     36 H          63.0785    5.9021   -4.9141 H         1 VD1500      0.0000 
     37 H          62.7264    6.7671   -6.4200 H         1 VD1500      0.0000 
     38 H          63.2919    4.3686   -6.8008 H         1 VD1500      0.0000 
     39 H          61.6525    4.7551   -7.3513 H         1 VD1500      0.0000 
     40 H          59.7251    4.1750   -5.9507 H         1 VD1500      0.0000 
     41 H          58.6182    2.7345   -4.4801 H         1 VD1500      0.0000 
     42 H          59.9794    2.6058   -3.3529 H         1 VD1500      0.0000 
     43 H          60.7746    2.4366   -7.1046 H         1 VD1500      0.0000 
     44 H          59.5003    1.1504   -5.8247 H         1 VD1500      0.0000 
     45 H          60.7108    0.8454   -4.5670 H         1 VD1500      0.0000 
     46 H          62.8935    0.7258   -5.7270 H         1 VD1500      0.0000 
     47 H          63.4246    2.9691   -7.4578 H         1 VD1500      0.0000 
     48 H          63.5907    1.4979   -8.4314 H         1 VD1500      0.0000 
     49 H          63.6913    3.0070   -4.7270 H         1 VD1500      0.0000 
     50 H          62.9886    4.1554   -3.8474 H         1 VD1500      0.0000 
     51 H          62.4989    2.6292   -3.7163 H         1 VD1500      0.0000 
     52 H          62.3689   -0.5354   -7.7857 H         1 VD1500      0.0000 
     53 H          61.0441   -0.3075   -6.9030 H         1 VD1500      0.0000 
     54 H          61.2950    0.5799   -8.2205 H         1 VD1500      0.0000 
     55 H          65.7313    2.1094   -7.3857 H         1 VD1500      0.0000 
     56 H          65.1090    2.0355   -5.9047 H         1 VD1500      0.0000 
     57 H          65.2567    0.6962   -6.7825 H         1 VD1500      0.0000 
     58 H          58.7229    8.9929    0.6290 H         1 VD1500      0.0000 
     59 H          61.7428    4.3311    2.0531 H         1 VD1500      0.0000 
@<TRIPOS>BOND
     1    2    1 1    
     2   58    1 1    
     3    3    2 1    
     4    7    2 1    
     5   26    2 1    
     6    4    3 2    
     7    5    3 1    
     8    6    5 1    
     9    9    5 1    
    10   27    5 1    
    11   59    6 1    
    12    8    7 1    
    13   28    7 1    
    14   29    7 1    
    15    9    8 1    
    16   10    8 2    
    17   30    9 1    
    18   31    9 1    
    19   11   10 1    
    20   32   10 1    
    21   12   11 2    
    22   33   11 1    
    23   13   12 1    
    24   18   12 1    
    25   14   13 1    
    26   34   13 1    
    27   35   13 1    
    28   15   14 1    
    29   36   14 1    
    30   37   14 1    
    31   16   15 1    
    32   38   15 1    
    33   39   15 1    
    34   17   16 1    
    35   18   16 1    
    36   20   16 1    
    37   49   17 1    
    38   50   17 1    
    39   51   17 1    
    40   19   18 1    
    41   40   18 1    
    42   21   19 1    
    43   41   19 1    
    44   42   19 1    
    45   21   20 1    
    46   22   20 1    
    47   43   20 1    
    48   44   21 1    
    49   45   21 1    
    50   23   22 1    
    51   24   22 1    
    52   46   22 1    
    53   52   23 1    
    54   53   23 1    
    55   54   23 1    
    56   25   24 1    
    57   47   24 1    
    58   48   24 1    
    59   55   25 1    
    60   56   25 1    
    61   57   25 1    
@<TRIPOS>SUBSTRUCTURE
     1 VD1500      1 GROUP   
@<TRIPOS>SET

