#    Name: 3uc5_ATP_1_INTS_M
#    Modification time : Mon Mar 24 22:08:44 2014

@<TRIPOS>MOLECULE
3uc5_ATP_1_INTS_M
   84     0    12     0     0
SMALL
NO_CHARGES


@<TRIPOS>ATOM
      1 NZ         38.1940  -24.7685    7.3210 N.4       3 LYC4        0.0000 
      2 NZ         38.8290  -25.0500    5.9190 N.4      11 LYL4        0.0000 
      3 NZ         38.5860  -24.1170    9.4710 N.4       7 LYP4        0.0000 
      4 N          38.1940  -24.7685    7.3210 N.am      2 SEC2        0.0000 
      5 N          38.8290  -25.0500    5.9190 N.am     10 SEL2        0.0000 
      6 N          37.5590  -24.4870    8.7230 N.am      6 SEP2        0.0000 
      7 N          39.2675  -24.3800    7.4060 N.am      2 SEC2        0.0000 
      8 N          39.7060  -23.7100    8.8930 N.am      6 SEP2        0.0000 
      9 N          37.4875  -26.1270    2.9285 N.am      2 SEC2        0.0000 
     10 N          38.5260  -25.4710    3.4460 N.am     10 SEL2        0.0000 
     11 N          36.4490  -26.7830    2.4110 N.am      6 SEP2        0.0000 
     12 N          38.9020  -26.1705    2.4195 N.am      2 SEC2        0.0000 
     13 N          39.2780  -26.8700    1.3930 N.am      6 SEP2        0.0000 
     14 N          36.0090  -21.1090    6.1290 N.am      2 SEC2        0.0000 
     15 N          37.0230  -22.2110    5.9350 N.am     10 SEL2        0.0000 
     16 N          34.9950  -20.0070    6.3230 N.am      6 SEP2        0.0000 
     17 NZ         39.6270  -23.1335    7.7180 N.4       3 LYC4        0.0000 
     18 NZ         39.5480  -22.5570    6.5430 N.4      11 LYL4        0.0000 
     19 N          39.6270  -23.1335    7.7180 N.am      2 SEC2        0.0000 
     20 N          39.5480  -22.5570    6.5430 N.am     10 SEL2        0.0000 
     21 N          37.7555  -18.2285    2.7270 N.am      2 SEC2        0.0000 
     22 N          37.1460  -19.4620    3.7990 N.am     10 SEL2        0.0000 
     23 N          38.3650  -16.9950    1.6550 N.am      6 SEP2        0.0000 
     24 N          36.5115  -18.7760    2.5415 N.am      2 SEC2        0.0000 
     25 N          35.8770  -18.0900    1.2840 N.am      6 SEP2        0.0000 
     26 N          38.9640  -17.7780    2.8700 N.am      2 SEC2        0.0000 
     27 N          39.5630  -18.5610    4.0850 N.am     10 SEL2        0.0000 
     28 N          36.5670  -19.5020    6.2260 N.am      2 SEC2        0.0000 
     29 N          38.1390  -18.9970    6.1290 N.am     10 SEL2        0.0000 
     30 CA         38.4110  -16.5145    4.9870 C.3       4 GLC5        0.0000 
     31 CA         38.1720  -17.6250    6.5250 C.3      12 GLL5        0.0000 
     32 CA         38.6500  -15.4040    3.4490 C.3       8 GLP5        0.0000 
     33 CA         36.3225  -16.8005    5.8105 C.3       4 GLC5        0.0000 
     34 CA         34.4730  -15.9760    5.0960 C.3       8 GLP5        0.0000 
     35 CA         40.8520  -16.3605    8.6555 C.3       4 GLC5        0.0000 
     36 CA         39.5700  -18.1730    8.5810 C.3      12 GLL5        0.0000 
     37 CA         42.1340  -14.5480    8.7300 C.3       8 GLP5        0.0000 
     38 N          39.1950  -16.9470   11.1315 N.am      2 SEC2        0.0000 
     39 N          40.0150  -17.4110    9.7280 N.am     10 SEL2        0.0000 
     40 N          38.3750  -16.4830   12.5350 N.am      6 SEP2        0.0000 
     41 O          41.5105  -17.5010    9.6750 O.2       1 ALC1        0.0000 
     42 O          40.0150  -17.4110    9.7280 O.2       9 ALL1        0.0000 
     43 O          43.0060  -17.5910    9.6220 O.2       5 ALP1        0.0000 
     44 O          39.9445  -19.3445   11.4340 O.2       1 ALC1        0.0000 
     45 O          39.9930  -19.9200   10.1790 O.2       9 ALL1        0.0000 
     46 O          39.8960  -18.7690   12.6890 O.2       5 ALP1        0.0000 
     47 CA         36.0330  -19.1670    8.4350 C.3       4 GLC5        0.0000 
     48 CA         37.7540  -19.1440    9.6760 C.3      12 GLL5        0.0000 
     49 CA         34.3120  -19.1900    7.1940 C.3       8 GLP5        0.0000 
     50 CA         37.8650  -18.3415   11.5600 C.3       4 GLC5        0.0000 
     51 CA         37.9760  -17.5390   13.4440 C.3       8 GLP5        0.0000 
     52 CA         36.3465  -23.1305   11.2010 C.3       4 GLC5        0.0000 
     53 CA         35.3870  -21.6960   10.8600 C.3      12 GLL5        0.0000 
     54 CA         37.3060  -24.5650   11.5420 C.3       8 GLP5        0.0000 
     55 CA         35.9470  -23.0785   12.4820 C.3       4 GLC5        0.0000 
     56 CA         34.5600  -22.1460   12.0010 C.3      12 GLL5        0.0000 
     57 CA         37.3340  -24.0110   12.9630 C.3       8 GLP5        0.0000 
     58 CA         34.8500  -22.5300   14.0005 C.3       4 GLC5        0.0000 
     59 CA         35.1400  -22.9140   16.0000 C.3       8 GLP5        0.0000 
     60 O          33.4070  -24.6000   12.3130 O.2       1 ALC1        0.0000 
     61 O          33.7930  -23.2600   11.9100 O.2       9 ALL1        0.0000 
     62 O          33.0210  -25.9400   12.7160 O.2       5 ALP1        0.0000 
     63 N          34.3170  -22.4475   14.2175 N.am      2 SEC2        0.0000 
     64 N          34.6020  -21.4060   13.1370 N.am     10 SEL2        0.0000 
     65 N          34.0320  -23.4890   15.2980 N.am      6 SEP2        0.0000 
     66 N          33.2740  -21.1415   13.7790 N.am      2 SEC2        0.0000 
     67 N          31.9460  -20.8770   14.4210 N.am      6 SEP2        0.0000 
     68 CA         34.6085  -18.8565   13.7025 C.3       4 GLC5        0.0000 
     69 CA         35.3670  -20.3040   13.2470 C.3      12 GLL5        0.0000 
     70 CA         33.8500  -17.4090   14.1580 C.3       8 GLP5        0.0000 
     71 CA         36.6715  -18.9215   13.3455 C.3       4 GLC5        0.0000 
     72 CA         36.3505  -22.1575   13.1050 C.3       4 GLC5        0.0000 
     73 CA         35.0260  -20.9550   14.9735 C.3       4 GLC5        0.0000 
     74 CA         34.6850  -21.6060   16.7000 C.3       8 GLP5        0.0000 
     75 CA         35.2520  -19.8365    9.1235 C.3       4 GLC5        0.0000 
     76 CA         36.1920  -20.4830   11.0530 C.3      12 GLL5        0.0000 
     77 CA         35.0090  -18.8140   11.8585 C.3       4 GLC5        0.0000 
     78 CA         33.8260  -17.1450   12.6640 C.3       8 GLP5        0.0000 
     79 CA         37.0840  -19.0110   12.2485 C.3       4 GLC5        0.0000 
     80 CA         36.7630  -22.2470   12.0080 C.3       4 GLC5        0.0000 
     81 CA         36.2700  -18.3900    7.2415 C.3       4 GLC5        0.0000 
     82 CA         38.2840  -17.5550    8.0530 C.3      12 GLL5        0.0000 
     83 CA         32.9393  -21.7215   11.1457 C.3       4 GLC5        0.0000 
     84 CA         30.9050  -21.5220   10.8610 C.3       8 GLP5        0.0000 
@<TRIPOS>BOND
@<TRIPOS>SUBSTRUCTURE
     1 ALC1       41 GROUP        1 X    ALC  0     ROOT ALC X 1
     2 SEC2        4 GROUP        1 X    SEC  0     **** SEC X 2
     3 LYC4        1 GROUP        1 X    LYC  0     **** LYC X 4
     4 GLC5       30 GROUP        1 X    GLC  0     **** GLC X 6
     5 ALP1       43 GROUP        1 Y    ALP  0     ROOT ALP Y 8
     6 SEP2        6 GROUP        1 Y    SEP  0     **** SEP Y 9
     7 LYP4        3 GROUP        1 Y    LYP  0     **** LYP Y 11
     8 GLP5       32 GROUP        1 Y    GLP  0     **** GLP Y 13
     9 ALL1       42 GROUP        1 Z    ALL  0     ROOT ALL Z 15
    10 SEL2        5 GROUP        1 Z    SEL  0     **** SEL Z 16
    11 LYL4        2 GROUP        1 Z    LYL  0     **** LYL Z 18
    12 GLL5       31 GROUP        1 Z    GLL  0     **** GLL Z 20
@<TRIPOS>SET

