#    Name: 3uc5_ATP_1_ligand
#    Modification time : Mon Mar 24 22:08:44 2014

@<TRIPOS>MOLECULE
3uc5_ATP_1_ligand
   43    45     1     0     0
SMALL
NO_CHARGES


@<TRIPOS>ATOM
      1 PG         39.2220  -24.6790    4.5050 P.3       1 ATP1440     0.0000 
      2 O1G        38.8290  -25.0500    5.9190 O.co2     1 ATP1440     0.0000 
      3 O2G        38.5260  -25.4710    3.4460 O.co2     1 ATP1440     0.0000 
      4 O3G        40.6990  -24.4590    4.2880 O.co2     1 ATP1440     0.0000 
      5 PB         38.4810  -22.2260    5.5280 P.3       1 ATP1440     0.0000 
      6 O1B        37.0230  -22.2110    5.9350 O.co2     1 ATP1440     0.0000 
      7 O2B        39.5480  -22.5570    6.5430 O.co2     1 ATP1440     0.0000 
      8 O3B        38.5900  -23.2340    4.2850 O.3       1 ATP1440     0.0000 
      9 PA         38.4340  -19.4330    4.6050 P.3       1 ATP1440     0.0000 
     10 O1A        37.1460  -19.4620    3.7990 O.co2     1 ATP1440     0.0000 
     11 O2A        39.5630  -18.5610    4.0850 O.co2     1 ATP1440     0.0000 
     12 O3A        39.0260  -20.9200    4.7200 O.3       1 ATP1440     0.0000 
     13 O5'        38.1390  -18.9970    6.1290 O.3       1 ATP1440     0.0000 
     14 C5'        38.1720  -17.6250    6.5250 C.3       1 ATP1440     0.0000 
     15 C4'        38.2840  -17.5550    8.0530 C.3       1 ATP1440     0.0000 
     16 O4'        37.2140  -18.2830    8.6650 O.3       1 ATP1440     0.0000 
     17 C3'        39.5700  -18.1730    8.5810 C.3       1 ATP1440     0.0000 
     18 O3'        40.0150  -17.4110    9.7280 O.3       1 ATP1440     0.0000 
     19 C2'        39.1220  -19.5060    9.1350 C.3       1 ATP1440     0.0000 
     20 O2'        39.9930  -19.9200   10.1790 O.3       1 ATP1440     0.0000 
     21 C1'        37.7540  -19.1440    9.6760 C.3       1 ATP1440     0.0000 
     22 N9         36.8460  -20.2870    9.9120 N.pl3     1 ATP1440     0.0000 
     23 C8         36.5070  -21.2630    9.0450 C.2       1 ATP1440     0.0000 
     24 N7         35.6290  -22.1250    9.6110 N.2       1 ATP1440     0.0000 
     25 C5         35.3870  -21.6960   10.8600 C.ar      1 ATP1440     0.0000 
     26 C6         34.5600  -22.1460   12.0010 C.ar      1 ATP1440     0.0000 
     27 N6         33.7930  -23.2600   11.9100 N.pl3     1 ATP1440     0.0000 
     28 N1         34.6020  -21.4060   13.1370 N.ar      1 ATP1440     0.0000 
     29 C2         35.3670  -20.3040   13.2470 C.ar      1 ATP1440     0.0000 
     30 N3         36.1410  -19.8390   12.2450 N.ar      1 ATP1440     0.0000 
     31 C4         36.1920  -20.4830   11.0530 C.ar      1 ATP1440     0.0000 
     32 H          37.2639  -17.0939    6.2339 H         1 ATP1440     0.0000 
     33 H          39.0312  -17.0991    6.1046 H         1 ATP1440     0.0000 
     34 H          38.2569  -16.5209    8.3591 H         1 ATP1440     0.0000 
     35 H          40.2590  -18.2930    7.8485 H         1 ATP1440     0.0000 
     36 H          39.0122  -20.1821    8.3488 H         1 ATP1440     0.0000 
     37 H          37.8980  -18.5735   10.5840 H         1 ATP1440     0.0000 
     38 H          36.8479  -21.3406    8.1294 H         1 ATP1440     0.0000 
     39 H          32.8507  -23.1217   11.6052 H         1 ATP1440     0.0000 
     40 H          34.2374  -24.1215   12.1557 H         1 ATP1440     0.0000 
     41 H          35.3617  -19.7726   14.1695 H         1 ATP1440     0.0000 
     42 H          40.9211  -17.0706    9.4766 H         1 ATP1440     0.0000 
     43 H          40.1250  -19.1055   10.7440 H         1 ATP1440     0.0000 
@<TRIPOS>BOND
     1    2    1 ar   
     2    3    1 ar   
     3    4    1 ar   
     4    8    1 1    
     5    6    5 ar   
     6    7    5 ar   
     7    8    5 1    
     8   12    5 1    
     9   10    9 ar   
    10   11    9 ar   
    11   12    9 1    
    12   13    9 1    
    13   14   13 1    
    14   15   14 1    
    15   32   14 1    
    16   33   14 1    
    17   16   15 1    
    18   17   15 1    
    19   34   15 1    
    20   21   16 1    
    21   18   17 1    
    22   19   17 1    
    23   35   17 1    
    24   42   18 1    
    25   20   19 1    
    26   21   19 1    
    27   36   19 1    
    28   43   20 1    
    29   22   21 1    
    30   37   21 1    
    31   23   22 1    
    32   31   22 1    
    33   24   23 2    
    34   38   23 1    
    35   25   24 1    
    36   26   25 ar   
    37   31   25 ar   
    38   27   26 1    
    39   28   26 ar   
    40   39   27 1    
    41   40   27 1    
    42   29   28 ar   
    43   30   29 ar   
    44   41   29 1    
    45   31   30 ar   
@<TRIPOS>SUBSTRUCTURE
     1 ATP1440     1 GROUP   
@<TRIPOS>SET

