#    Name: 3sv2_P05_1_INTS_M
#    Modification time : Mon Mar 24 18:37:11 2014

@<TRIPOS>MOLECULE
3sv2_P05_1_INTS_M
   61     0     9     0     0
SMALL
NO_CHARGES


@<TRIPOS>ATOM
      1 O          15.4650  -14.8155   23.8860 O.2       1 ALC1        0.0000 
      2 O          16.4180  -15.5200   23.1810 O.2       7 ALL1        0.0000 
      3 O          14.5120  -14.1110   24.5910 O.2       4 ALP1        0.0000 
      4 N          15.7075  -12.1400   23.9580 N.am      2 SEC2        0.0000 
      5 N          16.6280  -12.7610   22.9230 N.am      8 SEL2        0.0000 
      6 N          14.7870  -11.5190   24.9930 N.am      5 SEP2        0.0000 
      7 CA         17.7155  -13.3000   26.0975 C.3       3 GLC5        0.0000 
      8 CA         18.2270  -14.7850   24.5750 C.3       9 GLL5        0.0000 
      9 CA         17.2040  -11.8150   27.6200 C.3       6 GLP5        0.0000 
     10 CA         20.9725  -10.9775   24.0225 C.3       3 GLC5        0.0000 
     11 CA         21.1510  -12.5260   25.3690 C.3       9 GLL5        0.0000 
     12 CA         20.7940   -9.4290   22.6760 C.3       6 GLP5        0.0000 
     13 CA         22.7200  -11.5450   23.6090 C.3       3 GLC5        0.0000 
     14 CA         22.2170  -13.2070   24.7870 C.3       9 GLL5        0.0000 
     15 CA         23.2230   -9.8830   22.4310 C.3       6 GLP5        0.0000 
     16 CA         17.8675  -11.0250   22.8370 C.3       3 GLC5        0.0000 
     17 CA         18.1900  -11.7780   20.9800 C.3       9 GLL5        0.0000 
     18 CA         17.5450  -10.2720   24.6940 C.3       6 GLP5        0.0000 
     19 CA         15.1575   -8.5745   18.7455 C.3       3 GLC5        0.0000 
     20 CA         14.8270  -10.2230   20.1030 C.3       9 GLL5        0.0000 
     21 CA         15.4880   -6.9260   17.3880 C.3       6 GLP5        0.0000 
     22 CA         10.7385   -8.4880   22.4960 C.3       3 GLC5        0.0000 
     23 CA         12.2070   -9.8740   22.8340 C.3       9 GLL5        0.0000 
     24 CA          9.2700   -7.1020   22.1580 C.3       6 GLP5        0.0000 
     25 CA         10.6290  -10.3415   21.3145 C.3       3 GLC5        0.0000 
     26 CA          9.0510  -10.8090   19.7950 C.3       6 GLP5        0.0000 
     27 CA         13.0160  -11.0295   24.3335 C.3       3 GLC5        0.0000 
     28 CA         13.8250  -12.1850   25.8330 C.3       6 GLP5        0.0000 
     29 CA         10.7060  -11.4655   21.0070 C.3       3 GLC5        0.0000 
     30 CA         12.3610  -12.1220   22.2190 C.3       9 GLL5        0.0000 
     31 CA         13.0930  -12.1535   24.0260 C.3       3 GLC5        0.0000 
     32 CA         10.5605  -13.0375   21.6220 C.3       3 GLC5        0.0000 
     33 CA          8.7600  -13.9530   21.0250 C.3       6 GLP5        0.0000 
     34 CA         13.1705  -12.8095   19.4555 C.3       3 GLC5        0.0000 
     35 CA         13.3520  -11.8470   21.2870 C.3       9 GLL5        0.0000 
     36 CA         12.9890  -13.7720   17.6240 C.3       6 GLP5        0.0000 
     37 O          16.6875   -9.4320   21.3815 O.2       1 ALC1        0.0000 
     38 O          16.1610  -10.5290   20.5910 O.2       7 ALL1        0.0000 
     39 O          17.2140   -8.3350   22.1720 O.2       4 ALP1        0.0000 
     40 CA         19.1668  -14.7773   26.5802 C.3       3 GLC5        0.0000 
     41 CA         19.4040  -15.0380   28.5520 C.3       6 GLP5        0.0000 
     42 CA         19.9558  -13.9120   26.9445 C.3       3 GLC5        0.0000 
     43 CA         19.8640  -13.0460   25.3050 C.3       9 GLL5        0.0000 
     44 CA         22.9720  -12.0478   26.2830 C.3       3 GLC5        0.0000 
     45 CA         24.2600  -11.2290   27.4880 C.3       6 GLP5        0.0000 
     46 CA         18.9973  -11.6792   24.9326 C.3       3 GLC5        0.0000 
     47 CA         19.0237  -10.1795   19.2370 C.3       3 GLC5        0.0000 
     48 CA         19.3460   -8.6360   18.0510 C.3       6 GLP5        0.0000 
     49 CA         21.7452  -13.5098   20.1348 C.3       3 GLC5        0.0000 
     50 CA         20.2390  -12.7270   20.1870 C.3       9 GLL5        0.0000 
     51 CA         23.6170  -13.7430   19.6920 C.3       6 GLP5        0.0000 
     52 CA         20.1321  -10.8270   21.4905 C.3       3 GLC5        0.0000 
     53 CA         19.1605  -13.9324   18.9836 C.3       3 GLC5        0.0000 
     54 CA         19.2130  -11.6680   19.8660 C.3       9 GLL5        0.0000 
     55 CA         18.7040  -14.8530   17.4700 C.3       6 GLP5        0.0000 
     56 CA         15.2355  -10.0560   22.4363 C.3       3 GLC5        0.0000 
     57 CA         16.1750   -9.7360   24.2560 C.3       6 GLP5        0.0000 
     58 CA         12.6970   -7.7938   21.8468 C.3       3 GLC5        0.0000 
     59 CA         13.1850   -9.5250   21.9130 C.3       9 GLL5        0.0000 
     60 CA         12.6980   -5.8880   21.3200 C.3       6 GLP5        0.0000 
     61 CA         14.4355   -9.7178   23.3148 C.3       3 GLC5        0.0000 
@<TRIPOS>BOND
@<TRIPOS>SUBSTRUCTURE
     1 ALC1        1 GROUP        1 X    ALC  0     ROOT ALC X 1
     2 SEC2        4 GROUP        1 X    SEC  0     **** SEC X 2
     3 GLC5        7 GROUP        1 X    GLC  0     **** GLC X 6
     4 ALP1        3 GROUP        1 Y    ALP  0     ROOT ALP Y 8
     5 SEP2        6 GROUP        1 Y    SEP  0     **** SEP Y 9
     6 GLP5        9 GROUP        1 Y    GLP  0     **** GLP Y 13
     7 ALL1        2 GROUP        1 Z    ALL  0     ROOT ALL Z 15
     8 SEL2        5 GROUP        1 Z    SEL  0     **** SEL Z 16
     9 GLL5        8 GROUP        1 Z    GLL  0     **** GLL Z 20
@<TRIPOS>SET

