#    Name: 3sv2_P05_1_ligand
#    Modification time : Mon Mar 24 18:37:11 2014

@<TRIPOS>MOLECULE
3sv2_P05_1_ligand
   51    53     1     0     0
SMALL
NO_CHARGES


@<TRIPOS>ATOM
      1 N21        16.4180  -15.5200   23.1810 N.4       1 P051        0.0000 
      2 C8         17.7190  -14.8760   23.1360 C.3       1 P051        0.0000 
      3 C9         17.5440  -13.4940   22.5390 C.2       1 P051        0.0000 
      4 O25        16.6280  -12.7610   22.9230 O.2       1 P051        0.0000 
      5 C7         18.2270  -14.7850   24.5750 C.3       1 P051        0.0000 
      6 C4         19.6320  -14.2480   24.6420 C.ar      1 P051        0.0000 
      7 C3         19.8640  -13.0460   25.3050 C.ar      1 P051        0.0000 
      8 C5         20.6930  -14.9330   24.0500 C.ar      1 P051        0.0000 
      9 C2         21.1510  -12.5260   25.3690 C.ar      1 P051        0.0000 
     10 C6         21.9780  -14.4170   24.1370 C.ar      1 P051        0.0000 
     11 C1         22.2170  -13.2070   24.7870 C.ar      1 P051        0.0000 
     12 N22        18.3880  -13.0960   21.5830 N.am      1 P051        0.0000 
     13 C13        18.1900  -11.7780   20.9800 C.3       1 P051        0.0000 
     14 C14        16.8140  -11.6760   20.3860 C.2       1 P051        0.0000 
     15 O26        16.3240  -12.6040   19.7390 O.2       1 P051        0.0000 
     16 C12        19.2130  -11.6680   19.8660 C.3       1 P051        0.0000 
     17 C11        20.2390  -12.7270   20.1870 C.3       1 P051        0.0000 
     18 C10        19.5080  -13.8260   20.9680 C.3       1 P051        0.0000 
     19 C15        14.8270  -10.2230   20.1030 C.3       1 P051        0.0000 
     20 C16        13.7650  -10.5290   21.1300 C.ar      1 P051        0.0000 
     21 C17        13.1850   -9.5250   21.9130 C.ar      1 P051        0.0000 
     22 C18        12.2070   -9.8740   22.8340 C.ar      1 P051        0.0000 
     23 C19        12.3610  -12.1220   22.2190 C.ar      1 P051        0.0000 
     24 C20        13.3520  -11.8470   21.2870 C.ar      1 P051        0.0000 
     25 N23        16.1610  -10.5290   20.5910 N.am      1 P051        0.0000 
     26 N24        11.8080  -11.1510   22.9530 N.ar      1 P051        0.0000 
     27 H          18.4039  -15.4382   22.5571 H         1 P051        0.0000 
     28 H          18.1915  -15.7833   25.0253 H         1 P051        0.0000 
     29 H          17.5553  -14.1339   25.1455 H         1 P051        0.0000 
     30 H          19.0830  -12.5444   25.7465 H         1 P051        0.0000 
     31 H          20.5207  -15.8140   23.5533 H         1 P051        0.0000 
     32 H          21.3191  -11.6297   25.8505 H         1 P051        0.0000 
     33 H          22.7683  -14.9328   23.7165 H         1 P051        0.0000 
     34 H          23.1636  -12.8251   24.8353 H         1 P051        0.0000 
     35 H          18.3551  -11.0063   21.6793 H         1 P051        0.0000 
     36 H          19.6654  -10.7022   19.8857 H         1 P051        0.0000 
     37 H          18.7498  -11.8794   18.9287 H         1 P051        0.0000 
     38 H          21.0163  -12.3152   20.8016 H         1 P051        0.0000 
     39 H          20.6372  -13.1432   19.2816 H         1 P051        0.0000 
     40 H          19.1624  -14.5614   20.2838 H         1 P051        0.0000 
     41 H          20.1653  -14.2192   21.7040 H         1 P051        0.0000 
     42 H          14.7489   -9.1560   19.8286 H         1 P051        0.0000 
     43 H          14.6051  -10.8024   19.1893 H         1 P051        0.0000 
     44 H          13.4792   -8.5549   21.8051 H         1 P051        0.0000 
     45 H          11.7924   -9.1268   23.4270 H         1 P051        0.0000 
     46 H          12.0556  -13.1171   22.3330 H         1 P051        0.0000 
     47 H          13.7670  -12.5918   20.7313 H         1 P051        0.0000 
     48 H          16.6163   -9.7456   21.1527 H         1 P051        0.0000 
     49 H          16.0137  -15.6045   22.2703 H         1 P051        0.0000 
     50 H          16.4731  -16.4422   23.5639 H         1 P051        0.0000 
     51 H          15.7691  -15.0074   23.7433 H         1 P051        0.0000 
@<TRIPOS>BOND
     1    2    1 1    
     2   49    1 1    
     3   50    1 1    
     4   51    1 1    
     5    3    2 1    
     6    5    2 1    
     7   27    2 1    
     8    4    3 2    
     9   12    3 am   
    10    6    5 1    
    11   28    5 1    
    12   29    5 1    
    13    7    6 ar   
    14    8    6 ar   
    15    9    7 ar   
    16   30    7 1    
    17   10    8 ar   
    18   31    8 1    
    19   11    9 ar   
    20   32    9 1    
    21   11   10 ar   
    22   33   10 1    
    23   34   11 1    
    24   13   12 1    
    25   18   12 1    
    26   14   13 1    
    27   16   13 1    
    28   35   13 1    
    29   15   14 2    
    30   25   14 am   
    31   17   16 1    
    32   36   16 1    
    33   37   16 1    
    34   18   17 1    
    35   38   17 1    
    36   39   17 1    
    37   40   18 1    
    38   41   18 1    
    39   20   19 1    
    40   25   19 1    
    41   42   19 1    
    42   43   19 1    
    43   21   20 ar   
    44   24   20 ar   
    45   22   21 ar   
    46   44   21 1    
    47   26   22 ar   
    48   45   22 1    
    49   24   23 ar   
    50   26   23 ar   
    51   46   23 1    
    52   47   24 1    
    53   48   25 1    
@<TRIPOS>SUBSTRUCTURE
     1 P051        1 GROUP   
@<TRIPOS>SET

