#    Name: 3gu8_3GU_1_INTS_M
#    Modification time : Tue Mar 25 12:58:52 2014

@<TRIPOS>MOLECULE
3gu8_3GU_1_INTS_M
   66     0     9     0     0
SMALL
NO_CHARGES


@<TRIPOS>ATOM
      1 N         -27.3715    6.8740  -10.0655 N.am      2 SEC2        0.0000 
      2 N         -26.5150    5.4790  -10.1050 N.am      8 SEL2        0.0000 
      3 N         -28.2280    8.2690  -10.0260 N.am      5 SEP2        0.0000 
      4 CA        -28.2270    3.8665  -11.0410 C.3       3 GLC5        0.0000 
      5 CA        -26.8660    5.1090  -11.3490 C.3       9 GLL5        0.0000 
      6 CA        -29.5880    2.6240  -10.7330 C.3       6 GLP5        0.0000 
      7 CA        -27.4600    4.4400   -9.4160 C.3       3 GLC5        0.0000 
      8 CA        -28.0540    3.7710   -7.4830 C.3       6 GLP5        0.0000 
      9 CA        -28.9525    5.4575  -10.5855 C.3       3 GLC5        0.0000 
     10 CA        -31.0390    5.8060   -9.8220 C.3       6 GLP5        0.0000 
     11 CA        -27.4245    7.1400  -11.2545 C.3       3 GLC5        0.0000 
     12 CA        -27.9830    9.1710  -11.1600 C.3       6 GLP5        0.0000 
     13 CA        -26.1735    5.8810  -13.1200 C.3       3 GLC5        0.0000 
     14 CA        -25.4810    6.6530  -14.8910 C.3       6 GLP5        0.0000 
     15 CA        -25.2255    5.2005  -13.1930 C.3       3 GLC5        0.0000 
     16 CA        -24.9700    3.7480  -11.4950 C.3       9 GLL5        0.0000 
     17 O         -25.9470    6.5150   -7.6240 O.2       1 ALC1        0.0000 
     18 O         -25.1620    5.4580   -8.2130 O.2       7 ALL1        0.0000 
     19 O         -26.7320    7.5720   -7.0350 O.2       4 ALP1        0.0000 
     20 CA        -24.8760    0.4505  -13.9890 C.3       3 GLC5        0.0000 
     21 CA        -24.1500    2.2590  -13.3320 C.3       9 GLL5        0.0000 
     22 CA        -25.6020   -1.3580  -14.6460 C.3       6 GLP5        0.0000 
     23 CA        -23.2020    3.9355  -16.3030 C.3       3 GLC5        0.0000 
     24 CA        -23.3720    2.9460  -14.4440 C.3       9 GLL5        0.0000 
     25 CA        -23.0320    4.9250  -18.1620 C.3       6 GLP5        0.0000 
     26 CA        -23.5265    4.7860  -14.7360 C.3       3 GLC5        0.0000 
     27 CA        -23.6810    6.6260  -15.0280 C.3       6 GLP5        0.0000 
     28 O         -23.4085    2.6180  -16.8030 O.2       1 ALC1        0.0000 
     29 O         -24.0490    2.6700  -15.6780 O.2       7 ALL1        0.0000 
     30 O         -22.7680    2.5660  -17.9280 O.2       4 ALP1        0.0000 
     31 CA        -25.7350    7.2010   -5.4935 C.3       3 GLC5        0.0000 
     32 CA        -24.2010    5.7030   -5.9950 C.3       9 GLL5        0.0000 
     33 CA        -27.2690    8.6990   -4.9920 C.3       6 GLP5        0.0000 
     34 CA        -25.2350    2.1805   -8.1615 C.3       3 GLC5        0.0000 
     35 CA        -24.1910    3.5730   -7.0520 C.3       9 GLL5        0.0000 
     36 CA        -26.2790    0.7880   -9.2710 C.3       6 GLP5        0.0000 
     37 O         -20.6650    3.6280  -16.0080 O.2       1 ALC1        0.0000 
     38 O         -21.3580    2.3190  -15.6890 O.2       7 ALL1        0.0000 
     39 O         -19.9720    4.9370  -16.3270 O.2       4 ALP1        0.0000 
     40 CA        -24.0305   -0.2755  -14.3540 C.3       3 GLC5        0.0000 
     41 CA        -22.4590    0.8070  -14.0620 C.3       9 GLL5        0.0000 
     42 CA        -22.1195   -1.9205  -13.6335 C.3       3 GLC5        0.0000 
     43 CA        -21.3660    0.0640  -13.3280 C.3       9 GLL5        0.0000 
     44 CA        -22.8730   -3.9050  -13.9390 C.3       6 GLP5        0.0000 
     45 N         -20.1720    1.2615  -11.0520 N.am      2 SEC2        0.0000 
     46 N         -20.6480    0.9750  -12.4830 N.am      8 SEL2        0.0000 
     47 N         -19.6960    1.5480   -9.6210 N.am      5 SEP2        0.0000 
     48 O         -19.3960    1.1990  -13.1635 O.2       1 ALC1        0.0000 
     49 O         -20.6480    0.9750  -12.4830 O.2       7 ALL1        0.0000 
     50 O         -18.1440    1.4230  -13.8440 O.2       4 ALP1        0.0000 
     51 CA        -26.0815    4.0445   -7.3468 C.3       3 GLC5        0.0000 
     52 CA        -22.8270    4.4480  -11.6752 C.3       3 GLC5        0.0000 
     53 CA        -24.5780    4.1120  -10.2120 C.3       9 GLL5        0.0000 
     54 CA        -20.8800    4.9660  -12.4970 C.3       6 GLP5        0.0000 
     55 CA        -26.5210    4.1650   -8.6675 C.3       3 GLC5        0.0000 
     56 CA        -25.6825    2.6280   -9.7219 C.3       3 GLC5        0.0000 
     57 CA        -25.3980    5.0060   -9.4920 C.3       9 GLL5        0.0000 
     58 CA        -23.5720    6.8645   -6.1138 C.3       3 GLC5        0.0000 
     59 CA        -23.6400    4.7170   -4.9730 C.3       9 GLL5        0.0000 
     60 CA        -23.2670    8.6790   -6.4000 C.3       6 GLP5        0.0000 
     61 CA        -23.6865    1.5122   -6.0533 C.3       3 GLC5        0.0000 
     62 CA        -23.3140   -0.4350   -5.7960 C.3       6 GLP5        0.0000 
     63 CA        -25.0624    5.0955   -4.1118 C.3       3 GLC5        0.0000 
     64 CA        -23.9270    3.3460   -5.5690 C.3       9 GLL5        0.0000 
     65 CA        -26.2010    5.9130   -2.6970 C.3       6 GLP5        0.0000 
     66 CA        -21.8930    3.6899  -13.3272 C.3       3 GLC5        0.0000 
@<TRIPOS>BOND
@<TRIPOS>SUBSTRUCTURE
     1 ALC1       17 GROUP        1 X    ALC  0     ROOT ALC X 1
     2 SEC2        1 GROUP        1 X    SEC  0     **** SEC X 2
     3 GLC5        4 GROUP        1 X    GLC  0     **** GLC X 6
     4 ALP1       19 GROUP        1 Y    ALP  0     ROOT ALP Y 8
     5 SEP2        3 GROUP        1 Y    SEP  0     **** SEP Y 9
     6 GLP5        6 GROUP        1 Y    GLP  0     **** GLP Y 13
     7 ALL1       18 GROUP        1 Z    ALL  0     ROOT ALL Z 15
     8 SEL2        2 GROUP        1 Z    SEL  0     **** SEL Z 16
     9 GLL5        5 GROUP        1 Z    GLL  0     **** GLL Z 20
@<TRIPOS>SET

