#    Name: 3gu8_3GU_1_ligand
#    Modification time : Tue Mar 25 12:58:52 2014

@<TRIPOS>MOLECULE
3gu8_3GU_1_ligand
   45    48     1     0     0
SMALL
NO_CHARGES


@<TRIPOS>ATOM
      1 C1        -24.0270    5.0630   -7.3690 C.3       1 3GU296      0.0000 
      2 N1        -26.5150    5.4790  -10.1050 N.ar      1 3GU296      0.0000 
      3 C2        -26.8660    5.1090  -11.3490 C.ar      1 3GU296      0.0000 
      4 N3        -26.1060    4.2490  -12.0410 N.ar      1 3GU296      0.0000 
      5 C4        -24.9700    3.7480  -11.4950 C.ar      1 3GU296      0.0000 
      6 C5        -24.5780    4.1120  -10.2120 C.ar      1 3GU296      0.0000 
      7 C6        -25.3980    5.0060   -9.4920 C.ar      1 3GU296      0.0000 
      8 N6        -25.1620    5.4580   -8.2130 N.pl3     1 3GU296      0.0000 
      9 N7        -23.4050    3.4550   -9.9570 N.2       1 3GU296      0.0000 
     10 C8        -23.1110    2.7070  -11.0440 C.2       1 3GU296      0.0000 
     11 N9        -24.0540    2.9060  -11.9840 N.pl3     1 3GU296      0.0000 
     12 C1'       -24.1500    2.2590  -13.3320 C.3       1 3GU296      0.0000 
     13 C2'       -23.3720    2.9460  -14.4440 C.3       1 3GU296      0.0000 
     14 O2'       -24.0490    2.6700  -15.6780 O.3       1 3GU296      0.0000 
     15 C21       -24.2010    5.7030   -5.9950 C.3       1 3GU296      0.0000 
     16 C22       -23.6400    4.7170   -4.9730 C.3       1 3GU296      0.0000 
     17 C23       -23.9270    3.3460   -5.5690 C.3       1 3GU296      0.0000 
     18 C24       -24.1910    3.5730   -7.0520 C.3       1 3GU296      0.0000 
     19 C3'       -22.0510    2.2250  -14.4270 C.3       1 3GU296      0.0000 
     20 O3'       -21.3580    2.3190  -15.6890 O.3       1 3GU296      0.0000 
     21 C4'       -22.4590    0.8070  -14.0620 C.3       1 3GU296      0.0000 
     22 O4'       -23.6160    0.9370  -13.2080 O.3       1 3GU296      0.0000 
     23 C5'       -21.3660    0.0640  -13.3280 C.3       1 3GU296      0.0000 
     24 O5'       -20.6480    0.9750  -12.4830 O.3       1 3GU296      0.0000 
     25 H         -23.1133    5.2530   -7.7543 H         1 3GU296      0.0000 
     26 H         -27.7391    5.4963  -11.7782 H         1 3GU296      0.0000 
     27 H         -25.8315    6.1460   -7.7709 H         1 3GU296      0.0000 
     28 H         -22.3423    2.1213  -11.1299 H         1 3GU296      0.0000 
     29 H         -25.1905    2.1961  -13.6276 H         1 3GU296      0.0000 
     30 H         -23.2521    3.9423  -14.2255 H         1 3GU296      0.0000 
     31 H         -25.2435    5.8664   -5.8026 H         1 3GU296      0.0000 
     32 H         -23.6469    6.6204   -5.9516 H         1 3GU296      0.0000 
     33 H         -24.1560    4.8254   -4.0492 H         1 3GU296      0.0000 
     34 H         -22.5900    4.8577   -4.8777 H         1 3GU296      0.0000 
     35 H         -24.7977    2.9264   -5.1077 H         1 3GU296      0.0000 
     36 H         -23.0718    2.7129   -5.4477 H         1 3GU296      0.0000 
     37 H         -23.4822    3.0037   -7.6380 H         1 3GU296      0.0000 
     38 H         -25.2001    3.2664   -7.2920 H         1 3GU296      0.0000 
     39 H         -21.4773    2.6171  -13.6048 H         1 3GU296      0.0000 
     40 H         -22.7168    0.2835  -14.9598 H         1 3GU296      0.0000 
     41 H         -20.7049   -0.3970  -14.0711 H         1 3GU296      0.0000 
     42 H         -21.8290   -0.7408  -12.7452 H         1 3GU296      0.0000 
     43 H         -23.3319    2.6824  -16.3749 H         1 3GU296      0.0000 
     44 H         -21.2442    3.2995  -15.8493 H         1 3GU296      0.0000 
     45 H         -19.7966    1.1650  -12.9719 H         1 3GU296      0.0000 
@<TRIPOS>BOND
     1    8    1 1    
     2   15    1 1    
     3   18    1 1    
     4   25    1 1    
     5    3    2 ar   
     6    7    2 ar   
     7    4    3 ar   
     8   26    3 1    
     9    5    4 ar   
    10    6    5 ar   
    11   11    5 1    
    12    7    6 ar   
    13    9    6 1    
    14    8    7 1    
    15   27    8 1    
    16   10    9 2    
    17   11   10 1    
    18   28   10 1    
    19   12   11 1    
    20   13   12 1    
    21   22   12 1    
    22   29   12 1    
    23   14   13 1    
    24   19   13 1    
    25   30   13 1    
    26   43   14 1    
    27   16   15 1    
    28   31   15 1    
    29   32   15 1    
    30   17   16 1    
    31   33   16 1    
    32   34   16 1    
    33   18   17 1    
    34   35   17 1    
    35   36   17 1    
    36   37   18 1    
    37   38   18 1    
    38   20   19 1    
    39   21   19 1    
    40   39   19 1    
    41   44   20 1    
    42   22   21 1    
    43   23   21 1    
    44   40   21 1    
    45   24   23 1    
    46   41   23 1    
    47   42   23 1    
    48   45   24 1    
@<TRIPOS>SUBSTRUCTURE
     1 3GU296      1 GROUP   
@<TRIPOS>SET

