#    Name: 3hz5_Z64_1_INTS_M
#    Modification time : Tue Mar 25 15:22:20 2014

@<TRIPOS>MOLECULE
3hz5_Z64_1_INTS_M
   62     0     6     0     0
SMALL
NO_CHARGES


@<TRIPOS>ATOM
      1 CA          1.3985   11.3095   26.8470 C.3       2 GLC5        0.0000 
      2 CA          0.5140   10.0710   25.7200 C.3       6 GLL5        0.0000 
      3 CA          2.2830   12.5480   27.9740 C.3       4 GLP5        0.0000 
      4 CA         -2.3420    8.8960   26.8755 C.3       2 GLC5        0.0000 
      5 CA         -0.9270    9.8490   27.5700 C.3       6 GLL5        0.0000 
      6 CA         -3.7570    7.9430   26.1810 C.3       4 GLP5        0.0000 
      7 CA         -1.8445    8.4535   28.8320 C.3       2 GLC5        0.0000 
      8 CA         -2.7620    7.0580   30.0940 C.3       4 GLP5        0.0000 
      9 CA         -1.9215   10.6165   29.2830 C.3       2 GLC5        0.0000 
     10 CA         -2.9160   11.3840   30.9960 C.3       4 GLP5        0.0000 
     11 CA          0.3440   10.7760   28.4955 C.3       2 GLC5        0.0000 
     12 CA          1.6150   11.7030   29.4210 C.3       4 GLP5        0.0000 
     13 CA         -2.5585   12.5895   26.2800 C.3       2 GLC5        0.0000 
     14 CA         -1.7320   10.9040   25.6500 C.3       6 GLL5        0.0000 
     15 CA         -3.3850   14.2750   26.9100 C.3       4 GLP5        0.0000 
     16 CA         -0.5470   10.1020   22.9150 C.3       2 GLC5        0.0000 
     17 CA         -0.5080   10.7150   25.0250 C.3       6 GLL5        0.0000 
     18 CA         -0.5860    9.4890   20.8050 C.3       4 GLP5        0.0000 
     19 CA          2.5455   10.8435   26.9665 C.3       2 GLC5        0.0000 
     20 CA          2.8080    9.1390   25.9590 C.3       6 GLL5        0.0000 
     21 CA          4.4255    9.1285   26.8950 C.3       2 GLC5        0.0000 
     22 CA          6.0430    9.1180   27.8310 C.3       4 GLP5        0.0000 
     23 CA          0.7575    9.8270   22.2895 C.3       2 GLC5        0.0000 
     24 CA          2.1010   10.1650   23.7740 C.3       6 GLL5        0.0000 
     25 CA          2.9055   13.1165   22.3790 C.3       2 GLC5        0.0000 
     26 CA          2.5520   11.6470   23.7450 C.3       6 GLL5        0.0000 
     27 CA          3.2590   14.5860   21.0130 C.3       4 GLP5        0.0000 
     28 CA          4.8010   11.7505   26.3630 C.3       2 GLC5        0.0000 
     29 CA          3.8320   11.9170   24.5600 C.3       6 GLL5        0.0000 
     30 CA          5.7700   11.5840   28.1660 C.3       4 GLP5        0.0000 
     31 N          -3.8705   11.7985   24.5895 N.am      1 SEC2        0.0000 
     32 N          -2.5410   11.5350   24.7810 N.am      5 SEL2        0.0000 
     33 N          -5.2000   12.0620   24.3980 N.am      3 SEP2        0.0000 
     34 CA          4.8590   15.5565   28.0700 C.3       2 GLC5        0.0000 
     35 CA          5.3250   15.5150   26.3370 C.3       6 GLL5        0.0000 
     36 CA          4.3930   15.5980   29.8030 C.3       4 GLP5        0.0000 
     37 CA          5.5475   13.5495   27.2515 C.3       2 GLC5        0.0000 
     38 CA          6.3150   17.0070   26.1325 C.3       2 GLC5        0.0000 
     39 CA          7.3050   18.4990   25.9280 C.3       4 GLP5        0.0000 
     40 CA          7.6365    9.4640   20.2330 C.3       2 GLC5        0.0000 
     41 CA          7.0990   10.2100   21.9230 C.3       6 GLL5        0.0000 
     42 CA          8.1740    8.7180   18.5430 C.3       4 GLP5        0.0000 
     43 CA          5.8255   11.4120   21.0165 C.3       2 GLC5        0.0000 
     44 CA          4.5520   12.6140   20.1100 C.3       4 GLP5        0.0000 
     45 CA          9.3530    9.2290   21.0770 C.3       2 GLC5        0.0000 
     46 CA          8.2370    9.8900   22.6480 C.3       6 GLL5        0.0000 
     47 CA         10.4690    8.5680   19.5060 C.3       4 GLP5        0.0000 
     48 CA         -2.4385    9.3763   25.7593 C.3       2 GLC5        0.0000 
     49 CA         -0.1390   12.1718   26.4168 C.3       2 GLC5        0.0000 
     50 CA          0.8420   13.5340   27.4960 C.3       4 GLP5        0.0000 
     51 CA          4.3137   13.2942   22.5255 C.3       2 GLC5        0.0000 
     52 CA          4.4860   14.0040   20.7150 C.3       4 GLP5        0.0000 
     53 CA          3.0522   12.5325   26.0531 C.3       2 GLC5        0.0000 
     54 CA          4.4510   13.2520   24.1120 C.3       6 GLL5        0.0000 
     55 CA          6.1132   12.3517   26.3908 C.3       2 GLC5        0.0000 
     56 CA          5.8170   13.4740   24.7130 C.3       6 GLL5        0.0000 
     57 CA          7.9507   10.9115   25.7325 C.3       2 GLC5        0.0000 
     58 CA          7.3000   11.6340   23.5870 C.3       6 GLL5        0.0000 
     59 CA          8.0590   10.6140   27.8210 C.3       4 GLP5        0.0000 
     60 CA         10.0455    9.8370   23.1823 C.3       2 GLC5        0.0000 
     61 CA          8.3850   10.7840   23.7010 C.3       6 GLL5        0.0000 
     62 CA         11.7800    9.3370   23.1900 C.3       4 GLP5        0.0000 
@<TRIPOS>BOND
@<TRIPOS>SUBSTRUCTURE
     1 SEC2       31 GROUP        1 X    SEC  0     ROOT SEC X 2
     2 GLC5        1 GROUP        1 X    GLC  0     **** GLC X 6
     3 SEP2       33 GROUP        1 Y    SEP  0     ROOT SEP Y 9
     4 GLP5        3 GROUP        1 Y    GLP  0     **** GLP Y 13
     5 SEL2       32 GROUP        1 Z    SEL  0     ROOT SEL Z 16
     6 GLL5        2 GROUP        1 Z    GLL  0     **** GLL Z 20
@<TRIPOS>SET

