#    Name: 3hz5_Z64_1_ligand
#    Modification time : Tue Mar 25 15:22:20 2014

@<TRIPOS>MOLECULE
3hz5_Z64_1_ligand
   47    50     1     0     0
SMALL
NO_CHARGES


@<TRIPOS>ATOM
      1 C1          0.5140   10.0710   25.7200 C.ar      1 Z64237      0.0000 
      2 C3         -0.9270    9.8490   27.5700 C.ar      1 Z64237      0.0000 
      3 C5         -1.7320   10.9040   25.6500 C.ar      1 Z64237      0.0000 
      4 C6         -0.5080   10.7150   25.0250 C.ar      1 Z64237      0.0000 
      5 N2          0.2640    9.6440   26.9730 N.ar      1 Z64237      0.0000 
      6 C8         -1.8540   11.7590   23.6440 C.2       1 Z64237      0.0000 
      7 C11         2.8080    9.1390   25.9590 C.3       1 Z64237      0.0000 
      8 C12         2.1010   10.1650   23.7740 C.3       1 Z64237      0.0000 
      9 C13         2.5520   11.6470   23.7450 C.3       1 Z64237      0.0000 
     10 C14         3.8320   11.9170   24.5600 C.3       1 Z64237      0.0000 
     11 C15         4.4510   13.2520   24.1120 C.3       1 Z64237      0.0000 
     12 N10         1.7750    9.8190   25.1580 N.3       1 Z64237      0.0000 
     13 N4         -1.9240   10.4670   26.9250 N.ar      1 Z64237      0.0000 
     14 N9         -2.5410   11.5350   24.7810 N.2       1 Z64237      0.0000 
     15 N7         -0.5980   11.2610   23.7870 N.pl3     1 Z64237      0.0000 
     16 C16         5.8170   13.4740   24.7130 C.2       1 Z64237      0.0000 
     17 C20         6.2130   14.4640   25.7170 C.2       1 Z64237      0.0000 
     18 C21         5.3250   15.5150   26.3370 C.3       1 Z64237      0.0000 
     19 C17         7.0960   12.7650   24.5180 C.2       1 Z64237      0.0000 
     20 N18         8.0960   13.2440   25.2380 N.pl3     1 Z64237      0.0000 
     21 N19         7.5270   14.2890   25.9780 N.2       1 Z64237      0.0000 
     22 C22         7.3000   11.6340   23.5870 C.2       1 Z64237      0.0000 
     23 O23         6.4770   11.3940   22.5420 O.3       1 Z64237      0.0000 
     24 C24         7.0990   10.2100   21.9230 C.2       1 Z64237      0.0000 
     25 C25         8.2370    9.8900   22.6480 C.2       1 Z64237      0.0000 
     26 C26         8.3850   10.7840   23.7010 C.2       1 Z64237      0.0000 
     27 H          -1.0709    9.5172   28.5566 H         1 Z64237      0.0000 
     28 H          -2.1926   12.2004   22.8536 H         1 Z64237      0.0000 
     29 H           2.9156    9.5607   23.3964 H         1 Z64237      0.0000 
     30 H           1.2386   10.0658   23.1277 H         1 Z64237      0.0000 
     31 H           1.7396   12.2692   24.1395 H         1 Z64237      0.0000 
     32 H           2.7236   11.9417   22.7026 H         1 Z64237      0.0000 
     33 H           4.5389   11.1188   24.3873 H         1 Z64237      0.0000 
     34 H           3.5808   11.9729   25.6090 H         1 Z64237      0.0000 
     35 H           3.7797   14.0649   24.4086 H         1 Z64237      0.0000 
     36 H           4.5227   13.2541   23.0192 H         1 Z64237      0.0000 
     37 H           0.0987   11.2910   23.1295 H         1 Z64237      0.0000 
     38 H           8.9943   12.9808   25.2797 H         1 Z64237      0.0000 
     39 H           6.7479    9.7832   21.1706 H         1 Z64237      0.0000 
     40 H           8.8312    9.1637   22.4536 H         1 Z64237      0.0000 
     41 H           9.0597   10.8032   24.3345 H         1 Z64237      0.0000 
     42 H           3.6584    9.0220   25.4461 H         1 Z64237      0.0000 
     43 H           3.0334    9.6522   26.7871 H         1 Z64237      0.0000 
     44 H           2.5133    8.2286   26.2495 H         1 Z64237      0.0000 
     45 H           5.8212   16.0774   26.9984 H         1 Z64237      0.0000 
     46 H           4.9479   16.1354   25.6493 H         1 Z64237      0.0000 
     47 H           4.5503   15.1082   26.8210 H         1 Z64237      0.0000 
@<TRIPOS>BOND
     1    4    1 ar   
     2    5    1 ar   
     3   12    1 1    
     4    5    2 ar   
     5   13    2 ar   
     6   27    2 1    
     7    4    3 ar   
     8   13    3 ar   
     9   14    3 1    
    10   15    4 1    
    11   14    6 2    
    12   15    6 1    
    13   28    6 1    
    14   12    7 1    
    15   42    7 1    
    16   43    7 1    
    17   44    7 1    
    18    9    8 1    
    19   12    8 1    
    20   29    8 1    
    21   30    8 1    
    22   10    9 1    
    23   31    9 1    
    24   32    9 1    
    25   11   10 1    
    26   33   10 1    
    27   34   10 1    
    28   16   11 1    
    29   35   11 1    
    30   36   11 1    
    31   37   15 1    
    32   17   16 1    
    33   19   16 2    
    34   18   17 1    
    35   21   17 2    
    36   45   18 1    
    37   46   18 1    
    38   47   18 1    
    39   20   19 1    
    40   22   19 1    
    41   21   20 1    
    42   38   20 1    
    43   23   22 1    
    44   26   22 2    
    45   24   23 1    
    46   25   24 2    
    47   39   24 1    
    48   26   25 1    
    49   40   25 1    
    50   41   26 1    
@<TRIPOS>SUBSTRUCTURE
     1 Z64237      1 GROUP   
@<TRIPOS>SET

