#    Name: 1nuq_NXX_1_INTS_M
#    Modification time : Mon Mar 24 18:55:24 2014

@<TRIPOS>MOLECULE
1nuq_NXX_1_INTS_M
   80     0     9     0     0
SMALL
NO_CHARGES


@<TRIPOS>ATOM
      1 N           6.1905   11.3605   27.7655 N.am      2 SEC2        0.0000 
      2 N           5.5370   10.2050   27.8340 N.am      8 SEL2        0.0000 
      3 N           6.8440   12.5160   27.6970 N.am      5 SEP2        0.0000 
      4 CA          4.8750    4.9140   25.9185 C.3       3 GLC5        0.0000 
      5 CA          5.7000    6.6820   26.2370 C.3       9 GLL5        0.0000 
      6 CA          4.0500    3.1460   25.6000 C.3       6 GLP5        0.0000 
      7 CA          5.8820    4.4140   25.5185 C.3       3 GLC5        0.0000 
      8 CA          6.3220    6.1380   24.9460 C.3       9 GLL5        0.0000 
      9 CA          5.4420    2.6900   26.0910 C.3       6 GLP5        0.0000 
     10 CA          6.2905   10.9895   25.4905 C.3       3 GLC5        0.0000 
     11 CA          6.6200    8.9390   25.5160 C.3       9 GLL5        0.0000 
     12 CA          5.9610   13.0400   25.4650 C.3       6 GLP5        0.0000 
     13 CA          5.8395    9.6295   23.7060 C.3       3 GLC5        0.0000 
     14 CA          7.8890    9.2750   23.4830 C.3       9 GLL5        0.0000 
     15 CA          3.7900    9.9840   23.9290 C.3       6 GLP5        0.0000 
     16 CA         10.1400    7.2470   23.7880 C.3       3 GLC5        0.0000 
     17 CA          9.3900    9.1410   23.6520 C.3       9 GLL5        0.0000 
     18 CA         10.8900    5.3530   23.9240 C.3       6 GLP5        0.0000 
     19 N          10.5630    9.4465   25.8820 N.am      2 SEC2        0.0000 
     20 N           9.9120    9.8970   24.7550 N.am      8 SEL2        0.0000 
     21 N          11.2140    8.9960   27.0090 N.am      5 SEP2        0.0000 
     22 O          10.9810   11.9250   22.3440 O.2       1 ALC1        0.0000 
     23 O           9.9510   11.1100   22.3140 O.2       7 ALL1        0.0000 
     24 O          12.0110   12.7400   22.3740 O.2       4 ALP1        0.0000 
     25 N          12.4600    6.7130   18.9350 N.am      2 SEC2        0.0000 
     26 N          10.8930    6.3370   18.7310 N.am      8 SEL2        0.0000 
     27 N          14.0270    7.0890   19.1390 N.am      5 SEP2        0.0000 
     28 N          11.7950    9.0845   17.7630 N.am      2 SEC2        0.0000 
     29 N          10.6140    8.4380   17.2090 N.am      8 SEL2        0.0000 
     30 N          12.9760    9.7310   18.3170 N.am      5 SEP2        0.0000 
     31 N          13.5125    9.6020   15.7565 N.am      2 SEC2        0.0000 
     32 N          12.2680    8.9410   15.4240 N.am      8 SEL2        0.0000 
     33 N          14.7570   10.2630   16.0890 N.am      5 SEP2        0.0000 
     34 CA         10.3350   10.9070   17.0860 C.3       3 GLC5        0.0000 
     35 CA          9.5360   10.5990   15.3460 C.3       9 GLL5        0.0000 
     36 CA         11.1340   11.2150   18.8260 C.3       6 GLP5        0.0000 
     37 CA         10.8145   12.1560   14.9655 C.3       3 GLC5        0.0000 
     38 CA         12.0930   13.7130   14.5850 C.3       6 GLP5        0.0000 
     39 CA          7.6995   12.7050   13.8510 C.3       3 GLC5        0.0000 
     40 CA          8.2190   10.9580   14.7050 C.3       9 GLL5        0.0000 
     41 CA          7.1800   14.4520   12.9970 C.3       6 GLP5        0.0000 
     42 N           4.6750   11.1825   14.9225 N.am      2 SEC2        0.0000 
     43 N           6.0070   11.1040   15.6980 N.am      8 SEL2        0.0000 
     44 N           3.3430   11.2610   14.1470 N.am      5 SEP2        0.0000 
     45 O           6.6370   12.1545   16.3225 O.2       1 ALC1        0.0000 
     46 O           6.0070   11.1040   15.6980 O.2       7 ALL1        0.0000 
     47 O           7.2670   13.2050   16.9470 O.2       4 ALP1        0.0000 
     48 N           4.2745   10.1910   14.0810 N.am      2 SEC2        0.0000 
     49 N           5.2060    9.1210   14.0150 N.am      8 SEL2        0.0000 
     50 O           4.4050    8.1660   13.8585 O.2       1 ALC1        0.0000 
     51 O           5.2060    9.1210   14.0150 O.2       7 ALL1        0.0000 
     52 O           3.6040    7.2110   13.7020 O.2       4 ALP1        0.0000 
     53 O           5.1475    7.3865   14.0955 O.2       1 ALC1        0.0000 
     54 O           5.0890    5.6520   14.1760 O.2       4 ALP1        0.0000 
     55 CA          9.0130   10.5085   12.1835 C.3       3 GLC5        0.0000 
     56 CA          7.0440   10.2290   12.8640 C.3       9 GLL5        0.0000 
     57 CA         10.9820   10.7880   11.5030 C.3       6 GLP5        0.0000 
     58 CA          6.3640   12.0025   12.6250 C.3       3 GLC5        0.0000 
     59 CA          5.6840   13.7760   12.3860 C.3       6 GLP5        0.0000 
     60 O           6.7665    7.9315    5.8670 O.2       1 ALC1        0.0000 
     61 O           6.9170    8.0130    7.2300 O.2       7 ALL1        0.0000 
     62 O           6.6160    7.8500    4.5040 O.2       4 ALP1        0.0000 
     63 CA          4.2060    8.8350    9.7405 C.3       3 GLC5        0.0000 
     64 CA          4.9190   10.3270    9.1140 C.3       9 GLL5        0.0000 
     65 CA          3.4930    7.3430   10.3670 C.3       6 GLP5        0.0000 
     66 CA         11.5798    9.5455   23.4573 C.3       3 GLC5        0.0000 
     67 CA          9.8970    9.6590   22.3110 C.3       9 GLL5        0.0000 
     68 CA         13.5160    9.6910   23.9330 C.3       6 GLP5        0.0000 
     69 CA         10.1756    9.9449   20.0214 C.3       3 GLC5        0.0000 
     70 CA          9.9298   10.7833   13.2643 C.3       3 GLC5        0.0000 
     71 CA          5.6180    9.1502   16.1410 C.3       3 GLC5        0.0000 
     72 CA          7.0160   10.1740   15.2420 C.3       9 GLL5        0.0000 
     73 CA          4.4190    8.5420   17.6510 C.3       6 GLP5        0.0000 
     74 CA          4.7845   10.1250   13.2695 C.3       3 GLC5        0.0000 
     75 CA          6.6180    9.3430   14.0200 C.3       9 GLL5        0.0000 
     76 CA          2.7380   10.4640   13.0970 C.3       6 GLP5        0.0000 
     77 CA          8.2808    9.5587    7.6492 C.3       3 GLC5        0.0000 
     78 CA          7.1300    8.7970    9.5520 C.3       9 GLL5        0.0000 
     79 CA          9.7500   10.3420    6.3920 C.3       6 GLP5        0.0000 
     80 CA          5.0783    8.1630    9.7551 C.3       3 GLC5        0.0000 
@<TRIPOS>BOND
@<TRIPOS>SUBSTRUCTURE
     1 ALC1       22 GROUP        1 X    ALC  0     ROOT ALC X 1
     2 SEC2        1 GROUP        1 X    SEC  0     **** SEC X 2
     3 GLC5        4 GROUP        1 X    GLC  0     **** GLC X 6
     4 ALP1       24 GROUP        1 Y    ALP  0     ROOT ALP Y 8
     5 SEP2        3 GROUP        1 Y    SEP  0     **** SEP Y 9
     6 GLP5        6 GROUP        1 Y    GLP  0     **** GLP Y 13
     7 ALL1       23 GROUP        1 Z    ALL  0     ROOT ALL Z 15
     8 SEL2        2 GROUP        1 Z    SEL  0     **** SEL Z 16
     9 GLL5        5 GROUP        1 Z    GLL  0     **** GLL Z 20
@<TRIPOS>SET

