#    Name: 1nuq_NXX_1_ligand
#    Modification time : Mon Mar 24 18:55:24 2014

@<TRIPOS>MOLECULE
1nuq_NXX_1_ligand
   68    72     1     0     0
SMALL
NO_CHARGES


@<TRIPOS>ATOM
      1 O7N         4.7400    8.1760   28.4700 O.co2     1 NXX401      0.0000 
      2 C7N         5.3610    8.8870   27.6610 C.2       1 NXX401      0.0000 
      3 O8N         5.5370   10.2050   27.8340 O.co2     1 NXX401      0.0000 
      4 C3N         5.8800    8.1350   26.4850 C.ar      1 NXX401      0.0000 
      5 C4N         5.7000    6.6820   26.2370 C.ar      1 NXX401      0.0000 
      6 C5N         6.3220    6.1380   24.9460 C.ar      1 NXX401      0.0000 
      7 C6N         6.9840    6.9740   24.1270 C.ar      1 NXX401      0.0000 
      8 C2N         6.6200    8.9390   25.5160 C.ar      1 NXX401      0.0000 
      9 N1N         7.1630    8.3900   24.3730 N.pl3     1 NXX401      0.0000 
     10 C1M         7.8890    9.2750   23.4830 C.3       1 NXX401      0.0000 
     11 C2M         9.3900    9.1410   23.6520 C.3       1 NXX401      0.0000 
     12 O2M         9.9120    9.8970   24.7550 O.3       1 NXX401      0.0000 
     13 C3M         9.8970    9.6590   22.3110 C.3       1 NXX401      0.0000 
     14 O3M         9.9510   11.1100   22.3140 O.3       1 NXX401      0.0000 
     15 O4M         7.6070    8.9690   22.1310 O.3       1 NXX401      0.0000 
     16 C4M         8.8000    9.1880   21.3420 C.3       1 NXX401      0.0000 
     17 C5M         9.0860    7.9260   20.6070 C.3       1 NXX401      0.0000 
     18 O5M         9.5240    8.3770   19.2980 O.3       1 NXX401      0.0000 
     19 PN          9.9350    7.3350   18.1730 P.3       1 NXX401      0.0000 
     20 O1N        10.8930    6.3370   18.7310 O.co2     1 NXX401      0.0000 
     21 O2N         8.7910    6.7150   17.4200 O.co2     1 NXX401      0.0000 
     22 O3A        10.6140    8.4380   17.2090 O.3       1 NXX401      0.0000 
     23 PA         10.9120    8.3270   15.6510 P.3       1 NXX401      0.0000 
     24 O1A        10.7370    6.9290   15.1540 O.co2     1 NXX401      0.0000 
     25 O2A        12.2680    8.9410   15.4240 O.co2     1 NXX401      0.0000 
     26 O5B         9.8140    9.2300   14.8830 O.3       1 NXX401      0.0000 
     27 C5B         9.5360   10.5990   15.3460 C.3       1 NXX401      0.0000 
     28 C4B         8.2190   10.9580   14.7050 C.3       1 NXX401      0.0000 
     29 C3B         7.0160   10.1740   15.2420 C.3       1 NXX401      0.0000 
     30 O3B         6.0070   11.1040   15.6980 O.3       1 NXX401      0.0000 
     31 C2B         6.6180    9.3430   14.0200 C.3       1 NXX401      0.0000 
     32 O2P         5.2060    9.1210   14.0150 O.3       1 NXX401      0.0000 
     33 C1B         7.0440   10.2290   12.8640 C.3       1 NXX401      0.0000 
     34 O4B         8.2410   10.7070   13.2900 O.3       1 NXX401      0.0000 
     35 N9A         7.2990    9.5070   11.6210 N.pl3     1 NXX401      0.0000 
     36 C8A         8.2970    8.6080   11.3420 C.2       1 NXX401      0.0000 
     37 N7A         8.2440    8.1310   10.0780 N.2       1 NXX401      0.0000 
     38 C5A         7.1300    8.7970    9.5520 C.ar      1 NXX401      0.0000 
     39 C4A         6.5380    9.6270   10.4990 C.ar      1 NXX401      0.0000 
     40 C6A         6.4930    8.7540    8.2610 C.ar      1 NXX401      0.0000 
     41 N6A         6.9170    8.0130    7.2300 N.pl3     1 NXX401      0.0000 
     42 N1A         5.3760    9.5510    8.0680 N.ar      1 NXX401      0.0000 
     43 C2A         4.9190   10.3270    9.1140 C.ar      1 NXX401      0.0000 
     44 N3A         5.4440   10.4230   10.3340 N.ar      1 NXX401      0.0000 
     45 H           5.2268    6.0998   26.8346 H         1 NXX401      0.0000 
     46 H           6.1894    5.1474   24.7871 H         1 NXX401      0.0000 
     47 H           7.4188    6.6132   23.2316 H         1 NXX401      0.0000 
     48 H           6.7211    9.9464   25.7240 H         1 NXX401      0.0000 
     49 H           7.6347   10.3115   23.6906 H         1 NXX401      0.0000 
     50 H           9.6230    8.0976   23.6977 H         1 NXX401      0.0000 
     51 H          10.7899    9.1923   22.0675 H         1 NXX401      0.0000 
     52 H           8.6076    9.9890   20.6362 H         1 NXX401      0.0000 
     53 H           8.1893    7.3395   20.5343 H         1 NXX401      0.0000 
     54 H           9.8646    7.3838   21.1101 H         1 NXX401      0.0000 
     55 H          10.2935   11.2782   15.0074 H         1 NXX401      0.0000 
     56 H           9.4322   10.6280   16.4129 H         1 NXX401      0.0000 
     57 H           8.0115   12.0169   14.8756 H         1 NXX401      0.0000 
     58 H           7.3754    9.5232   15.9952 H         1 NXX401      0.0000 
     59 H           7.1971    8.4660   14.0131 H         1 NXX401      0.0000 
     60 H           6.3276   10.9958   12.7381 H         1 NXX401      0.0000 
     61 H           8.9827    8.3419   12.0070 H         1 NXX401      0.0000 
     62 H           6.7500    8.3901    6.3190 H         1 NXX401      0.0000 
     63 H           7.3628    7.1488    7.4631 H         1 NXX401      0.0000 
     64 H           4.0297   10.9196    8.8996 H         1 NXX401      0.0000 
     65 H           9.2319    9.7980   25.4814 H         1 NXX401      0.0000 
     66 H          10.9235   11.3325   22.3828 H         1 NXX401      0.0000 
     67 H           6.5167   11.8440   16.1369 H         1 NXX401      0.0000 
     68 H           5.1005    8.1266   14.0208 H         1 NXX401      0.0000 
@<TRIPOS>BOND
     1    2    1 ar   
     2    3    2 ar   
     3    4    2 1    
     4    5    4 ar   
     5    8    4 ar   
     6    6    5 ar   
     7   45    5 1    
     8    7    6 ar   
     9   46    6 1    
    10    9    7 ar   
    11   47    7 1    
    12    9    8 ar   
    13   48    8 1    
    14   10    9 1    
    15   11   10 1    
    16   15   10 1    
    17   49   10 1    
    18   12   11 1    
    19   13   11 1    
    20   50   11 1    
    21   65   12 1    
    22   14   13 1    
    23   16   13 1    
    24   51   13 1    
    25   66   14 1    
    26   16   15 1    
    27   17   16 1    
    28   52   16 1    
    29   18   17 1    
    30   53   17 1    
    31   54   17 1    
    32   19   18 1    
    33   20   19 ar   
    34   21   19 ar   
    35   22   19 1    
    36   23   22 1    
    37   24   23 ar   
    38   25   23 ar   
    39   26   23 1    
    40   27   26 1    
    41   28   27 1    
    42   55   27 1    
    43   56   27 1    
    44   29   28 1    
    45   34   28 1    
    46   57   28 1    
    47   30   29 1    
    48   31   29 1    
    49   58   29 1    
    50   67   30 1    
    51   32   31 1    
    52   33   31 1    
    53   59   31 1    
    54   68   32 1    
    55   34   33 1    
    56   35   33 1    
    57   60   33 1    
    58   36   35 1    
    59   39   35 1    
    60   37   36 2    
    61   61   36 1    
    62   38   37 1    
    63   39   38 ar   
    64   40   38 ar   
    65   44   39 ar   
    66   41   40 1    
    67   42   40 ar   
    68   62   41 1    
    69   63   41 1    
    70   43   42 ar   
    71   44   43 ar   
    72   64   43 1    
@<TRIPOS>SUBSTRUCTURE
     1 NXX401      1 GROUP   
@<TRIPOS>SET

