#    Name: 2ojj_82A_1_INTS_M
#    Modification time : Tue Mar 25 22:48:18 2014

@<TRIPOS>MOLECULE
2ojj_82A_1_INTS_M
   75     0     9     0     0
SMALL
NO_CHARGES


@<TRIPOS>ATOM
      1 CA        -17.4335   10.8255   38.0630 C.3       3 GLC5        0.0000 
      2 CA        -15.3650   10.7910   38.9080 C.3       9 GLL5        0.0000 
      3 CA        -19.5020   10.8600   37.2180 C.3       6 GLP5        0.0000 
      4 CA        -15.6205    9.1480   37.7025 C.3       3 GLC5        0.0000 
      5 CA        -15.8760    7.5050   36.4970 C.3       6 GLP5        0.0000 
      6 CA        -19.8505   13.9330   40.3090 C.3       3 GLC5        0.0000 
      7 CA        -18.8210   12.7250   41.5930 C.3       9 GLL5        0.0000 
      8 CA        -20.8800   15.1410   39.0250 C.3       6 GLP5        0.0000 
      9 CA        -19.9945   11.2430   42.5890 C.3       3 GLC5        0.0000 
     10 CA        -21.1680    9.7610   43.5850 C.3       6 GLP5        0.0000 
     11 CA        -15.7745   16.0720   39.2190 C.3       3 GLC5        0.0000 
     12 CA        -15.5100   16.3220   41.2980 C.3       9 GLL5        0.0000 
     13 CA        -16.0390   15.8220   37.1400 C.3       6 GLP5        0.0000 
     14 N         -10.5810   11.6085   37.4410 N.am      2 SEC2        0.0000 
     15 N         -11.2670   11.5630   38.6150 N.am      8 SEL2        0.0000 
     16 N          -9.8950   11.6540   36.2670 N.am      5 SEP2        0.0000 
     17 N         -10.8580   10.1185   38.5710 N.am      2 SEC2        0.0000 
     18 N         -10.4490    8.6740   38.5270 N.am      5 SEP2        0.0000 
     19 CA        -12.4910   12.6235   37.5270 C.3       3 GLC5        0.0000 
     20 CA        -13.4560   11.8120   39.3730 C.3       9 GLL5        0.0000 
     21 CA        -11.5260   13.4350   35.6810 C.3       6 GLP5        0.0000 
     22 CA        -13.8115    9.7400   39.5900 C.3       3 GLC5        0.0000 
     23 CA        -14.1670    7.6680   39.8070 C.3       6 GLP5        0.0000 
     24 CA        -12.5475   11.1020   41.3005 C.3       3 GLC5        0.0000 
     25 CA        -11.6390   10.3920   43.2280 C.3       6 GLP5        0.0000 
     26 O         -13.6650   10.0420   37.6000 O.2       1 ALC1        0.0000 
     27 O         -14.0580   10.8570   38.5930 O.2       7 ALL1        0.0000 
     28 O         -13.2720    9.2270   36.6070 O.2       4 ALP1        0.0000 
     29 CA        -14.6370   16.3195   38.6705 C.3       3 GLC5        0.0000 
     30 CA        -14.6630   17.3360   40.1770 C.3       9 GLL5        0.0000 
     31 CA        -14.6110   15.3030   37.1640 C.3       6 GLP5        0.0000 
     32 CA        -11.9190   18.6495   35.4590 C.3       3 GLC5        0.0000 
     33 CA        -10.0380   18.2980   36.5590 C.3       9 GLL5        0.0000 
     34 CA        -13.8000   19.0010   34.3590 C.3       6 GLP5        0.0000 
     35 CA         -6.1395   15.9685   35.1320 C.3       3 GLC5        0.0000 
     36 CA         -7.9440   16.2140   35.9090 C.3       9 GLL5        0.0000 
     37 CA         -4.3350   15.7230   34.3550 C.3       6 GLP5        0.0000 
     38 CA         -9.0605   17.4930   34.5815 C.3       3 GLC5        0.0000 
     39 CA        -10.1770   18.7720   33.2540 C.3       6 GLP5        0.0000 
     40 CA         -8.6900   15.3730   34.3530 C.3       3 GLC5        0.0000 
     41 CA         -9.4360   14.5320   32.7970 C.3       6 GLP5        0.0000 
     42 CA        -16.2525   12.9527   38.3560 C.3       3 GLC5        0.0000 
     43 CA        -17.0040   14.6610   37.3100 C.3       6 GLP5        0.0000 
     44 CA        -14.8340    9.4563   39.6045 C.3       3 GLC5        0.0000 
     45 CA        -15.6370   11.6980   39.8960 C.3       9 GLL5        0.0000 
     46 CA        -16.2583   12.6785   43.1090 C.3       3 GLC5        0.0000 
     47 CA        -17.5190   13.0330   41.3010 C.3       9 GLL5        0.0000 
     48 CA        -15.3410   11.6900   44.6880 C.3       6 GLP5        0.0000 
     49 CA        -17.9742   16.0630   42.1343 C.3       3 GLC5        0.0000 
     50 CA        -16.8760   14.6680   43.1410 C.3       9 GLL5        0.0000 
     51 CA        -19.3890   16.8690   40.9060 C.3       6 GLP5        0.0000 
     52 CA        -15.9502   13.4735   44.0252 C.3       3 GLC5        0.0000 
     53 CA        -17.4625   16.6827   41.4438 C.3       3 GLC5        0.0000 
     54 CA        -15.5620   16.6710   42.6650 C.3       9 GLL5        0.0000 
     55 CA        -15.7558   18.5540   40.2257 C.3       3 GLC5        0.0000 
     56 CA        -16.4250   20.2790   39.7140 C.3       6 GLP5        0.0000 
     57 CA        -18.0239   15.6385   41.0460 C.3       3 GLC5        0.0000 
     58 CA        -16.1420   15.1490   40.8420 C.3       9 GLL5        0.0000 
     59 CA        -16.8314   14.5345   39.2480 C.3       3 GLC5        0.0000 
     60 CA        -16.8320   14.3010   41.7590 C.3       9 GLL5        0.0000 
     61 CA        -12.8258   15.9413   37.9933 C.3       3 GLC5        0.0000 
     62 CA        -11.0190   17.1410   38.3980 C.3       9 GLL5        0.0000 
     63 CA        -10.1135   18.2635   35.1080 C.3       3 GLC5        0.0000 
     64 CA        -10.0620   17.2120   37.3650 C.3       9 GLL5        0.0000 
     65 CA         -8.7982   12.4675   41.1090 C.3       3 GLC5        0.0000 
     66 CA        -10.2010   13.7330   39.9910 C.3       9 GLL5        0.0000 
     67 CA         -7.6520   11.0220   41.5230 C.3       6 GLP5        0.0000 
     68 CA        -14.2725   13.6910   38.4730 C.3       3 GLC5        0.0000 
     69 CA        -15.1692   10.7726   41.4373 C.3       3 GLC5        0.0000 
     70 CA        -14.4120   12.3460   40.1910 C.3       9 GLL5        0.0000 
     71 CA        -15.3820    9.7500   43.0780 C.3       6 GLP5        0.0000 
     72 CA         -9.8576   19.3051   37.7461 C.3       3 GLC5        0.0000 
     73 CA         -9.4260   20.8730   38.2720 C.3       6 GLP5        0.0000 
     74 CA        -10.6355   14.6999   36.8087 C.3       3 GLC5        0.0000 
     75 CA        -11.0620   16.0180   39.2470 C.3       9 GLL5        0.0000 
@<TRIPOS>BOND
@<TRIPOS>SUBSTRUCTURE
     1 ALC1       26 GROUP        1 X    ALC  0     ROOT ALC X 1
     2 SEC2       14 GROUP        1 X    SEC  0     **** SEC X 2
     3 GLC5        1 GROUP        1 X    GLC  0     **** GLC X 6
     4 ALP1       28 GROUP        1 Y    ALP  0     ROOT ALP Y 8
     5 SEP2       16 GROUP        1 Y    SEP  0     **** SEP Y 9
     6 GLP5        3 GROUP        1 Y    GLP  0     **** GLP Y 13
     7 ALL1       27 GROUP        1 Z    ALL  0     ROOT ALL Z 15
     8 SEL2       15 GROUP        1 Z    SEL  0     **** SEL Z 16
     9 GLL5        2 GROUP        1 Z    GLL  0     **** GLL Z 20
@<TRIPOS>SET

