#    Name: 2ojj_82A_1_ligand
#    Modification time : Tue Mar 25 22:48:19 2014

@<TRIPOS>MOLECULE
2ojj_82A_1_ligand
   48    51     1     0     0
SMALL
NO_CHARGES


@<TRIPOS>ATOM
      1 C11       -15.3650   10.7910   38.9080 C.2       1 82A360      0.0000 
      2 C14       -17.0040   11.9200   40.5070 C.2       1 82A360      0.0000 
      3 N16       -19.1210   11.5370   41.0460 N.pl3     1 82A360      0.0000 
      4 C18       -18.8210   12.7250   41.5930 C.2       1 82A360      0.0000 
      5 C19       -17.5190   13.0330   41.3010 C.2       1 82A360      0.0000 
      6 C20       -16.8320   14.3010   41.7590 C.ar      1 82A360      0.0000 
      7 C21       -16.8760   14.6680   43.1410 C.ar      1 82A360      0.0000 
      8 C22       -16.2430   15.8460   43.5840 C.ar      1 82A360      0.0000 
      9 C23       -15.5620   16.6710   42.6650 C.ar      1 82A360      0.0000 
     10 C24       -15.5100   16.3220   41.2980 C.ar      1 82A360      0.0000 
     11 C26       -16.1420   15.1490   40.8420 C.ar      1 82A360      0.0000 
     12 C27       -10.1420   14.9500   39.0730 C.ar      1 82A360      0.0000 
     13 C29       -11.0190   17.1410   38.3980 C.ar      1 82A360      0.0000 
     14 C30       -10.0620   17.2120   37.3650 C.ar      1 82A360      0.0000 
     15 O1        -10.7570   14.0480   42.3490 O.3       1 82A360      0.0000 
     16 C2         -9.6880   14.0930   41.3990 C.3       1 82A360      0.0000 
     17 C3        -10.2010   13.7330   39.9910 C.3       1 82A360      0.0000 
     18 N5        -11.6050   13.2710   40.0360 N.am      1 82A360      0.0000 
     19 C6        -12.0370   12.1940   39.3230 C.2       1 82A360      0.0000 
     20 O7        -11.2670   11.5630   38.6150 O.2       1 82A360      0.0000 
     21 C8        -13.4560   11.8120   39.3730 C.2       1 82A360      0.0000 
     22 C9        -14.4120   12.3460   40.1910 C.2       1 82A360      0.0000 
     23 C10       -15.6370   11.6980   39.8960 C.2       1 82A360      0.0000 
     24 N12       -14.0580   10.8570   38.5930 N.pl3     1 82A360      0.0000 
     25 N15       -17.9950   11.0550   40.3820 N.2       1 82A360      0.0000 
     26 CL25      -14.6630   17.3360   40.1770 Cl        1 82A360      0.0000 
     27 C28       -11.0620   16.0180   39.2470 C.ar      1 82A360      0.0000 
     28 F31       -10.0380   18.2980   36.5590 F         1 82A360      0.0000 
     29 C32        -9.1350   16.1460   37.1820 C.ar      1 82A360      0.0000 
     30 CL33       -7.9440   16.2140   35.9090 Cl        1 82A360      0.0000 
     31 C34        -9.1810   15.0170   38.0390 C.ar      1 82A360      0.0000 
     32 H         -16.0188   10.2005   38.5071 H         1 82A360      0.0000 
     33 H         -19.9607   11.0726   41.0881 H         1 82A360      0.0000 
     34 H         -19.4155   13.2842   42.1112 H         1 82A360      0.0000 
     35 H         -17.3707   14.0672   43.8015 H         1 82A360      0.0000 
     36 H         -16.2769   16.1038   44.5729 H         1 82A360      0.0000 
     37 H         -15.1034   17.5263   42.9897 H         1 82A360      0.0000 
     38 H         -16.1110   14.8972   39.8529 H         1 82A360      0.0000 
     39 H         -11.6837   17.9076   38.5307 H         1 82A360      0.0000 
     40 H          -8.8895   13.3825   41.6490 H         1 82A360      0.0000 
     41 H          -9.2373   15.0921   41.3387 H         1 82A360      0.0000 
     42 H          -9.5731   12.9656   39.5781 H         1 82A360      0.0000 
     43 H         -12.2417   13.8163   40.6433 H         1 82A360      0.0000 
     44 H         -14.3056   13.0217   40.8411 H         1 82A360      0.0000 
     45 H         -13.6029   10.3244   37.9274 H         1 82A360      0.0000 
     46 H         -11.7581   15.9663   39.9950 H         1 82A360      0.0000 
     47 H          -8.5177   14.2524   37.9069 H         1 82A360      0.0000 
     48 H         -10.8597   14.9903   42.6677 H         1 82A360      0.0000 
@<TRIPOS>BOND
     1   23    1 2    
     2   24    1 1    
     3   32    1 1    
     4    5    2 1    
     5   23    2 1    
     6   25    2 2    
     7    4    3 1    
     8   25    3 1    
     9   33    3 1    
    10    5    4 2    
    11   34    4 1    
    12    6    5 1    
    13    7    6 ar   
    14   11    6 ar   
    15    8    7 ar   
    16   35    7 1    
    17    9    8 ar   
    18   36    8 1    
    19   10    9 ar   
    20   37    9 1    
    21   11   10 ar   
    22   26   10 1    
    23   38   11 1    
    24   17   12 1    
    25   27   12 ar   
    26   31   12 ar   
    27   14   13 ar   
    28   27   13 ar   
    29   39   13 1    
    30   28   14 1    
    31   29   14 ar   
    32   16   15 1    
    33   48   15 1    
    34   17   16 1    
    35   40   16 1    
    36   41   16 1    
    37   18   17 1    
    38   42   17 1    
    39   19   18 am   
    40   43   18 1    
    41   20   19 2    
    42   21   19 1    
    43   22   21 2    
    44   24   21 1    
    45   23   22 1    
    46   44   22 1    
    47   45   24 1    
    48   46   27 1    
    49   30   29 1    
    50   31   29 ar   
    51   47   31 1    
@<TRIPOS>SUBSTRUCTURE
     1 82A360      1 GROUP   
@<TRIPOS>SET

