#    Name: 2y6f_M9F_1_INTS_M
#    Modification time : Tue Mar 25 07:42:59 2014

@<TRIPOS>MOLECULE
2y6f_M9F_1_INTS_M
   61     0     9     0     0
SMALL
NO_CHARGES


@<TRIPOS>ATOM
      1 NZ         19.0875   36.6325    4.0265 N.4       2 LYC4        0.0000 
      2 NZ         17.7890   36.9840    4.4630 N.4       8 LYL4        0.0000 
      3 NZ         21.4270   36.5720    4.4110 N.4       5 LYP4        0.0000 
      4 N          19.0875   36.6325    4.0265 N.am      1 SEC2        0.0000 
      5 N          17.7890   36.9840    4.4630 N.am      7 SEL2        0.0000 
      6 N          20.3860   36.2810    3.5900 N.am      4 SEP2        0.0000 
      7 N          17.2625   35.8845    3.7965 N.am      1 SEC2        0.0000 
      8 N          16.7360   34.7850    3.1300 N.am      4 SEP2        0.0000 
      9 CA         15.5855   41.1520    4.7860 C.3       3 GLC5        0.0000 
     10 CA         13.6720   40.4410    5.3470 C.3       9 GLL5        0.0000 
     11 CA         17.4990   41.8630    4.2250 C.3       6 GLP5        0.0000 
     12 CA         13.2220   42.3285    5.2425 C.3       3 GLC5        0.0000 
     13 CA         12.7720   44.2160    5.1380 C.3       6 GLP5        0.0000 
     14 CA         16.5580   35.6245    6.8725 C.3       3 GLC5        0.0000 
     15 CA         16.1510   37.4890    6.1520 C.3       9 GLL5        0.0000 
     16 CA         16.9650   33.7600    7.5930 C.3       6 GLP5        0.0000 
     17 CA         14.6865   35.9865    6.0290 C.3       3 GLC5        0.0000 
     18 CA         13.2220   34.4840    5.9060 C.3       6 GLP5        0.0000 
     19 CA         16.5550   40.3170    4.8435 C.3       3 GLC5        0.0000 
     20 CA         15.6110   38.7710    5.4620 C.3       9 GLL5        0.0000 
     21 NZ         19.8680   37.2615    6.0515 N.4       2 LYC4        0.0000 
     22 NZ         18.5560   37.3380    6.5370 N.4       8 LYL4        0.0000 
     23 N          19.8680   37.2615    6.0515 N.am      1 SEC2        0.0000 
     24 N          18.5560   37.3380    6.5370 N.am      7 SEL2        0.0000 
     25 N          21.1800   37.1850    5.5660 N.am      4 SEP2        0.0000 
     26 CA          9.2415   42.6130    6.0860 C.3       3 GLC5        0.0000 
     27 CA          9.8540   40.8790    5.1950 C.3       9 GLL5        0.0000 
     28 CA          8.6290   44.3470    6.9770 C.3       6 GLP5        0.0000 
     29 CA          8.6015   43.0970    4.9365 C.3       3 GLC5        0.0000 
     30 CA          9.4380   41.8610    4.0210 C.3       9 GLL5        0.0000 
     31 CA          7.7650   44.3330    5.8520 C.3       6 GLP5        0.0000 
     32 CA         10.8850   39.8035    1.5420 C.3       3 GLC5        0.0000 
     33 CA          9.7560   41.2200    2.2770 C.3       9 GLL5        0.0000 
     34 CA         12.0140   38.3870    0.8070 C.3       6 GLP5        0.0000 
     35 CA          2.9815   39.9165    1.4055 C.3       3 GLC5        0.0000 
     36 CA          4.6040   40.2220    1.7270 C.3       9 GLL5        0.0000 
     37 CA          1.3590   39.6110    1.0840 C.3       6 GLP5        0.0000 
     38 CA          6.2665   35.8270    1.4320 C.3       3 GLC5        0.0000 
     39 CA          6.6160   37.6230    2.1150 C.3       9 GLL5        0.0000 
     40 CA          5.9170   34.0310    0.7490 C.3       6 GLP5        0.0000 
     41 CA          8.1825   36.2075    1.8665 C.3       3 GLC5        0.0000 
     42 CA          9.7490   34.7920    1.6180 C.3       6 GLP5        0.0000 
     43 CA          7.2075   37.3340    5.5745 C.3       3 GLC5        0.0000 
     44 CA          6.7820   38.8640    4.5070 C.3       9 GLL5        0.0000 
     45 CA          7.6330   35.8040    6.6420 C.3       6 GLP5        0.0000 
     46 N           4.6975   36.5210    4.3045 N.am      1 SEC2        0.0000 
     47 N           4.6200   37.8460    4.6880 N.am      7 SEL2        0.0000 
     48 N           4.7750   35.1960    3.9210 N.am      4 SEP2        0.0000 
     49 N           4.5470   39.5030    7.1275 N.am      1 SEC2        0.0000 
     50 N           5.2700   39.5460    6.0570 N.am      7 SEL2        0.0000 
     51 N           3.8240   39.4600    8.1980 N.am      4 SEP2        0.0000 
     52 CA         13.7516   38.1352    4.1568 C.3       3 GLC5        0.0000 
     53 CA         12.7490   36.9980    2.7470 C.3       6 GLP5        0.0000 
     54 CA         11.2090   42.7930    4.8730 C.3       3 GLC5        0.0000 
     55 CA          9.0925   43.1668    2.4545 C.3       3 GLC5        0.0000 
     56 CA          8.5880   44.7930    1.7600 C.3       6 GLP5        0.0000 
     57 CA          5.2627   41.7018    0.6795 C.3       3 GLC5        0.0000 
     58 CA          6.2310   40.6230    2.4330 C.3       9 GLL5        0.0000 
     59 CA          5.1080   42.9810   -0.7210 C.3       6 GLP5        0.0000 
     60 CA          3.9577   40.9172    3.3215 C.3       3 GLC5        0.0000 
     61 CA          2.4980   41.4120    4.5630 C.3       6 GLP5        0.0000 
@<TRIPOS>BOND
@<TRIPOS>SUBSTRUCTURE
     1 SEC2        4 GROUP        1 X    SEC  0     ROOT SEC X 2
     2 LYC4        1 GROUP        1 X    LYC  0     **** LYC X 4
     3 GLC5        9 GROUP        1 X    GLC  0     **** GLC X 6
     4 SEP2        6 GROUP        1 Y    SEP  0     ROOT SEP Y 9
     5 LYP4        3 GROUP        1 Y    LYP  0     **** LYP Y 11
     6 GLP5       11 GROUP        1 Y    GLP  0     **** GLP Y 13
     7 SEL2        5 GROUP        1 Z    SEL  0     ROOT SEL Z 16
     8 LYL4        2 GROUP        1 Z    LYL  0     **** LYL Z 18
     9 GLL5       10 GROUP        1 Z    GLL  0     **** GLL Z 20
@<TRIPOS>SET

