#    Name: 2y6f_M9F_1_ligand
#    Modification time : Tue Mar 25 07:42:59 2014

@<TRIPOS>MOLECULE
2y6f_M9F_1_ligand
   48    47     1     0     0
SMALL
NO_CHARGES


@<TRIPOS>ATOM
      1 CAU        12.2140   40.7150    5.7970 C.2       1 M9F1332     0.0000 
      2 OAV        11.9310   40.9960    6.9390 O.2       1 M9F1332     0.0000 
      3 O          17.7890   36.9840    4.4630 O.co2     1 M9F1332     0.0000 
      4 CAT        13.6720   40.4410    5.3470 C.3       1 M9F1332     0.0000 
      5 C          17.6210   37.2410    5.6670 C.2       1 M9F1332     0.0000 
      6 CA         16.1510   37.4890    6.1520 C.3       1 M9F1332     0.0000 
      7 CB         15.6110   38.7710    5.4620 C.3       1 M9F1332     0.0000 
      8 CAS        14.1230   39.1070    5.9950 C.3       1 M9F1332     0.0000 
      9 N          16.1760   37.5470    7.6800 N.4       1 M9F1332     0.0000 
     10 OXT        18.5560   37.3380    6.5370 O.co2     1 M9F1332     0.0000 
     11 NAC        11.2750   40.6420    4.8650 N.am      1 M9F1332     0.0000 
     12 CAD         9.8540   40.8790    5.1950 C.3       1 M9F1332     0.0000 
     13 CAG         9.0790   39.5700    4.9730 C.2       1 M9F1332     0.0000 
     14 OAH         9.5810   38.4470    4.7140 O.2       1 M9F1332     0.0000 
     15 CAE         9.4380   41.8610    4.0210 C.3       1 M9F1332     0.0000 
     16 SAF         9.7560   41.2200    2.2770 S.3       1 M9F1332     0.0000 
     17 CAN         4.6040   40.2220    1.7270 C.3       1 M9F1332     0.0000 
     18 SAM         6.2310   40.6230    2.4330 S.3       1 M9F1332     0.0000 
     19 CAK         6.4800   38.8560    3.0570 C.3       1 M9F1332     0.0000 
     20 CAO         6.6160   37.6230    2.1150 C.3       1 M9F1332     0.0000 
     21 CAJ         6.7820   38.8640    4.5070 C.3       1 M9F1332     0.0000 
     22 CAP         5.4970   38.6680    5.1850 C.2       1 M9F1332     0.0000 
     23 OAR         4.6200   37.8460    4.6880 O.co2     1 M9F1332     0.0000 
     24 OAQ         5.2700   39.5460    6.0570 O.co2     1 M9F1332     0.0000 
     25 NAI         7.8000   39.7550    5.0450 N.am      1 M9F1332     0.0000 
     26 H          14.3042   41.2340    5.6908 H         1 M9F1332     0.0000 
     27 H          13.7021   40.3455    4.2808 H         1 M9F1332     0.0000 
     28 H          15.5710   36.6420    5.8311 H         1 M9F1332     0.0000 
     29 H          15.5494   38.6210    4.4002 H         1 M9F1332     0.0000 
     30 H          16.2381   39.6102    5.6992 H         1 M9F1332     0.0000 
     31 H          13.4827   38.3122    5.6904 H         1 M9F1332     0.0000 
     32 H          14.1735   39.2082    7.0541 H         1 M9F1332     0.0000 
     33 H          11.4711   40.4205    3.8740 H         1 M9F1332     0.0000 
     34 H           9.6964   41.3075    6.0755 H         1 M9F1332     0.0000 
     35 H          10.0012   42.7742    4.0187 H         1 M9F1332     0.0000 
     36 H           8.3829   42.0528    3.9887 H         1 M9F1332     0.0000 
     37 H           5.1137   38.7664    3.2358 H         1 M9F1332     0.0000 
     38 H           7.2704   37.7465    4.6276 H         1 M9F1332     0.0000 
     39 H           7.3908   40.6225    5.5315 H         1 M9F1332     0.0000 
     40 H          15.6004   36.8384    8.0880 H         1 M9F1332     0.0000 
     41 H          17.0995   37.4186    8.0415 H         1 M9F1332     0.0000 
     42 H          15.8463   38.4264    8.0237 H         1 M9F1332     0.0000 
     43 H           4.6396   39.4038    1.1532 H         1 M9F1332     0.0000 
     44 H           3.9222   40.0517    2.4384 H         1 M9F1332     0.0000 
     45 H           4.2533   40.9648    1.1568 H         1 M9F1332     0.0000 
     46 H           7.4008   37.7093    1.5013 H         1 M9F1332     0.0000 
     47 H           6.7382   36.7743    2.6295 H         1 M9F1332     0.0000 
     48 H           5.8063   37.5035    1.5404 H         1 M9F1332     0.0000 
@<TRIPOS>BOND
     1    2    1 2    
     2    4    1 1    
     3   11    1 am   
     4    5    3 ar   
     5    8    4 1    
     6   26    4 1    
     7   27    4 1    
     8    6    5 1    
     9   10    5 ar   
    10    7    6 1    
    11    9    6 1    
    12   28    6 1    
    13    8    7 1    
    14   29    7 1    
    15   30    7 1    
    16   31    8 1    
    17   32    8 1    
    18   40    9 1    
    19   41    9 1    
    20   42    9 1    
    21   12   11 1    
    22   33   11 1    
    23   13   12 1    
    24   15   12 1    
    25   34   12 1    
    26   14   13 2    
    27   25   13 am   
    28   16   15 1    
    29   35   15 1    
    30   36   15 1    
    31   18   17 1    
    32   43   17 1    
    33   44   17 1    
    34   45   17 1    
    35   19   18 1    
    36   20   19 1    
    37   21   19 1    
    38   37   19 1    
    39   46   20 1    
    40   47   20 1    
    41   48   20 1    
    42   22   21 1    
    43   25   21 1    
    44   38   21 1    
    45   23   22 ar   
    46   24   22 ar   
    47   39   25 1    
@<TRIPOS>SUBSTRUCTURE
     1 M9F1332     1 GROUP   
@<TRIPOS>SET

