#    Name: 3ni2_AYL_1_INTS_M
#    Modification time : Tue Mar 25 01:36:11 2014

@<TRIPOS>MOLECULE
3ni2_AYL_1_INTS_M
  100     0    12     0     0
SMALL
NO_CHARGES


@<TRIPOS>ATOM
      1 CA         -6.8200   13.7135  -30.9175 C.3       4 GLC5        0.0000 
      2 CA         -6.2960   11.6880  -31.3150 C.3      12 GLL5        0.0000 
      3 CA         -7.3440   15.7390  -30.5200 C.3       8 GLP5        0.0000 
      4 CA         -6.5440   12.9530  -32.6465 C.3       4 GLC5        0.0000 
      5 CA         -6.7920   14.2180  -33.9780 C.3       8 GLP5        0.0000 
      6 CA         -5.7855    9.9330  -30.7365 C.3       4 GLC5        0.0000 
      7 CA         -5.2750    8.1780  -30.1580 C.3       8 GLP5        0.0000 
      8 CA         -5.4940   14.3210  -28.0250 C.3       4 GLC5        0.0000 
      9 CA         -5.3190   12.4250  -28.8990 C.3      12 GLL5        0.0000 
     10 CA         -5.6690   16.2170  -27.1510 C.3       8 GLP5        0.0000 
     11 O          -2.4465   12.8150  -31.2825 O.2       1 ALC1        0.0000 
     12 O          -3.1750   12.4910  -29.8850 O.2       9 ALL1        0.0000 
     13 O          -1.7180   13.1390  -32.6800 O.2       5 ALP1        0.0000 
     14 O          -2.1580   12.7805  -28.8370 O.2       1 ALC1        0.0000 
     15 O          -1.1410   13.0700  -27.7890 O.2       5 ALP1        0.0000 
     16 N          -4.7055   14.3485  -27.5870 N.am      2 SEC2        0.0000 
     17 N          -5.0970   12.8660  -27.6620 N.am     10 SEL2        0.0000 
     18 N          -4.3140   15.8310  -27.5120 N.am      6 SEP2        0.0000 
     19 CA        -10.1150   13.9015  -27.6595 C.3       4 GLC5        0.0000 
     20 CA         -8.7780   12.3430  -27.7030 C.3      12 GLL5        0.0000 
     21 CA        -11.4520   15.4600  -27.6160 C.3       8 GLP5        0.0000 
     22 N          -8.8555   12.8965  -20.3500 N.am      2 SEC2        0.0000 
     23 N          -9.8070   13.5900  -21.1750 N.am     10 SEL2        0.0000 
     24 N          -7.9040   12.2030  -19.5250 N.am      6 SEP2        0.0000 
     25 N          -9.5255   14.0675  -19.9345 N.am      2 SEC2        0.0000 
     26 N          -9.2440   14.5450  -18.6940 N.am      6 SEP2        0.0000 
     27 N         -11.2775   14.2580  -21.0820 N.am      2 SEC2        0.0000 
     28 N         -12.7480   14.9260  -20.9890 N.am      6 SEP2        0.0000 
     29 O         -10.6575    9.3370  -27.8360 O.2       1 ALC1        0.0000 
     30 O         -10.5330   10.6700  -27.7270 O.2       9 ALL1        0.0000 
     31 O         -10.7820    8.0040  -27.9450 O.2       5 ALP1        0.0000 
     32 CA         -8.3350   10.2190  -23.8285 C.3       4 GLC5        0.0000 
     33 CA         -8.9140   10.8120  -25.9170 C.3      12 GLL5        0.0000 
     34 CA         -7.7560    9.6260  -21.7400 C.3       8 GLP5        0.0000 
     35 N         -10.9340    9.4260  -24.9320 N.am      2 SEC2        0.0000 
     36 N          -9.6510    9.7230  -25.3530 N.am     10 SEL2        0.0000 
     37 N         -12.2170    9.1290  -24.5110 N.am      6 SEP2        0.0000 
     38 O         -10.2165    8.8635  -26.6490 O.2       1 ALC1        0.0000 
     39 O          -9.6510    9.7230  -25.3530 O.2       9 ALL1        0.0000 
     40 O          -9.4105    8.6305  -25.9365 O.2       1 ALC1        0.0000 
     41 O          -9.1700    7.5380  -26.5200 O.2       5 ALP1        0.0000 
     42 NZ        -10.0215   16.0805  -23.9985 N.4       3 LYC4        0.0000 
     43 NZ        -10.0350   15.9680  -22.2970 N.4      11 LYL4        0.0000 
     44 NZ        -10.0080   16.1930  -25.7000 N.4       7 LYP4        0.0000 
     45 N         -10.0215   16.0805  -23.9985 N.am      2 SEC2        0.0000 
     46 N         -10.0350   15.9680  -22.2970 N.am     10 SEL2        0.0000 
     47 N         -10.0080   16.1930  -25.7000 N.am      6 SEP2        0.0000 
     48 N         -11.3915   15.4470  -21.6430 N.am      2 SEC2        0.0000 
     49 CA        -11.7390   12.6530  -25.4225 C.3       4 GLC5        0.0000 
     50 CA         -9.5880   12.1300  -25.5430 C.3      12 GLL5        0.0000 
     51 CA        -13.8900   13.1760  -25.3020 C.3       8 GLP5        0.0000 
     52 CA        -10.5200   13.7950  -26.5795 C.3       4 GLC5        0.0000 
     53 CA         -8.1760   11.7550  -22.7865 C.3       4 GLC5        0.0000 
     54 CA         -9.2520   12.5290  -24.1060 C.3      12 GLL5        0.0000 
     55 CA         -7.1000   10.9810  -21.4670 C.3       8 GLP5        0.0000 
     56 N          -9.8900   15.0085  -24.7485 N.am      2 SEC2        0.0000 
     57 N          -9.7720   13.8240  -23.7970 N.am     10 SEL2        0.0000 
     58 CA         -4.1430   15.4225  -25.8570 C.3       4 GLC5        0.0000 
     59 CA         -2.6170   14.6280  -24.5630 C.3      12 GLL5        0.0000 
     60 CA         -2.3175   12.6715  -25.5895 C.3       4 GLC5        0.0000 
     61 CA         -2.0180   10.7150  -26.6160 C.3       8 GLP5        0.0000 
     62 CA         -3.3000   16.7575  -22.6970 C.3       4 GLC5        0.0000 
     63 CA         -3.3970   14.7560  -23.4190 C.3      12 GLL5        0.0000 
     64 CA         -3.2030   18.7590  -21.9750 C.3       8 GLP5        0.0000 
     65 CA         -4.3540   12.9060  -23.4105 C.3       4 GLC5        0.0000 
     66 CA         -4.9200   14.6220  -23.5130 C.3      12 GLL5        0.0000 
     67 CA         -3.7880   11.1900  -23.3080 C.3       8 GLP5        0.0000 
     68 CA         -4.4170   17.2850  -22.4190 C.3       4 GLC5        0.0000 
     69 CA         -5.6310   15.8110  -22.8630 C.3      12 GLL5        0.0000 
     70 CA         -0.0325   13.6930  -25.9175 C.3       4 GLC5        0.0000 
     71 CA         -1.2320   14.7170  -24.4790 C.3      12 GLL5        0.0000 
     72 CA          1.1670   12.6690  -27.3560 C.3       8 GLP5        0.0000 
     73 O           1.2405   15.3450  -21.9050 O.2       1 ALC1        0.0000 
     74 O           0.7330   15.0200  -23.1610 O.2       9 ALL1        0.0000 
     75 O           1.7480   15.6700  -20.6490 O.2       5 ALP1        0.0000 
     76 CA         -6.6705   14.0213  -29.7555 C.3       4 GLC5        0.0000 
     77 CA         -3.4595   11.5333  -28.0325 C.3       4 GLC5        0.0000 
     78 CA         -5.2575   10.2344  -29.8265 C.3       4 GLC5        0.0000 
     79 CA         -4.4830   12.2780  -29.9990 C.3      12 GLL5        0.0000 
     80 CA         -7.4385    9.6273  -26.6408 C.3       4 GLC5        0.0000 
     81 CA         -9.1520   10.8850  -27.4240 C.3      12 GLL5        0.0000 
     82 CA         -5.8440    8.4060  -26.6110 C.3       8 GLP5        0.0000 
     83 CA          0.5963   16.0093  -21.6623 C.3       4 GLC5        0.0000 
     84 CA         -0.6220   14.9360  -23.2470 C.3      12 GLL5        0.0000 
     85 CA          2.2040   17.0180  -20.6490 C.3       8 GLP5        0.0000 
     86 CA         -0.1072   13.5802  -21.7788 C.3       4 GLC5        0.0000 
     87 CA         -1.4010   15.0650  -22.1040 C.3      12 GLL5        0.0000 
     88 CA          0.7970   12.1600  -20.8820 C.3       8 GLP5        0.0000 
     89 CA         -2.4190   16.6432  -21.3700 C.3       4 GLC5        0.0000 
     90 CA         -2.7440   18.2660  -20.5930 C.3       8 GLP5        0.0000 
     91 CA         -2.4255   14.2873  -20.5540 C.3       4 GLC5        0.0000 
     92 CA         -2.7870   14.9760  -22.1900 C.3      12 GLL5        0.0000 
     93 CA         -2.7570   13.5540  -18.9610 C.3       8 GLP5        0.0000 
     94 CA         -2.0052   15.4432  -26.4500 C.3       4 GLC5        0.0000 
     95 CA         -2.0860   16.2140  -28.3790 C.3       8 GLP5        0.0000 
     96 CA         -3.3425   13.0120  -23.1992 C.3       4 GLC5        0.0000 
     97 CA         -6.1128   15.8370  -20.9850 C.3       4 GLC5        0.0000 
     98 CA         -5.8380   15.8830  -18.9940 C.3       8 GLP5        0.0000 
     99 CA         -5.9394   15.8554  -25.1447 C.3       4 GLC5        0.0000 
    100 CA         -7.1440   15.7710  -23.0890 C.3      12 GLL5        0.0000 
@<TRIPOS>BOND
@<TRIPOS>SUBSTRUCTURE
     1 ALC1       11 GROUP        1 X    ALC  0     ROOT ALC X 1
     2 SEC2       16 GROUP        1 X    SEC  0     **** SEC X 2
     3 LYC4       42 GROUP        1 X    LYC  0     **** LYC X 4
     4 GLC5        1 GROUP        1 X    GLC  0     **** GLC X 6
     5 ALP1       13 GROUP        1 Y    ALP  0     ROOT ALP Y 8
     6 SEP2       18 GROUP        1 Y    SEP  0     **** SEP Y 9
     7 LYP4       44 GROUP        1 Y    LYP  0     **** LYP Y 11
     8 GLP5        3 GROUP        1 Y    GLP  0     **** GLP Y 13
     9 ALL1       12 GROUP        1 Z    ALL  0     ROOT ALL Z 15
    10 SEL2       17 GROUP        1 Z    SEL  0     **** SEL Z 16
    11 LYL4       43 GROUP        1 Z    LYL  0     **** LYL Z 18
    12 GLL5        2 GROUP        1 Z    GLL  0     **** GLL Z 20
@<TRIPOS>SET

