#    Name: 3ni2_AYL_1_ligand
#    Modification time : Tue Mar 25 01:36:11 2014

@<TRIPOS>MOLECULE
3ni2_AYL_1_ligand
   56    59     1     0     0
SMALL
NO_CHARGES


@<TRIPOS>ATOM
      1 P          -9.3490   14.5180  -22.4080 P.3       1 AYL537      0.0000 
      2 N1         -5.0010   11.9120  -31.1800 N.ar      1 AYL537      0.0000 
      3 C2         -6.2960   11.6880  -31.3150 C.ar      1 AYL537      0.0000 
      4 N3         -7.1240   11.8180  -30.2950 N.ar      1 AYL537      0.0000 
      5 C4         -6.6750   12.1820  -29.0830 C.ar      1 AYL537      0.0000 
      6 C5         -5.3190   12.4250  -28.8990 C.ar      1 AYL537      0.0000 
      7 C6         -4.4830   12.2780  -29.9990 C.ar      1 AYL537      0.0000 
      8 N6         -3.1750   12.4910  -29.8850 N.pl3     1 AYL537      0.0000 
      9 N7         -5.0970   12.8660  -27.6620 N.2       1 AYL537      0.0000 
     10 C8         -6.3510   12.7720  -26.9020 C.2       1 AYL537      0.0000 
     11 N9         -7.3200   12.4180  -27.9460 N.pl3     1 AYL537      0.0000 
     12 C1'        -8.7780   12.3430  -27.7030 C.3       1 AYL537      0.0000 
     13 O1P        -9.8070   13.5900  -21.1750 O.co2     1 AYL537      0.0000 
     14 C2'        -9.1520   10.8850  -27.4240 C.3       1 AYL537      0.0000 
     15 O2'       -10.5330   10.6700  -27.7270 O.3       1 AYL537      0.0000 
     16 O2P        -7.7460   14.6840  -22.3790 O.3       1 AYL537      0.0000 
     17 C3'        -8.9140   10.8120  -25.9170 C.3       1 AYL537      0.0000 
     18 O3'        -9.6510    9.7230  -25.3530 O.3       1 AYL537      0.0000 
     19 O3P       -10.0350   15.9680  -22.2970 O.co2     1 AYL537      0.0000 
     20 C4'        -9.5880   12.1300  -25.5430 C.3       1 AYL537      0.0000 
     21 O4'        -9.0600   13.0700  -26.4930 O.3       1 AYL537      0.0000 
     22 C5'        -9.2520   12.5290  -24.1060 C.3       1 AYL537      0.0000 
     23 O5'        -9.7720   13.8240  -23.7970 O.3       1 AYL537      0.0000 
     24 CAC        -0.6220   14.9360  -23.2470 C.ar      1 AYL537      0.0000 
     25 CAD        -1.4010   15.0650  -22.1040 C.ar      1 AYL537      0.0000 
     26 CAH        -2.6170   14.6280  -24.5630 C.ar      1 AYL537      0.0000 
     27 CAJ        -2.7870   14.9760  -22.1900 C.ar      1 AYL537      0.0000 
     28 CAK        -3.3970   14.7560  -23.4190 C.ar      1 AYL537      0.0000 
     29 CAP        -4.9200   14.6220  -23.5130 C.3       1 AYL537      0.0000 
     30 CAQ        -5.6310   15.8110  -22.8630 C.3       1 AYL537      0.0000 
     31 CAR        -7.1440   15.7710  -23.0890 C.3       1 AYL537      0.0000 
     32 CAS        -1.2320   14.7170  -24.4790 C.ar      1 AYL537      0.0000 
     33 OBF         0.7330   15.0200  -23.1610 O.3       1 AYL537      0.0000 
     34 H          -6.6772   11.3983  -32.2608 H         1 AYL537      0.0000 
     35 H          -2.7842   12.3518  -28.9751 H         1 AYL537      0.0000 
     36 H          -2.7004   12.7712  -30.7195 H         1 AYL537      0.0000 
     37 H          -6.4851   12.8959  -26.0443 H         1 AYL537      0.0000 
     38 H          -9.3248   12.6949  -28.5173 H         1 AYL537      0.0000 
     39 H          -8.4817   10.2638  -27.9092 H         1 AYL537      0.0000 
     40 H          -7.9210   10.8623  -25.7176 H         1 AYL537      0.0000 
     41 H         -10.6375   12.0118  -25.6576 H         1 AYL537      0.0000 
     42 H          -8.1563   12.4957  -23.9983 H         1 AYL537      0.0000 
     43 H          -9.6666   11.7560  -23.4398 H         1 AYL537      0.0000 
     44 H          -0.9532   15.2267  -21.1916 H         1 AYL537      0.0000 
     45 H          -3.0666   14.4668  -25.4753 H         1 AYL537      0.0000 
     46 H          -3.3608   15.0734  -21.3411 H         1 AYL537      0.0000 
     47 H          -5.2296   13.7023  -23.0138 H         1 AYL537      0.0000 
     48 H          -5.2095   14.5615  -24.5634 H         1 AYL537      0.0000 
     49 H          -5.2310   16.7393  -23.2806 H         1 AYL537      0.0000 
     50 H          -5.4293   15.8049  -21.7881 H         1 AYL537      0.0000 
     51 H          -7.5545   16.7416  -22.7673 H         1 AYL537      0.0000 
     52 H          -7.3165   15.6908  -24.1742 H         1 AYL537      0.0000 
     53 H          -0.6578   14.6212  -25.3263 H         1 AYL537      0.0000 
     54 H         -10.6326    9.6769  -27.7893 H         1 AYL537      0.0000 
     55 H          -9.8038    9.0924  -26.1140 H         1 AYL537      0.0000 
     56 H           0.9196   15.2124  -22.1976 H         1 AYL537      0.0000 
@<TRIPOS>BOND
     1   13    1 ar   
     2   16    1 1    
     3   19    1 ar   
     4   23    1 1    
     5    3    2 ar   
     6    7    2 ar   
     7    4    3 ar   
     8   34    3 1    
     9    5    4 ar   
    10    6    5 ar   
    11   11    5 1    
    12    7    6 ar   
    13    9    6 1    
    14    8    7 1    
    15   35    8 1    
    16   36    8 1    
    17   10    9 2    
    18   11   10 1    
    19   37   10 1    
    20   12   11 1    
    21   14   12 1    
    22   21   12 1    
    23   38   12 1    
    24   15   14 1    
    25   17   14 1    
    26   39   14 1    
    27   54   15 1    
    28   31   16 1    
    29   18   17 1    
    30   20   17 1    
    31   40   17 1    
    32   55   18 1    
    33   21   20 1    
    34   22   20 1    
    35   41   20 1    
    36   23   22 1    
    37   42   22 1    
    38   43   22 1    
    39   25   24 ar   
    40   32   24 ar   
    41   33   24 1    
    42   27   25 ar   
    43   44   25 1    
    44   28   26 ar   
    45   32   26 ar   
    46   45   26 1    
    47   28   27 ar   
    48   46   27 1    
    49   29   28 1    
    50   30   29 1    
    51   47   29 1    
    52   48   29 1    
    53   31   30 1    
    54   49   30 1    
    55   50   30 1    
    56   51   31 1    
    57   52   31 1    
    58   53   32 1    
    59   56   33 1    
@<TRIPOS>SUBSTRUCTURE
     1 AYL537      1 GROUP   
@<TRIPOS>SET

