#    Name: 3rhx_3RH_2_INTS_M
#    Modification time : Mon Apr  7 20:23:55 2014

@<TRIPOS>MOLECULE
3rhx_3RH_2_INTS_M
   70     0     9     0     0
SMALL
NO_CHARGES


@<TRIPOS>ATOM
      1 CA         66.9765    0.7330    6.3840 C.3       3 GLC5        0.0000 
      2 CA         65.7880    0.1880    7.9590 C.3       9 GLL5        0.0000 
      3 CA         68.1650    1.2780    4.8090 C.3       6 GLP5        0.0000 
      4 CA         65.4845   -1.5790    9.2315 C.3       3 GLC5        0.0000 
      5 CA         65.1810   -3.3460   10.5040 C.3       6 GLP5        0.0000 
      6 CA         64.8790    0.5020    9.6650 C.3       3 GLC5        0.0000 
      7 CA         63.9700    0.8160   11.3710 C.3       6 GLP5        0.0000 
      8 O          65.1025   -1.9760    7.2950 O.2       1 ALC1        0.0000 
      9 O          65.1920   -0.5550    6.9960 O.2       7 ALL1        0.0000 
     10 O          65.0130   -3.3970    7.5940 O.2       4 ALP1        0.0000 
     11 N          67.0875   -1.6550    9.1265 N.am      2 SEC2        0.0000 
     12 N          66.7370   -0.3080    8.7910 N.am      8 SEL2        0.0000 
     13 N          67.4380   -3.0020    9.4620 N.am      5 SEP2        0.0000 
     14 CA         67.1175   -0.1730   11.8050 C.3       3 GLC5        0.0000 
     15 CA         67.2890    0.4470    9.7380 C.3       9 GLL5        0.0000 
     16 CA         66.9460   -0.7930   13.8720 C.3       6 GLP5        0.0000 
     17 CA         68.5435   -0.9375    9.5660 C.3       3 GLC5        0.0000 
     18 CA         69.7980   -2.3220    9.3940 C.3       6 GLP5        0.0000 
     19 CA         66.2350   -1.4495   10.1210 C.3       3 GLC5        0.0000 
     20 CA         68.8635    2.2775    9.5695 C.3       3 GLC5        0.0000 
     21 CA         67.4360    2.6620   10.9270 C.3       9 GLL5        0.0000 
     22 CA         70.2910    1.8930    8.2120 C.3       6 GLP5        0.0000 
     23 CA         68.1165    2.0965   12.7710 C.3       3 GLC5        0.0000 
     24 CA         68.7970    1.5310   14.6150 C.3       6 GLP5        0.0000 
     25 CA         69.1560    2.8935   11.5065 C.3       3 GLC5        0.0000 
     26 CA         70.8760    3.1250   12.0860 C.3       6 GLP5        0.0000 
     27 CA         64.9295    3.3985   12.9815 C.3       3 GLC5        0.0000 
     28 CA         66.4000    3.7130   11.4200 C.3       9 GLL5        0.0000 
     29 CA         63.4590    3.0840   14.5430 C.3       6 GLP5        0.0000 
     30 CA         67.8050    6.4060    9.7820 C.3       3 GLC5        0.0000 
     31 CA         68.0520    5.5720   11.8550 C.3       9 GLL5        0.0000 
     32 CA         67.5580    7.2400    7.7090 C.3       6 GLP5        0.0000 
     33 CA         68.7175    8.1680   11.8660 C.3       3 GLC5        0.0000 
     34 CA         68.6980    6.3660   12.7920 C.3       9 GLL5        0.0000 
     35 CA         68.7370    9.9700   10.9400 C.3       6 GLP5        0.0000 
     36 CA         69.7135    6.3970   15.6595 C.3       3 GLC5        0.0000 
     37 CA         68.4370    6.2300   14.1720 C.3       9 GLL5        0.0000 
     38 CA         70.9900    6.5640   17.1470 C.3       6 GLP5        0.0000 
     39 CA         70.3305    5.2600   13.9340 C.3       3 GLC5        0.0000 
     40 CA         72.2240    4.2900   13.6960 C.3       6 GLP5        0.0000 
     41 CA         69.2395    5.0485   15.8830 C.3       3 GLC5        0.0000 
     42 CA         67.5070    5.2970   14.6810 C.3       9 GLL5        0.0000 
     43 CA         70.9720    4.8000   17.0850 C.3       6 GLP5        0.0000 
     44 CA         65.6360    4.2710   15.3410 C.3       3 GLC5        0.0000 
     45 CA         63.7650    3.2450   16.0010 C.3       6 GLP5        0.0000 
     46 CA         65.6150    6.1755   15.4780 C.3       3 GLC5        0.0000 
     47 CA         63.7230    7.0540   16.2750 C.3       6 GLP5        0.0000 
     48 CA         65.1620    3.7895   14.1330 C.3       3 GLC5        0.0000 
     49 CA         66.8650    4.4950   13.7230 C.3       9 GLL5        0.0000 
     50 CA         63.8905    5.9805    6.1035 C.3       3 GLC5        0.0000 
     51 CA         64.1300    5.4970    8.2110 C.3       9 GLL5        0.0000 
     52 CA         63.6510    6.4640    3.9960 C.3       6 GLP5        0.0000 
     53 CA         66.1935    5.2805    7.2835 C.3       3 GLC5        0.0000 
     54 CA         64.6240    4.1890    8.1060 C.3       9 GLL5        0.0000 
     55 CA         67.7630    6.3720    6.4610 C.3       6 GLP5        0.0000 
     56 CA         67.0712    4.0095    7.9510 C.3       3 GLC5        0.0000 
     57 CA         65.3720    3.6350    9.1400 C.3       9 GLL5        0.0000 
     58 CA         68.5150    5.0770    6.8270 C.3       6 GLP5        0.0000 
     59 CA         68.5607    1.5590    8.9011 C.3       3 GLC5        0.0000 
     60 CA         65.8830    2.2490    9.0100 C.3       9 GLL5        0.0000 
     61 CA         65.4002    1.0205   10.4806 C.3       3 GLC5        0.0000 
     62 CA         65.4440    2.0017   11.2722 C.3       3 GLC5        0.0000 
     63 CA         66.4657    6.1160    9.0352 C.3       3 GLC5        0.0000 
     64 CA         65.6270    4.3470   10.3130 C.3       9 GLL5        0.0000 
     65 CA         64.7347    2.4035   10.5488 C.3       3 GLC5        0.0000 
     66 CA         69.5080    4.4289   12.2646 C.3       3 GLC5        0.0000 
     67 CA         67.1120    4.6270   12.3340 C.3       9 GLL5        0.0000 
     68 CA         68.0224    3.2300   14.2349 C.3       3 GLC5        0.0000 
     69 CA         65.9068    6.5505    8.2505 C.3       3 GLC5        0.0000 
     70 CA         64.3810    6.2250    9.3730 C.3       9 GLL5        0.0000 
@<TRIPOS>BOND
@<TRIPOS>SUBSTRUCTURE
     1 ALC1        8 GROUP        1 X    ALC  0     ROOT ALC X 1
     2 SEC2       11 GROUP        1 X    SEC  0     **** SEC X 2
     3 GLC5        1 GROUP        1 X    GLC  0     **** GLC X 6
     4 ALP1       10 GROUP        1 Y    ALP  0     ROOT ALP Y 8
     5 SEP2       13 GROUP        1 Y    SEP  0     **** SEP Y 9
     6 GLP5        3 GROUP        1 Y    GLP  0     **** GLP Y 13
     7 ALL1        9 GROUP        1 Z    ALL  0     ROOT ALL Z 15
     8 SEL2       12 GROUP        1 Z    SEL  0     **** SEL Z 16
     9 GLL5        2 GROUP        1 Z    GLL  0     **** GLL Z 20
@<TRIPOS>SET

