#    Name: 3rhx_3RH_2_ligand
#    Modification time : Mon Apr  7 20:23:55 2014

@<TRIPOS>MOLECULE
3rhx_3RH_2_ligand
   36    39     1     0     0
SMALL
NO_CHARGES


@<TRIPOS>ATOM
      1 C1         65.8830    2.2490    9.0100 C.ar      1 3RH1        0.0000 
      2 C2         66.8610    1.7570    9.8750 C.ar      1 3RH1        0.0000 
      3 N3         65.3680    1.4540    8.0620 N.ar      1 3RH1        0.0000 
      4 C4         65.7880    0.1880    7.9590 C.ar      1 3RH1        0.0000 
      5 N5         65.1920   -0.5550    6.9960 N.pl3     1 3RH1        0.0000 
      6 N6         66.7370   -0.3080    8.7910 N.ar      1 3RH1        0.0000 
      7 C7         67.2890    0.4470    9.7380 C.ar      1 3RH1        0.0000 
      8 C8         67.4360    2.6620   10.9270 C.3       1 3RH1        0.0000 
      9 C9         66.4000    3.7130   11.4200 C.3       1 3RH1        0.0000 
     10 C10        67.1120    4.6270   12.3340 C.ar      1 3RH1        0.0000 
     11 C11        65.6270    4.3470   10.3130 C.ar      1 3RH1        0.0000 
     12 C12        65.3720    3.6350    9.1400 C.ar      1 3RH1        0.0000 
     13 C13        68.0520    5.5720   11.8550 C.ar      1 3RH1        0.0000 
     14 C14        68.6980    6.3660   12.7920 C.ar      1 3RH1        0.0000 
     15 C15        68.4370    6.2300   14.1720 C.ar      1 3RH1        0.0000 
     16 C16        67.5070    5.2970   14.6810 C.ar      1 3RH1        0.0000 
     17 C17        66.8650    4.4950   13.7230 C.ar      1 3RH1        0.0000 
     18 C18        65.1200    5.6370   10.4100 C.ar      1 3RH1        0.0000 
     19 C19        64.3810    6.2250    9.3730 C.ar      1 3RH1        0.0000 
     20 C20        64.1300    5.4970    8.2110 C.ar      1 3RH1        0.0000 
     21 C21        64.6240    4.1890    8.1060 C.ar      1 3RH1        0.0000 
     22 H          64.6802   -1.3544    7.3106 H         1 3RH1        0.0000 
     23 H          65.3166   -0.2383    6.0557 H         1 3RH1        0.0000 
     24 H          68.0205    0.0881   10.3680 H         1 3RH1        0.0000 
     25 H          68.3019    3.1995   10.5306 H         1 3RH1        0.0000 
     26 H          67.7628    2.0768   11.7911 H         1 3RH1        0.0000 
     27 H          65.6826    3.1125   12.0504 H         1 3RH1        0.0000 
     28 H          68.2354    5.6543   10.8680 H         1 3RH1        0.0000 
     29 H          69.3858    7.0741   12.4830 H         1 3RH1        0.0000 
     30 H          68.9488    6.8399   14.8403 H         1 3RH1        0.0000 
     31 H          67.3219    5.2162   15.6518 H         1 3RH1        0.0000 
     32 H          66.1836    3.7777   14.0391 H         1 3RH1        0.0000 
     33 H          65.2907    6.1882   11.2760 H         1 3RH1        0.0000 
     34 H          64.0309    7.1801    9.4723 H         1 3RH1        0.0000 
     35 H          63.5950    5.9066    7.4460 H         1 3RH1        0.0000 
     36 H          64.4297    3.6400    7.2580 H         1 3RH1        0.0000 
@<TRIPOS>BOND
     1    2    1 ar   
     2    3    1 ar   
     3   12    1 1    
     4    7    2 ar   
     5    8    2 1    
     6    4    3 ar   
     7    5    4 1    
     8    6    4 ar   
     9   22    5 1    
    10   23    5 1    
    11    7    6 ar   
    12   24    7 1    
    13    9    8 1    
    14   25    8 1    
    15   26    8 1    
    16   10    9 1    
    17   11    9 1    
    18   27    9 1    
    19   13   10 ar   
    20   17   10 ar   
    21   12   11 ar   
    22   18   11 ar   
    23   21   12 ar   
    24   14   13 ar   
    25   28   13 1    
    26   15   14 ar   
    27   29   14 1    
    28   16   15 ar   
    29   30   15 1    
    30   17   16 ar   
    31   31   16 1    
    32   32   17 1    
    33   19   18 ar   
    34   33   18 1    
    35   20   19 ar   
    36   34   19 1    
    37   21   20 ar   
    38   35   20 1    
    39   36   21 1    
@<TRIPOS>SUBSTRUCTURE
     1 3RH1        1 GROUP   
@<TRIPOS>SET

