#    Name: 3PKD_1_CAVITY_N1_ALL.mol2
#    Modification time : Mon Mar 10 14:36:18 2014

@<TRIPOS>MOLECULE
3PKD_1_CAVITY_N1_ALL.mol2
  119     0     7     0     0
SMALL
NO_CHARGES


@<TRIPOS>ATOM
      1 CA         32.3463   -7.0184    6.6158 C.3       6 GLY6        0.0000 
      2 DU         31.3542   -6.0633    6.0213 H         7 CUB7        0.0000 
      3 OG         29.8536   -2.7230    6.3225 O.2       1 SER1        0.0000 
      4 OG         28.8615   -1.7679    5.7279 O.2       1 SER1        0.0000 
      5 CA         25.8852    1.0975    3.9443 C.3       6 GLY6        0.0000 
      6 O          31.8303   -6.7003    7.9879 O.2       2 ALA2        0.0000 
      7 N          30.8381   -5.7452    7.3933 N.2       2 ALA2        0.0000 
      8 CA         30.8305   -7.8124    7.8697 C.3       6 GLY6        0.0000 
      9 DU         29.8384   -6.8573    7.2751 H         7 CUB7        0.0000 
     10 DU         28.8463   -5.9021    6.6806 H         7 CUB7        0.0000 
     11 CA         29.8308   -8.9244    7.7514 C.3       6 GLY6        0.0000 
     12 CA         28.8387   -7.9693    7.1569 C.3       6 GLY6        0.0000 
     13 DU         27.8466   -7.0142    6.5624 H         7 CUB7        0.0000 
     14 OG         29.3376   -2.4049    7.6945 O.2       1 SER1        0.0000 
     15 OG         27.3534   -0.4947    6.5055 O.2       1 SER1        0.0000 
     16 OD1        26.3613    0.4604    5.9109 O.3       3 ASP3        0.0000 
     17 CZ         25.3692    1.4155    5.3164 C.ar      5 PHE5        0.0000 
     18 O          31.3142   -6.3823    9.3599 O.2       2 ALA2        0.0000 
     19 CA         29.3300   -4.4721    8.1709 C.3       6 GLY6        0.0000 
     20 CA         28.3379   -3.5169    7.5763 C.3       6 GLY6        0.0000 
     21 OG         27.3458   -2.5618    6.9818 O.2       1 SER1        0.0000 
     22 OD1        26.3537   -1.6067    6.3872 O.3       3 ASP3        0.0000 
     23 OD1        25.3616   -0.6516    5.7927 O.3       3 ASP3        0.0000 
     24 CZ         24.3695    0.3035    5.1982 C.ar      5 PHE5        0.0000 
     25 N          30.3145   -7.4943    9.2417 N.2       2 ALA2        0.0000 
     26 CA         29.3224   -6.5392    8.6472 C.3       6 GLY6        0.0000 
     27 CA         28.3303   -5.5841    8.0526 C.3       6 GLY6        0.0000 
     28 DU         27.3382   -4.6290    7.4581 H         7 CUB7        0.0000 
     29 DU         25.3540   -2.7187    6.2690 H         7 CUB7        0.0000 
     30 CA         29.3148   -8.6063    9.1235 C.3       6 GLY6        0.0000 
     31 CA         28.3227   -7.6512    8.5290 C.3       6 GLY6        0.0000 
     32 DU         27.3306   -6.6961    7.9344 H         7 CUB7        0.0000 
     33 DU         26.3385   -5.7410    7.3399 H         7 CUB7        0.0000 
     34 CA         27.3230   -8.7632    8.4107 C.3       6 GLY6        0.0000 
     35 OG         26.3309   -7.8081    7.8162 O.2       1 SER1        0.0000 
     36 OG         25.3311   -8.9202    7.6980 O.2       1 SER1        0.0000 
     37 O          27.8295   -1.1318    8.4721 O.2       2 ALA2        0.0000 
     38 CZ         26.8373   -0.1766    7.8775 C.ar      5 PHE5        0.0000 
     39 CZ         25.8452    0.7785    7.2830 C.ar      5 PHE5        0.0000 
     40 CA         27.8219   -3.1989    8.9484 C.3       6 GLY6        0.0000 
     41 N          26.8297   -2.2438    8.3538 N.2       2 ALA2        0.0000 
     42 DU         25.8376   -1.2887    7.7593 H         7 CUB7        0.0000 
     43 DU         24.8455   -0.3335    7.1648 H         7 CUB7        0.0000 
     44 CZ         23.8534    0.6216    6.5702 C.ar      5 PHE5        0.0000 
     45 CA         28.8064   -6.2211   10.0192 C.3       6 GLY6        0.0000 
     46 CA         27.8142   -5.2660    9.4247 C.3       6 GLY6        0.0000 
     47 CA         26.8221   -4.3109    8.8302 C.3       6 GLY6        0.0000 
     48 DU         25.8300   -3.3558    8.2356 H         7 CUB7        0.0000 
     49 DU         24.8379   -2.4007    7.6411 H         7 CUB7        0.0000 
     50 DU         23.8458   -1.4456    7.0465 H         7 CUB7        0.0000 
     51 OG         27.8066   -7.3332    9.9010 O.2       1 SER1        0.0000 
     52 OG         26.8145   -6.3781    9.3065 O.2       1 SER1        0.0000 
     53 DU         25.8224   -5.4229    8.7119 H         7 CUB7        0.0000 
     54 DU         24.8303   -4.4678    8.1174 H         7 CUB7        0.0000 
     55 CZ         23.8382   -3.5127    7.5229 C.ar      5 PHE5        0.0000 
     56 CZ         22.8461   -2.5576    6.9283 C.ar      5 PHE5        0.0000 
     57 OG         24.8227   -6.5350    8.5937 O.2       1 SER1        0.0000 
     58 CZ         27.3210    1.2534    9.3678 C.ar      5 PHE5        0.0000 
     59 CZ         26.3289    2.2086    8.7733 C.ar      5 PHE5        0.0000 
     60 N          26.3213    0.1414    9.2496 N.2       2 ALA2        0.0000 
     61 CZ         25.3292    1.0965    8.6550 C.ar      5 PHE5        0.0000 
     62 N          26.3137   -1.9257    9.7259 N.2       2 ALA2        0.0000 
     63 N          25.3216   -0.9706    9.1314 N.2       2 ALA2        0.0000 
     64 N          24.3295   -0.0155    8.5368 N.2       2 ALA2        0.0000 
     65 CA         27.2982   -4.9480   10.7968 C.3       6 GLY6        0.0000 
     66 CA         26.3061   -3.9929   10.2022 C.3       6 GLY6        0.0000 
     67 N          25.3140   -3.0377    9.6077 N.2       2 ALA2        0.0000 
     68 N          24.3219   -2.0826    9.0131 N.2       2 ALA2        0.0000 
     69 OG         26.2985   -6.0600   10.6785 O.2       1 SER1        0.0000 
     70 N          25.3064   -5.1049   10.0840 N.2       2 ALA2        0.0000 
     71 O          24.3143   -4.1498    9.4895 O.2       2 ALA2        0.0000 
     72 CZ         23.3222   -3.1947    8.8949 C.ar      5 PHE5        0.0000 
     73 CZ         26.8126    3.6386   10.2635 C.ar      5 PHE5        0.0000 
     74 CZ         25.8205    4.5937    9.6690 C.ar      5 PHE5        0.0000 
     75 N          26.8050    1.5715   10.7399 N.2       2 ALA2        0.0000 
     76 DU         25.8129    2.5266   10.1453 H         7 CUB7        0.0000 
     77 CZ         24.8208    3.4817    9.5508 C.ar      5 PHE5        0.0000 
     78 N          25.8053    0.4595   10.6216 N.2       2 ALA2        0.0000 
     79 N          24.8132    1.4146   10.0271 N.2       2 ALA2        0.0000 
     80 N          23.8211    2.3697    9.4326 N.2       2 ALA2        0.0000 
     81 N          25.7977   -1.6077   11.0980 N.2       2 ALA2        0.0000 
     82 N          24.8056   -0.6526   10.5034 N.2       2 ALA2        0.0000 
     83 N          25.7901   -3.6748   11.5743 N.2       2 ALA2        0.0000 
     84 N          24.7980   -2.7197   10.9797 N.2       2 ALA2        0.0000 
     85 N          23.8058   -1.7646   10.3852 N.2       2 ALA2        0.0000 
     86 N          23.7982   -3.8317   10.8615 N.2       2 ALA2        0.0000 
     87 CZ         22.8061   -2.8766   10.2670 C.ar      5 PHE5        0.0000 
     88 CZ         27.2887    3.0016   12.2301 C.ar      5 PHE5        0.0000 
     89 CA         26.2966    3.9567   11.6356 C.3       6 GLY6        0.0000 
     90 CA         25.3044    4.9118   11.0411 C.3       6 GLY6        0.0000 
     91 CZ         27.2811    0.9344   12.7065 C.ar      5 PHE5        0.0000 
     92 CZ         26.2889    1.8896   12.1119 C.ar      5 PHE5        0.0000 
     93 DU         25.2968    2.8447   11.5174 H         7 CUB7        0.0000 
     94 CA         24.3047    3.7998   10.9228 C.3       6 GLY6        0.0000 
     95 N          26.2813   -0.1776   12.5882 N.2       2 ALA2        0.0000 
     96 N          25.2892    0.7775   11.9937 N.2       2 ALA2        0.0000 
     97 N          24.2971    1.7326   11.3992 N.2       2 ALA2        0.0000 
     98 OD1        26.2737   -2.2447   13.0646 O.3       3 ASP3        0.0000 
     99 N          25.2816   -1.2896   12.4700 N.2       2 ALA2        0.0000 
    100 N          24.2895   -0.3345   11.8755 N.2       2 ALA2        0.0000 
    101 NZ         25.2740   -3.3568   12.9463 N.2       4 LYS4        0.0000 
    102 NZ         24.2819   -2.4016   12.3518 N.2       4 LYS4        0.0000 
    103 N          23.2898   -1.4465   11.7573 N.2       2 ALA2        0.0000 
    104 N          23.2822   -3.5137   12.2336 N.2       2 ALA2        0.0000 
    105 N          22.2901   -2.5585   11.6390 N.2       2 ALA2        0.0000 
    106 CZ         26.7726    3.3196   13.6022 C.ar      5 PHE5        0.0000 
    107 CZ         26.7650    1.2525   14.0785 C.ar      5 PHE5        0.0000 
    108 CZ         25.7729    2.2076   13.4840 C.ar      5 PHE5        0.0000 
    109 CA         24.7808    3.1627   12.8894 C.3       6 GLY6        0.0000 
    110 OD1        25.7653    0.1405   13.9603 O.3       3 ASP3        0.0000 
    111 OD1        24.7732    1.0956   13.3658 O.3       3 ASP3        0.0000 
    112 CA         23.7811    2.0507   12.7712 C.3       6 GLY6        0.0000 
    113 OD1        24.7656   -0.9716   13.8421 O.3       3 ASP3        0.0000 
    114 N          23.7735   -0.0164   13.2475 N.2       2 ALA2        0.0000 
    115 N          22.7738   -1.1285   13.1293 N.2       2 ALA2        0.0000 
    116 NZ         21.7741   -2.2405   13.0111 N.2       4 LYS4        0.0000 
    117 OD1        25.2569    2.5257   14.8560 O.3       3 ASP3        0.0000 
    118 NZ         23.2650    2.3688   14.1433 N.2       4 LYS4        0.0000 
    119 NZ         22.2653    1.2567   14.0251 N.2       4 LYS4        0.0000 
@<TRIPOS>BOND
@<TRIPOS>SUBSTRUCTURE
     1 SER1        3 GROUP   
     2 ALA2        6 GROUP   
     3 ASP3       16 GROUP   
     4 LYS4      101 GROUP   
     5 PHE5       17 GROUP   
     6 GLY6        1 GROUP   
     7 CUB7        2 GROUP   
@<TRIPOS>SET

