#    Name: 3pkd_Y10_1_INTS_M
#    Modification time : Tue Mar 25 08:06:44 2014

@<TRIPOS>MOLECULE
3pkd_Y10_1_INTS_M
   78     0    12     0     0
SMALL
NO_CHARGES


@<TRIPOS>ATOM
      1 O          24.6825   -4.9055   12.1075 O.2       1 ALC1        0.0000 
      2 O          25.0240   -3.7110   11.1940 O.2       9 ALL1        0.0000 
      3 O          24.3410   -6.1000   13.0210 O.2       5 ALP1        0.0000 
      4 Zn         25.4250    1.3665   16.1175 Zn        3 ZIC7        0.0000 
      5 Zn         25.5920    1.9260   15.2210 Zn       11 ZIL7        0.0000 
      6 Zn         25.2580    0.8070   17.0140 Zn        7 ZIP7        0.0000 
      7 O          24.3070    1.6840   16.0050 O.2       1 ALC1        0.0000 
      8 O          25.5920    1.9260   15.2210 O.2       9 ALL1        0.0000 
      9 O          23.0220    1.4420   16.7890 O.2       5 ALP1        0.0000 
     10 Zn         26.5200   -1.8185   14.5130 Zn        3 ZIC7        0.0000 
     11 Zn         26.3730   -1.6360   13.3520 Zn       11 ZIL7        0.0000 
     12 Zn         26.6670   -2.0010   15.6740 Zn        7 ZIP7        0.0000 
     13 N          27.3685   -1.5310   12.4670 N.am      2 SEC2        0.0000 
     14 N          26.3730   -1.6360   13.3520 N.am     10 SEL2        0.0000 
     15 N          28.3640   -1.4260   11.5820 N.am      6 SEP2        0.0000 
     16 Zn         25.8275   -1.3345   15.5015 Zn        3 ZIC7        0.0000 
     17 Zn         24.9880   -0.6680   15.3290 Zn       11 ZIL7        0.0000 
     18 Zn         25.1230    0.0695   16.1715 Zn        3 ZIC7        0.0000 
     19 O          24.2030   -1.6010   15.6200 O.2       1 ALC1        0.0000 
     20 O          24.9880   -0.6680   15.3290 O.2       9 ALL1        0.0000 
     21 O          23.4180   -2.5340   15.9110 O.2       5 ALP1        0.0000 
     22 N          23.0415   -0.7200   10.4170 N.am      2 SEC2        0.0000 
     23 N          23.9870   -1.8900   10.2950 N.am     10 SEL2        0.0000 
     24 N          22.0960    0.4500   10.5390 N.am      6 SEP2        0.0000 
     25 N          22.4855   -0.4245   11.6150 N.am      2 SEC2        0.0000 
     26 N          22.8750   -1.2990   12.6910 N.am     10 SEL2        0.0000 
     27 CA         23.9195    3.7490   12.9370 C.3       4 GLC5        0.0000 
     28 CA         25.2870    2.1310   12.7760 C.3      12 GLL5        0.0000 
     29 CA         22.5520    5.3670   13.0980 C.3       8 GLP5        0.0000 
     30 CA         23.3635    1.8720   11.8720 C.3       4 GLC5        0.0000 
     31 CA         21.4400    1.6130   10.9680 C.3       8 GLP5        0.0000 
     32 CA         27.0885   -1.8080   12.1875 C.3       4 GLC5        0.0000 
     33 CA         25.1640   -0.9640   12.9270 C.3      12 GLL5        0.0000 
     34 CA         29.0130   -2.6520   11.4480 C.3       8 GLP5        0.0000 
     35 CA         24.1075    5.6700    9.6000 C.3       4 GLC5        0.0000 
     36 CA         24.4960    3.7400   10.5120 C.3      12 GLL5        0.0000 
     37 CA         23.7190    7.6000    8.6880 C.3       8 GLP5        0.0000 
     38 CA         23.5240    4.5535   11.8050 C.3       4 GLC5        0.0000 
     39 CA         22.9680    2.6765   10.7400 C.3       4 GLC5        0.0000 
     40 CA         27.4825    2.0140    8.3460 C.3       4 GLC5        0.0000 
     41 CA         25.8560    2.0120    9.3610 C.3      12 GLL5        0.0000 
     42 CA         29.1090    2.0160    7.3310 C.3       8 GLP5        0.0000 
     43 CA         26.9535    5.1440   11.8870 C.3       4 GLC5        0.0000 
     44 CA         26.9550    4.0740   10.2270 C.3      12 GLL5        0.0000 
     45 CA         26.9520    6.2140   13.5470 C.3       8 GLP5        0.0000 
     46 CA         28.5225    3.5500   11.3690 C.3       4 GLC5        0.0000 
     47 CA         30.0900    3.0260   12.5110 C.3       8 GLP5        0.0000 
     48 CA         28.7035   -3.4950    9.5570 C.3       4 GLC5        0.0000 
     49 CA         27.4420   -4.4880    8.6190 C.3      12 GLL5        0.0000 
     50 CA         29.9650   -2.5020   10.4950 C.3       8 GLP5        0.0000 
     51 CA         20.1140   -1.4065   11.8250 C.3       4 GLC5        0.0000 
     52 CA         21.7350   -2.1770   12.7850 C.3      12 GLL5        0.0000 
     53 CA         18.4930   -0.6360   10.8650 C.3       8 GLP5        0.0000 
     54 CA         21.5875   -0.2820   11.8765 C.3       4 GLC5        0.0000 
     55 CA         20.7595   -3.5430   11.6245 C.3       4 GLC5        0.0000 
     56 CA         19.7840   -4.9090   10.4640 C.3       8 GLP5        0.0000 
     57 CA         19.9915   -2.9060   13.2195 C.3       4 GLC5        0.0000 
     58 CA         18.2480   -3.6350   13.6540 C.3       8 GLP5        0.0000 
     59 CA         27.7270    3.4677    8.9917 C.3       4 GLC5        0.0000 
     60 CA         25.8490    3.0370   10.4920 C.3      12 GLL5        0.0000 
     61 CA         29.0520    3.3800    7.6240 C.3       8 GLP5        0.0000 
     62 CA         26.3362    4.2090   12.9083 C.3       4 GLC5        0.0000 
     63 CA         26.1540    2.2770   11.7630 C.3      12 GLL5        0.0000 
     64 CA         27.5639    2.0785   13.2936 C.3       4 GLC5        0.0000 
     65 CA         29.3850    2.4370   13.4960 C.3       8 GLP5        0.0000 
     66 CA         24.7241    3.2601    8.2918 C.3       4 GLC5        0.0000 
     67 CA         23.9340    3.8200    6.6520 C.3       8 GLP5        0.0000 
     68 CA         27.7608   -3.5143   10.4318 C.3       4 GLC5        0.0000 
     69 CA         26.5020   -3.4370    9.1840 C.3      12 GLL5        0.0000 
     70 CA         28.2718   -6.3421   11.1704 C.3       4 GLC5        0.0000 
     71 CA         26.1630   -5.6050   10.2410 C.3      12 GLL5        0.0000 
     72 CA         29.2280   -6.4100   13.0430 C.3       8 GLP5        0.0000 
     73 CA         28.4410   -8.9217    8.7378 C.3       4 GLC5        0.0000 
     74 CA         27.9430   -6.8940    8.8750 C.3      12 GLL5        0.0000 
     75 CA         28.4340  -11.0260    9.0960 C.3       8 GLP5        0.0000 
     76 CA         29.8494   -4.3087    8.7523 C.3       4 GLC5        0.0000 
     77 CA         28.3910   -4.3080    7.5930 C.3      12 GLL5        0.0000 
     78 CA         30.9840   -3.4080    9.9190 C.3       8 GLP5        0.0000 
@<TRIPOS>BOND
@<TRIPOS>SUBSTRUCTURE
     1 ALC1        1 GROUP        1 X    ALC  0     ROOT ALC X 1
     2 SEC2       13 GROUP        1 X    SEC  0     **** SEC X 2
     3 ZIC7        4 GROUP        1 X    ZIC  0     **** ZIC X 5
     4 GLC5       27 GROUP        1 X    GLC  0     **** GLC X 6
     5 ALP1        3 GROUP        1 Y    ALP  0     ROOT ALP Y 8
     6 SEP2       15 GROUP        1 Y    SEP  0     **** SEP Y 9
     7 ZIP7        6 GROUP        1 Y    ZIP  0     **** ZIP Y 12
     8 GLP5       29 GROUP        1 Y    GLP  0     **** GLP Y 13
     9 ALL1        2 GROUP        1 Z    ALL  0     ROOT ALL Z 15
    10 SEL2       14 GROUP        1 Z    SEL  0     **** SEL Z 16
    11 ZIL7        5 GROUP        1 Z    ZIL  0     **** ZIL Z 19
    12 GLL5       28 GROUP        1 Z    GLL  0     **** GLL Z 20
@<TRIPOS>SET

