#    Name: 3pkd_Y10_1_ligand
#    Modification time : Tue Mar 25 08:06:44 2014

@<TRIPOS>MOLECULE
3pkd_Y10_1_ligand
   57    58     1     0     0
SMALL
NO_CHARGES


@<TRIPOS>ATOM
      1 N          25.0240   -3.7110   11.1940 N.am      1 Y10288      0.0000 
      2 O1         25.5920    1.9260   15.2210 O.3       1 Y10288      0.0000 
      3 O2         26.3730   -1.6360   13.3520 O.3       1 Y10288      0.0000 
      4 O3         24.9880   -0.6680   15.3290 O.3       1 Y10288      0.0000 
      5 O4         23.9870   -1.8900   10.2950 O.2       1 Y10288      0.0000 
      6 O5         22.8750   -1.2990   12.6910 O.3       1 Y10288      0.0000 
      7 C01        25.8490    3.0370   10.4920 C.3       1 Y10288      0.0000 
      8 C02        26.1540    2.2770   11.7630 C.2       1 Y10288      0.0000 
      9 C03        25.2870    2.1310   12.7760 C.2       1 Y10288      0.0000 
     10 C04        25.7650    1.2360   13.9130 C.3       1 Y10288      0.0000 
     11 C05        24.8190    0.0280   14.0460 C.3       1 Y10288      0.0000 
     12 C06        25.1640   -0.9640   12.9270 C.3       1 Y10288      0.0000 
     13 C07        24.0740   -2.0460   12.6550 C.3       1 Y10288      0.0000 
     14 C08        24.4960    3.7400   10.5120 C.3       1 Y10288      0.0000 
     15 C09        25.8560    2.0120    9.3610 C.3       1 Y10288      0.0000 
     16 C10        26.9550    4.0740   10.2270 C.3       1 Y10288      0.0000 
     17 C11        24.3420   -2.5670   11.2900 C.2       1 Y10288      0.0000 
     18 C12        25.4710   -4.2520    9.9480 C.3       1 Y10288      0.0000 
     19 C13        26.1630   -5.6050   10.2410 C.3       1 Y10288      0.0000 
     20 C14        27.2130   -5.7040    9.2000 C.ar      1 Y10288      0.0000 
     21 C15        27.4420   -4.4880    8.6190 C.ar      1 Y10288      0.0000 
     22 C16        26.5020   -3.4370    9.1840 C.3       1 Y10288      0.0000 
     23 C17        27.9430   -6.8940    8.8750 C.ar      1 Y10288      0.0000 
     24 C18        28.9530   -6.7410    7.8840 C.ar      1 Y10288      0.0000 
     25 C19        29.1240   -5.4810    7.2720 C.ar      1 Y10288      0.0000 
     26 C20        28.3910   -4.3080    7.5930 C.ar      1 Y10288      0.0000 
     27 C21        21.7350   -2.1770   12.7850 C.3       1 Y10288      0.0000 
     28 H          25.2636   -4.2706   12.0540 H         1 Y10288      0.0000 
     29 H          27.1175    1.8656   11.7879 H         1 Y10288      0.0000 
     30 H          24.3932    2.5310   12.8634 H         1 Y10288      0.0000 
     31 H          26.7330    0.9075   13.7795 H         1 Y10288      0.0000 
     32 H          23.8153    0.3517   13.9058 H         1 Y10288      0.0000 
     33 H          25.3462   -0.4203   12.0218 H         1 Y10288      0.0000 
     34 H          24.1522   -2.7694   13.3843 H         1 Y10288      0.0000 
     35 H          24.6511   -4.4835    9.2809 H         1 Y10288      0.0000 
     36 H          25.4436   -6.3830   10.1392 H         1 Y10288      0.0000 
     37 H          26.5884   -5.5643   11.2159 H         1 Y10288      0.0000 
     38 H          27.0285   -2.8027    9.8528 H         1 Y10288      0.0000 
     39 H          26.0309   -2.9098    8.3922 H         1 Y10288      0.0000 
     40 H          27.7549   -7.7556    9.3102 H         1 Y10288      0.0000 
     41 H          29.5364   -7.5266    7.6262 H         1 Y10288      0.0000 
     42 H          29.8561   -5.4003    6.5128 H         1 Y10288      0.0000 
     43 H          28.5360   -3.4537    7.1391 H         1 Y10288      0.0000 
     44 H          24.4357    4.4085   11.2533 H         1 Y10288      0.0000 
     45 H          24.3202    4.2315    9.6591 H         1 Y10288      0.0000 
     46 H          23.7435    3.0937   10.6383 H         1 Y10288      0.0000 
     47 H          26.7421    1.5560    9.2785 H         1 Y10288      0.0000 
     48 H          25.1708    1.2976    9.5030 H         1 Y10288      0.0000 
     49 H          25.6602    2.4342    8.4759 H         1 Y10288      0.0000 
     50 H          27.8521    3.6433   10.1287 H         1 Y10288      0.0000 
     51 H          26.7852    4.5921    9.3887 H         1 Y10288      0.0000 
     52 H          27.0284    4.7373   10.9718 H         1 Y10288      0.0000 
     53 H          21.6836   -2.8034   12.0072 H         1 Y10288      0.0000 
     54 H          21.7658   -2.7384   13.6120 H         1 Y10288      0.0000 
     55 H          20.8748   -1.6676   12.8084 H         1 Y10288      0.0000 
     56 H          24.6057    1.9237   15.3862 H         1 Y10288      0.0000 
     57 H          24.0710   -0.9814   15.5760 H         1 Y10288      0.0000 
@<TRIPOS>BOND
     1   17    1 am   
     2   18    1 1    
     3   28    1 1    
     4   10    2 1    
     5   56    2 1    
     6   12    3 1    
     7   11    4 1    
     8   57    4 1    
     9   17    5 2    
    10   13    6 1    
    11   27    6 1    
    12    8    7 1    
    13   14    7 1    
    14   15    7 1    
    15   16    7 1    
    16    9    8 2    
    17   29    8 1    
    18   10    9 1    
    19   30    9 1    
    20   11   10 1    
    21   31   10 1    
    22   12   11 1    
    23   32   11 1    
    24   13   12 1    
    25   33   12 1    
    26   17   13 1    
    27   34   13 1    
    28   44   14 1    
    29   45   14 1    
    30   46   14 1    
    31   47   15 1    
    32   48   15 1    
    33   49   15 1    
    34   50   16 1    
    35   51   16 1    
    36   52   16 1    
    37   19   18 1    
    38   22   18 1    
    39   35   18 1    
    40   20   19 1    
    41   36   19 1    
    42   37   19 1    
    43   21   20 ar   
    44   23   20 ar   
    45   22   21 1    
    46   26   21 ar   
    47   38   22 1    
    48   39   22 1    
    49   24   23 ar   
    50   40   23 1    
    51   25   24 ar   
    52   41   24 1    
    53   26   25 ar   
    54   42   25 1    
    55   43   26 1    
    56   53   27 1    
    57   54   27 1    
    58   55   27 1    
@<TRIPOS>SUBSTRUCTURE
     1 Y10288      1 GROUP   
@<TRIPOS>SET

