#    Name: 4keb_1QZ_1_INTS_M
#    Modification time : Tue Mar 25 07:45:39 2014

@<TRIPOS>MOLECULE
4keb_1QZ_1_INTS_M
   62     0     9     0     0
SMALL
NO_CHARGES


@<TRIPOS>ATOM
      1 CA         17.1135    6.2270   17.4450 C.3       3 GLC5        0.0000 
      2 CA         15.6260    5.5290   18.6350 C.3       9 GLL5        0.0000 
      3 CA         18.6010    6.9250   16.2550 C.3       6 GLP5        0.0000 
      4 CA         17.7020    5.3990   17.5900 C.3       3 GLC5        0.0000 
      5 CA         16.8030    3.8730   18.9250 C.3       9 GLL5        0.0000 
      6 CA         16.8650    1.8535   18.5040 C.3       3 GLC5        0.0000 
      7 CA         16.9270   -0.1660   18.0830 C.3       6 GLP5        0.0000 
      8 N          16.8320    3.9285   16.5710 N.am      2 SEC2        0.0000 
      9 N          17.4780    3.7490   17.7650 N.am      8 SEL2        0.0000 
     10 N          16.1860    4.1080   15.3770 N.am      5 SEP2        0.0000 
     11 CA         20.4135    2.1125   17.8290 C.3       3 GLC5        0.0000 
     12 CA         18.7990    3.4150   17.7770 C.3       9 GLL5        0.0000 
     13 CA         22.0280    0.8100   17.8810 C.3       6 GLP5        0.0000 
     14 CA         20.5445    4.3600   18.3315 C.3       3 GLC5        0.0000 
     15 CA         22.2900    5.3050   18.8860 C.3       6 GLP5        0.0000 
     16 CA         18.7000    5.1700   17.0160 C.3       3 GLC5        0.0000 
     17 CA         17.8630    1.6245   17.9300 C.3       3 GLC5        0.0000 
     18 O          18.6820    3.3045   15.4525 O.2       1 ALC1        0.0000 
     19 O          19.4080    3.1680   16.6390 O.2       7 ALL1        0.0000 
     20 O          17.9560    3.4410   14.2660 O.2       4 ALP1        0.0000 
     21 CA         20.5805    4.4145   19.4800 C.3       3 GLC5        0.0000 
     22 CA         18.8710    3.5240   20.0740 C.3       9 GLL5        0.0000 
     23 O          21.1480    3.3850   21.0180 O.2       1 ALC1        0.0000 
     24 O          19.5540    3.4550   21.1950 O.2       7 ALL1        0.0000 
     25 O          22.7420    3.3150   20.8410 O.2       4 ALP1        0.0000 
     26 CA         17.6195    5.3835   23.3895 C.3       3 GLC5        0.0000 
     27 CA         15.9920    4.1740   23.6590 C.3       9 GLL5        0.0000 
     28 CA         19.2470    6.5930   23.1200 C.3       6 GLP5        0.0000 
     29 CA         17.6240    6.1150   24.3800 C.3       3 GLC5        0.0000 
     30 CA         16.0800    5.5300   24.2520 C.3       9 GLL5        0.0000 
     31 CA         19.1680    6.7000   24.5080 C.3       6 GLP5        0.0000 
     32 CA          9.3940    3.5665   24.8355 C.3       3 GLC5        0.0000 
     33 CA          9.8550    4.1440   23.4000 C.3       9 GLL5        0.0000 
     34 CA          8.9330    2.9890   26.2710 C.3       6 GLP5        0.0000 
     35 CA         14.2430    6.1422   19.0953 C.3       3 GLC5        0.0000 
     36 CA         15.4600    4.2040   18.9240 C.3       9 GLL5        0.0000 
     37 CA         12.9430    7.4180   19.4110 C.3       6 GLP5        0.0000 
     38 CA         17.6680    2.0885   21.6380 C.3       3 GLC5        0.0000 
     39 CA         16.9230    3.9830   21.3600 C.3       9 GLL5        0.0000 
     40 CA         18.5770    0.1490   21.5010 C.3       6 GLP5        0.0000 
     41 CA         18.0030    5.3105   22.4475 C.3       3 GLC5        0.0000 
     42 CA         17.0115    4.7745   25.7987 C.3       3 GLC5        0.0000 
     43 CA         17.9870    4.6970   27.6420 C.3       6 GLP5        0.0000 
     44 CA         13.6418    1.9743   25.6075 C.3       3 GLC5        0.0000 
     45 CA         14.4740    2.1380   23.4300 C.3       9 GLL5        0.0000 
     46 CA         13.4780    2.0590   27.7980 C.3       6 GLP5        0.0000 
     47 CA         10.5817    3.1290   24.8670 C.3       3 GLC5        0.0000 
     48 CA         12.1330    2.5950   23.3980 C.3       9 GLL5        0.0000 
     49 CA          9.3627    1.6812   25.0530 C.3       3 GLC5        0.0000 
     50 CA         10.4400    0.5980   23.7760 C.3       9 GLL5        0.0000 
     51 CA          9.0732   -0.7027   25.1510 C.3       3 GLC5        0.0000 
     52 CA          9.1450    0.1490   23.8940 C.3       9 GLL5        0.0000 
     53 CA          8.3540   -1.7790   26.4670 C.3       6 GLP5        0.0000 
     54 CA         10.6905    0.4875   25.7300 C.3       3 GLC5        0.0000 
     55 CA         11.3220    0.8080   27.7080 C.3       6 GLP5        0.0000 
     56 CA          9.4750   -1.8210   24.8930 C.3       3 GLC5        0.0000 
     57 CA         11.2440   -1.6160   23.2530 C.3       9 GLL5        0.0000 
     58 CA         12.0400   -1.9510   24.6465 C.3       3 GLC5        0.0000 
     59 CA          9.9480   -2.1100   23.3850 C.3       9 GLL5        0.0000 
     60 CA         13.4840   -2.0390   25.9740 C.3       6 GLP5        0.0000 
     61 CA         13.2054   -1.6839   24.4873 C.3       3 GLC5        0.0000 
     62 CA         13.7720   -0.7050   22.9810 C.3       9 GLL5        0.0000 
@<TRIPOS>BOND
@<TRIPOS>SUBSTRUCTURE
     1 ALC1       18 GROUP        1 X    ALC  0     ROOT ALC X 1
     2 SEC2        8 GROUP        1 X    SEC  0     **** SEC X 2
     3 GLC5        1 GROUP        1 X    GLC  0     **** GLC X 6
     4 ALP1       20 GROUP        1 Y    ALP  0     ROOT ALP Y 8
     5 SEP2       10 GROUP        1 Y    SEP  0     **** SEP Y 9
     6 GLP5        3 GROUP        1 Y    GLP  0     **** GLP Y 13
     7 ALL1       19 GROUP        1 Z    ALL  0     ROOT ALL Z 15
     8 SEL2        9 GROUP        1 Z    SEL  0     **** SEL Z 16
     9 GLL5        2 GROUP        1 Z    GLL  0     **** GLL Z 20
@<TRIPOS>SET

