#    Name: 4keb_1QZ_1_ligand
#    Modification time : Tue Mar 25 07:45:39 2014

@<TRIPOS>MOLECULE
4keb_1QZ_1_ligand
   57    60     1     0     0
SMALL
NO_CHARGES


@<TRIPOS>ATOM
      1 CAA        15.6260    5.5290   18.6350 C.3       1 1QZ202      0.0000 
      2 CAQ        15.4600    4.2040   18.9240 C.3       1 1QZ202      0.0000 
      3 C4         16.8030    3.8730   18.9250 C.ar      1 1QZ202      0.0000 
      4 N3         17.4780    3.7490   17.7650 N.ar      1 1QZ202      0.0000 
      5 C2         18.7990    3.4150   17.7770 C.ar      1 1QZ202      0.0000 
      6 NAD        19.4080    3.1680   16.6390 N.pl3     1 1QZ202      0.0000 
      7 N1         19.4980    3.2970   18.9250 N.ar      1 1QZ202      0.0000 
      8 C6         18.8710    3.5240   20.0740 C.ar      1 1QZ202      0.0000 
      9 NAE        19.5540    3.4550   21.1950 N.pl3     1 1QZ202      0.0000 
     10 C5         17.5090    3.8410   20.1340 C.ar      1 1QZ202      0.0000 
     11 CAF        16.9230    3.9830   21.3600 C.1       1 1QZ202      0.0000 
     12 CAG        16.5950    4.0730   22.1900 C.1       1 1QZ202      0.0000 
     13 CBF        15.9920    4.1740   23.6590 C.3       1 1QZ202      0.0000 
     14 CAC        16.0800    5.5300   24.2520 C.3       1 1QZ202      0.0000 
     15 CAZ        14.6970    3.5410   23.5960 C.ar      1 1QZ202      0.0000 
     16 CAP        14.4740    2.1380   23.4300 C.ar      1 1QZ202      0.0000 
     17 CAO        13.6220    4.3960   23.6160 C.ar      1 1QZ202      0.0000 
     18 CAX        12.3280    3.9430   23.5280 C.ar      1 1QZ202      0.0000 
     19 OAU        11.2260    4.7660   23.5760 O.3       1 1QZ202      0.0000 
     20 CAN        12.1330    2.5950   23.3980 C.ar      1 1QZ202      0.0000 
     21 CAY        13.1370    1.6410   23.4040 C.ar      1 1QZ202      0.0000 
     22 CBC        12.8350    0.2570   23.2910 C.ar      1 1QZ202      0.0000 
     23 CBE        11.5060   -0.2280   23.4440 C.ar      1 1QZ202      0.0000 
     24 CAL        10.4400    0.5980   23.7760 C.ar      1 1QZ202      0.0000 
     25 CAI         9.1450    0.1490   23.8940 C.ar      1 1QZ202      0.0000 
     26 NAR         8.8980   -1.2210   23.6980 N.ar      1 1QZ202      0.0000 
     27 CAM         9.9480   -2.1100   23.3850 C.ar      1 1QZ202      0.0000 
     28 CBD        11.2440   -1.6160   23.2530 C.ar      1 1QZ202      0.0000 
     29 CAK        12.2370   -2.5470   22.9020 C.ar      1 1QZ202      0.0000 
     30 CAH        13.5280   -2.0780   22.7520 C.ar      1 1QZ202      0.0000 
     31 CAJ        13.7720   -0.7050   22.9810 C.ar      1 1QZ202      0.0000 
     32 CAB         9.8550    4.1440   23.4000 C.3       1 1QZ202      0.0000 
     33 H          14.9270    3.6841   18.1547 H         1 1QZ202      0.0000 
     34 H          15.0160    4.0506   19.8861 H         1 1QZ202      0.0000 
     35 H          18.8489    3.2496   15.8140 H         1 1QZ202      0.0000 
     36 H          20.3750    2.9210   16.7020 H         1 1QZ202      0.0000 
     37 H          20.5130    3.7337   21.1438 H         1 1QZ202      0.0000 
     38 H          19.0523    3.1302   21.9967 H         1 1QZ202      0.0000 
     39 H          16.6751    3.4825   24.2482 H         1 1QZ202      0.0000 
     40 H          15.2570    1.5062   23.3322 H         1 1QZ202      0.0000 
     41 H          13.7944    5.4265   23.7011 H         1 1QZ202      0.0000 
     42 H          11.1301    2.2442   23.2825 H         1 1QZ202      0.0000 
     43 H          10.6388    1.6194   23.9450 H         1 1QZ202      0.0000 
     44 H           8.3795    0.7780   24.1159 H         1 1QZ202      0.0000 
     45 H           9.7520   -3.1027   23.2582 H         1 1QZ202      0.0000 
     46 H          12.0039   -3.5205   22.7670 H         1 1QZ202      0.0000 
     47 H          14.2903   -2.6910   22.4851 H         1 1QZ202      0.0000 
     48 H          14.7968   -0.3923   22.9023 H         1 1QZ202      0.0000 
     49 H          16.3060    5.9567   19.2305 H         1 1QZ202      0.0000 
     50 H          15.9322    5.6682   17.6933 H         1 1QZ202      0.0000 
     51 H          14.7752    6.0427   18.7455 H         1 1QZ202      0.0000 
     52 H          17.0267    5.8450   24.3197 H         1 1QZ202      0.0000 
     53 H          15.5842    6.2064   23.7073 H         1 1QZ202      0.0000 
     54 H          15.6952    5.5576   25.1746 H         1 1QZ202      0.0000 
     55 H           9.7650    3.6879   22.5146 H         1 1QZ202      0.0000 
     56 H           9.6649    3.4589   24.1033 H         1 1QZ202      0.0000 
     57 H           9.1273    4.8279   23.4528 H         1 1QZ202      0.0000 
@<TRIPOS>BOND
     1    2    1 1    
     2   49    1 1    
     3   50    1 1    
     4   51    1 1    
     5    3    2 1    
     6   33    2 1    
     7   34    2 1    
     8    4    3 ar   
     9   10    3 ar   
    10    5    4 ar   
    11    6    5 1    
    12    7    5 ar   
    13   35    6 1    
    14   36    6 1    
    15    8    7 ar   
    16    9    8 1    
    17   10    8 ar   
    18   37    9 1    
    19   38    9 1    
    20   11   10 1    
    21   12   11 3    
    22   13   12 1    
    23   14   13 1    
    24   15   13 1    
    25   39   13 1    
    26   52   14 1    
    27   53   14 1    
    28   54   14 1    
    29   16   15 ar   
    30   17   15 ar   
    31   21   16 ar   
    32   40   16 1    
    33   18   17 ar   
    34   41   17 1    
    35   19   18 1    
    36   20   18 ar   
    37   32   19 1    
    38   21   20 ar   
    39   42   20 1    
    40   22   21 1    
    41   23   22 ar   
    42   31   22 ar   
    43   24   23 ar   
    44   28   23 ar   
    45   25   24 ar   
    46   43   24 1    
    47   26   25 ar   
    48   44   25 1    
    49   27   26 ar   
    50   28   27 ar   
    51   45   27 1    
    52   29   28 ar   
    53   30   29 ar   
    54   46   29 1    
    55   31   30 ar   
    56   47   30 1    
    57   48   31 1    
    58   55   32 1    
    59   56   32 1    
    60   57   32 1    
@<TRIPOS>SUBSTRUCTURE
     1 1QZ202      1 GROUP   
@<TRIPOS>SET

