#    Name: 4bfs_ZVS_1_INTS_M
#    Modification time : Tue Mar 25 07:37:32 2014

@<TRIPOS>MOLECULE
4bfs_ZVS_1_INTS_M
   74     0     6     0     0
SMALL
NO_CHARGES


@<TRIPOS>ATOM
      1 CA        -11.0740  -53.5625  -14.5580 C.3       2 GLC5        0.0000 
      2 CA         -9.1110  -53.9360  -13.5510 C.3       6 GLL5        0.0000 
      3 CA        -13.0370  -53.1890  -15.5650 C.3       4 GLP5        0.0000 
      4 CA         -7.8285  -53.3345  -10.7835 C.3       2 GLC5        0.0000 
      5 CA         -9.4900  -53.6450  -12.2460 C.3       6 GLL5        0.0000 
      6 CA         -6.1670  -53.0240   -9.3210 C.3       4 GLP5        0.0000 
      7 CA         -8.8325  -55.4315   -9.7245 C.3       2 GLC5        0.0000 
      8 CA        -10.0310  -54.6470  -11.4370 C.3       6 GLL5        0.0000 
      9 CA         -7.6340  -56.2160   -8.0120 C.3       4 GLP5        0.0000 
     10 CA         -9.6835  -60.4030  -13.5065 C.3       2 GLC5        0.0000 
     11 CA        -11.5790  -59.4720  -14.2560 C.3       6 GLL5        0.0000 
     12 CA         -7.7880  -61.3340  -12.7570 C.3       4 GLP5        0.0000 
     13 CA        -12.3980  -60.0680  -11.8540 C.3       2 GLC5        0.0000 
     14 CA        -13.0150  -59.8290  -13.9150 C.3       6 GLL5        0.0000 
     15 CA        -11.7810  -60.3070   -9.7930 C.3       4 GLP5        0.0000 
     16 CA        -14.7025  -59.7890  -13.5035 C.3       2 GLC5        0.0000 
     17 CA        -16.3900  -59.7490  -13.0920 C.3       4 GLP5        0.0000 
     18 CA         -8.6935  -61.4065  -14.1900 C.3       2 GLC5        0.0000 
     19 CA         -9.5990  -61.4790  -15.6230 C.3       6 GLL5        0.0000 
     20 CA         -8.4165  -62.6455  -15.8395 C.3       2 GLC5        0.0000 
     21 CA         -7.2340  -63.8120  -16.0560 C.3       4 GLP5        0.0000 
     22 N         -13.2550  -58.1925  -16.9510 N.am      1 SEC2        0.0000 
     23 N         -11.8840  -58.8210  -16.6810 N.am      5 SEL2        0.0000 
     24 N         -14.6260  -57.5640  -17.2210 N.am      3 SEP2        0.0000 
     25 N         -12.1515  -59.2555  -19.0625 N.am      1 SEC2        0.0000 
     26 N         -11.3580  -59.2190  -17.9230 N.am      5 SEL2        0.0000 
     27 N         -12.9450  -59.2920  -20.2020 N.am      3 SEP2        0.0000 
     28 CA         -9.8110  -61.5710  -20.6985 C.3       2 GLC5        0.0000 
     29 CA         -9.5400  -61.0840  -18.7880 C.3       6 GLL5        0.0000 
     30 CA        -10.0820  -62.0580  -22.6090 C.3       4 GLP5        0.0000 
     31 CA        -11.0570  -62.1490  -19.3135 C.3       2 GLC5        0.0000 
     32 CA        -12.5740  -63.2140  -19.8390 C.3       4 GLP5        0.0000 
     33 CA         -9.1020  -60.0610  -21.4645 C.3       2 GLC5        0.0000 
     34 CA         -7.9570  -59.3580  -19.8250 C.3       6 GLL5        0.0000 
     35 CA        -10.2470  -60.7640  -23.1040 C.3       4 GLP5        0.0000 
     36 CA         -6.6745  -58.2605  -20.9920 C.3       2 GLC5        0.0000 
     37 CA         -5.3920  -57.1630  -22.1590 C.3       4 GLP5        0.0000 
     38 CA         -6.9315  -57.0715  -21.0630 C.3       2 GLC5        0.0000 
     39 CA         -8.4710  -56.9800  -19.9670 C.3       6 GLL5        0.0000 
     40 CA         -8.5685  -54.1825  -22.8535 C.3       2 GLC5        0.0000 
     41 CA         -9.5820  -54.7620  -21.1780 C.3       6 GLL5        0.0000 
     42 CA         -7.5550  -53.6030  -24.5290 C.3       4 GLP5        0.0000 
     43 CA        -11.5830  -54.7280  -21.4920 C.3       2 GLC5        0.0000 
     44 CA        -10.1110  -53.6610  -21.7290 C.3       6 GLL5        0.0000 
     45 CA        -13.0550  -55.7950  -21.2550 C.3       4 GLP5        0.0000 
     46 CA         -8.8405  -52.9530  -22.7980 C.3       2 GLC5        0.0000 
     47 CA         -7.5700  -52.2450  -23.8670 C.3       4 GLP5        0.0000 
     48 CA         -9.2210  -54.9460  -23.5625 C.3       2 GLC5        0.0000 
     49 CA         -9.6090  -55.9850  -21.8570 C.3       6 GLL5        0.0000 
     50 CA         -8.8330  -53.9070  -25.2680 C.3       4 GLP5        0.0000 
     51 CA         -6.3878  -55.6735  -14.9967 C.3       2 GLC5        0.0000 
     52 CA         -8.8130  -55.4420  -15.5090 C.3       6 GLL5        0.0000 
     53 CA         -4.5630  -55.6110  -14.4490 C.3       4 GLP5        0.0000 
     54 CA        -10.6375  -54.4898  -16.8849 C.3       2 GLC5        0.0000 
     55 CA         -8.7870  -54.2580  -16.1140 C.3       6 GLL5        0.0000 
     56 CA        -12.0330  -53.4660  -17.7790 C.3       4 GLP5        0.0000 
     57 CA        -11.4558  -53.2135  -11.4887 C.3       2 GLC5        0.0000 
     58 CA        -13.1510  -52.2810  -11.1360 C.3       4 GLP5        0.0000 
     59 CA        -11.7980  -55.6205  -10.5555 C.3       2 GLC5        0.0000 
     60 CA        -13.4880  -55.9500   -9.4270 C.3       4 GLP5        0.0000 
     61 CA         -7.5175  -61.7717  -17.5195 C.3       2 GLC5        0.0000 
     62 CA         -8.0000  -60.2790  -18.6260 C.3       6 GLL5        0.0000 
     63 CA         -6.2650  -62.8620  -16.3320 C.3       4 GLP5        0.0000 
     64 CA         -6.9407  -60.4977  -20.7067 C.3       2 GLC5        0.0000 
     65 CA         -5.9030  -61.1770  -22.1880 C.3       4 GLP5        0.0000 
     66 CA         -9.1810  -57.4770  -23.4315 C.3       2 GLC5        0.0000 
     67 CA         -9.0470  -57.1050  -21.2390 C.3       6 GLL5        0.0000 
     68 CA         -9.0340  -58.4090  -25.3150 C.3       4 GLP5        0.0000 
     69 CA        -11.2937  -52.9378  -21.4453 C.3       2 GLC5        0.0000 
     70 CA        -12.7410  -51.6640  -21.4370 C.3       4 GLP5        0.0000 
     71 CA        -10.8679  -53.8245  -19.4579 C.3       2 GLC5        0.0000 
     72 CA         -9.0070  -54.6480  -19.9110 C.3       6 GLL5        0.0000 
     73 CA         -7.5330  -55.5156  -21.6276 C.3       2 GLC5        0.0000 
     74 CA         -5.9750  -55.6020  -22.7710 C.3       4 GLP5        0.0000 
@<TRIPOS>BOND
@<TRIPOS>SUBSTRUCTURE
     1 SEC2       22 GROUP        1 X    SEC  0     ROOT SEC X 2
     2 GLC5        1 GROUP        1 X    GLC  0     **** GLC X 6
     3 SEP2       24 GROUP        1 Y    SEP  0     ROOT SEP Y 9
     4 GLP5        3 GROUP        1 Y    GLP  0     **** GLP Y 13
     5 SEL2       23 GROUP        1 Z    SEL  0     ROOT SEL Z 16
     6 GLL5        2 GROUP        1 Z    GLL  0     **** GLL Z 20
@<TRIPOS>SET

