#    Name: 4bfs_ZVS_1_ligand
#    Modification time : Tue Mar 25 07:37:32 2014

@<TRIPOS>MOLECULE
4bfs_ZVS_1_ligand
   52    54     1     0     0
SMALL
NO_CHARGES


@<TRIPOS>ATOM
      1 FAE        -8.7870  -54.2580  -16.1140 F         1 ZVS501      0.0000 
      2 CBF        -8.8130  -55.4420  -15.5090 C.3       1 ZVS501      0.0000 
      3 FAF        -7.6120  -56.0300  -15.5800 F         1 ZVS501      0.0000 
      4 FAG        -9.6840  -56.1770  -16.1700 F         1 ZVS501      0.0000 
      5 CBA        -9.2590  -55.2300  -14.0680 C.ar      1 ZVS501      0.0000 
      6 CAK        -9.1110  -53.9360  -13.5510 C.ar      1 ZVS501      0.0000 
      7 CAI        -9.4900  -53.6450  -12.2460 C.ar      1 ZVS501      0.0000 
      8 CAH       -10.0310  -54.6470  -11.4370 C.ar      1 ZVS501      0.0000 
      9 CAJ       -10.1850  -55.9350  -11.9310 C.ar      1 ZVS501      0.0000 
     10 CAZ        -9.8070  -56.2360  -13.2400 C.ar      1 ZVS501      0.0000 
     11 CAW       -10.0150  -57.6640  -13.6740 C.2       1 ZVS501      0.0000 
     12 OAC        -9.0210  -58.3740  -13.8260 O.2       1 ZVS501      0.0000 
     13 NAT       -11.2760  -58.1020  -13.8430 N.am      1 ZVS501      0.0000 
     14 CBD       -11.5790  -59.4720  -14.2560 C.3       1 ZVS501      0.0000 
     15 CAA       -13.0150  -59.8290  -13.9150 C.3       1 ZVS501      0.0000 
     16 CBC       -11.3100  -59.5940  -15.7120 C.2       1 ZVS501      0.0000 
     17 NBE       -10.4410  -60.4530  -16.2860 N.pl3     1 ZVS501      0.0000 
     18 CAB        -9.5990  -61.4790  -15.6230 C.3       1 ZVS501      0.0000 
     19 NAS       -11.8840  -58.8210  -16.6810 N.2       1 ZVS501      0.0000 
     20 NAR       -11.3580  -59.2190  -17.9230 N.2       1 ZVS501      0.0000 
     21 CBB       -10.4930  -60.2020  -17.5950 C.2       1 ZVS501      0.0000 
     22 SAV        -9.5400  -61.0840  -18.7880 S.3       1 ZVS501      0.0000 
     23 CAQ        -8.0000  -60.2790  -18.6260 C.3       1 ZVS501      0.0000 
     24 CAP        -7.9570  -59.3580  -19.8250 C.3       1 ZVS501      0.0000 
     25 OAU        -7.9080  -58.0340  -19.3220 O.3       1 ZVS501      0.0000 
     26 CAY        -8.4710  -56.9800  -19.9670 C.ar      1 ZVS501      0.0000 
     27 CAN        -9.0470  -57.1050  -21.2390 C.ar      1 ZVS501      0.0000 
     28 CAO        -8.4470  -55.7620  -19.3000 C.ar      1 ZVS501      0.0000 
     29 CAM        -9.0070  -54.6480  -19.9110 C.ar      1 ZVS501      0.0000 
     30 CAX        -9.5820  -54.7620  -21.1780 C.ar      1 ZVS501      0.0000 
     31 FAD       -10.1110  -53.6610  -21.7290 F         1 ZVS501      0.0000 
     32 CAL        -9.6090  -55.9850  -21.8570 C.ar      1 ZVS501      0.0000 
     33 H          -8.7158  -53.1946  -14.1499 H         1 ZVS501      0.0000 
     34 H          -9.3737  -52.6949  -11.8737 H         1 ZVS501      0.0000 
     35 H         -10.3148  -54.4259  -10.4732 H         1 ZVS501      0.0000 
     36 H         -10.5795  -56.6736  -11.3316 H         1 ZVS501      0.0000 
     37 H         -12.0984  -57.4824  -13.6867 H         1 ZVS501      0.0000 
     38 H         -10.9216  -60.1578  -13.7217 H         1 ZVS501      0.0000 
     39 H          -7.3046  -61.0527  -18.6736 H         1 ZVS501      0.0000 
     40 H          -8.0737  -59.7735  -17.7186 H         1 ZVS501      0.0000 
     41 H          -8.8472  -59.5361  -20.4228 H         1 ZVS501      0.0000 
     42 H          -7.0766  -59.6055  -20.4126 H         1 ZVS501      0.0000 
     43 H          -9.0547  -58.0127  -21.7107 H         1 ZVS501      0.0000 
     44 H          -8.0232  -55.6869  -18.3729 H         1 ZVS501      0.0000 
     45 H          -8.9999  -53.7381  -19.4333 H         1 ZVS501      0.0000 
     46 H         -10.0284  -56.0562  -22.7794 H         1 ZVS501      0.0000 
     47 H         -13.2404  -60.7639  -14.1891 H         1 ZVS501      0.0000 
     48 H         -13.1915  -59.7608  -12.9331 H         1 ZVS501      0.0000 
     49 H         -13.6668  -59.2242  -14.3727 H         1 ZVS501      0.0000 
     50 H          -9.0420  -61.9847  -16.2818 H         1 ZVS501      0.0000 
     51 H          -8.9711  -61.0720  -14.9596 H         1 ZVS501      0.0000 
     52 H         -10.1516  -62.1508  -15.1297 H         1 ZVS501      0.0000 
@<TRIPOS>BOND
     1    2    1 1    
     2    3    2 1    
     3    4    2 1    
     4    5    2 1    
     5    6    5 ar   
     6   10    5 ar   
     7    7    6 ar   
     8   33    6 1    
     9    8    7 ar   
    10   34    7 1    
    11    9    8 ar   
    12   35    8 1    
    13   10    9 ar   
    14   36    9 1    
    15   11   10 1    
    16   12   11 2    
    17   13   11 am   
    18   14   13 1    
    19   37   13 1    
    20   15   14 1    
    21   16   14 1    
    22   38   14 1    
    23   47   15 1    
    24   48   15 1    
    25   49   15 1    
    26   17   16 1    
    27   19   16 2    
    28   18   17 1    
    29   21   17 1    
    30   50   18 1    
    31   51   18 1    
    32   52   18 1    
    33   20   19 1    
    34   21   20 2    
    35   22   21 1    
    36   23   22 1    
    37   24   23 1    
    38   39   23 1    
    39   40   23 1    
    40   25   24 1    
    41   41   24 1    
    42   42   24 1    
    43   26   25 1    
    44   27   26 ar   
    45   28   26 ar   
    46   32   27 ar   
    47   43   27 1    
    48   29   28 ar   
    49   44   28 1    
    50   30   29 ar   
    51   45   29 1    
    52   31   30 1    
    53   32   30 ar   
    54   46   32 1    
@<TRIPOS>SUBSTRUCTURE
     1 ZVS501      1 GROUP   
@<TRIPOS>SET

