#    Name: 2cd8_PXI_1_INTS_M
#    Modification time : Mon Mar 24 23:28:36 2014

@<TRIPOS>MOLECULE
2cd8_PXI_1_INTS_M
   81     0     9     0     0
SMALL
NO_CHARGES


@<TRIPOS>ATOM
      1 CA         23.1465   -0.3160   25.2750 C.3       3 GLC5        0.0000 
      2 CA         23.8540   -0.3780   26.9170 C.3       9 GLL5        0.0000 
      3 CA         22.4390   -0.2540   23.6330 C.3       6 GLP5        0.0000 
      4 CA         21.9110    0.4080   27.2430 C.3       3 GLC5        0.0000 
      5 CA         19.9680    1.1940   27.5690 C.3       6 GLP5        0.0000 
      6 CA         21.6895   -1.9195   24.5070 C.3       3 GLC5        0.0000 
      7 CA         20.9400   -3.5850   25.3810 C.3       9 GLL5        0.0000 
      8 CA         19.6365   -2.0170   24.7410 C.3       3 GLC5        0.0000 
      9 CA         18.3330   -0.4490   24.1010 C.3       6 GLP5        0.0000 
     10 CA         16.1075   -9.2885   25.9140 C.3       3 GLC5        0.0000 
     11 CA         16.5650   -7.4390   25.8300 C.3       9 GLL5        0.0000 
     12 CA         15.6500  -11.1380   25.9980 C.3       6 GLP5        0.0000 
     13 CA         14.3865   -7.5310   28.2950 C.3       3 GLC5        0.0000 
     14 CA         15.3080   -7.2210   26.6590 C.3       9 GLL5        0.0000 
     15 CA         13.4650   -7.8410   29.9310 C.3       6 GLP5        0.0000 
     16 CA         14.2445   -8.7440   26.7610 C.3       3 GLC5        0.0000 
     17 CA         13.1810  -10.2670   26.8630 C.3       6 GLP5        0.0000 
     18 CA         13.6310   -6.2160   27.3510 C.3       3 GLC5        0.0000 
     19 CA         11.9540   -5.2110   28.0430 C.3       6 GLP5        0.0000 
     20 CA         15.1775   -8.8775   24.8240 C.3       3 GLC5        0.0000 
     21 CA         16.2600   -7.1290   24.3250 C.3       9 GLL5        0.0000 
     22 CA         14.0950  -10.6260   25.3230 C.3       6 GLP5        0.0000 
     23 OD1        17.7275   -5.8650   21.3420 O.co2     2 ASC3        0.0000 
     24 OD1        17.5650   -7.1370   22.0090 O.co2     8 ASL3        0.0000 
     25 OD1        17.8900   -4.5930   20.6750 O.co2     5 ASP3        0.0000 
     26 OD1        18.4820   -6.6500   21.2040 O.co2     2 ASC3        0.0000 
     27 OD1        19.3990   -6.1630   20.3990 O.co2     5 ASP3        0.0000 
     28 O          17.7275   -5.8650   21.3420 O.2       1 ALC1        0.0000 
     29 O          17.5650   -7.1370   22.0090 O.2       7 ALL1        0.0000 
     30 O          17.8900   -4.5930   20.6750 O.2       4 ALP1        0.0000 
     31 O          18.4820   -6.6500   21.2040 O.2       1 ALC1        0.0000 
     32 O          19.3990   -6.1630   20.3990 O.2       4 ALP1        0.0000 
     33 CA         19.1440   -9.1980   20.4930 C.3       3 GLC5        0.0000 
     34 CA         17.8700   -8.4720   21.4750 C.3       9 GLL5        0.0000 
     35 CA         20.4180   -9.9240   19.5110 C.3       6 GLP5        0.0000 
     36 CA         17.3240   -9.1850   19.8240 C.3       3 GLC5        0.0000 
     37 CA         16.7780   -9.8980   18.1730 C.3       6 GLP5        0.0000 
     38 CA         16.3725   -9.7235   21.3720 C.3       3 GLC5        0.0000 
     39 CA         14.8750  -10.9750   21.2690 C.3       6 GLP5        0.0000 
     40 CA         15.5625   -8.8635   21.3690 C.3       3 GLC5        0.0000 
     41 CA         16.2500   -6.7520   21.4690 C.3       9 GLL5        0.0000 
     42 CA         14.4705   -6.0850   21.9180 C.3       3 GLC5        0.0000 
     43 CA         12.6910   -5.4180   22.3670 C.3       6 GLP5        0.0000 
     44 CA         15.7860   -5.8190   19.9860 C.3       3 GLC5        0.0000 
     45 CA         15.3220   -4.8860   18.5030 C.3       6 GLP5        0.0000 
     46 O          19.6500   -6.2675   21.9105 O.2       1 ALC1        0.0000 
     47 O          19.9010   -6.3720   23.4220 O.2       7 ALL1        0.0000 
     48 CA         18.2110   -7.5450   30.1415 C.3       3 GLC5        0.0000 
     49 CA         18.9200   -6.2640   29.2250 C.3       9 GLL5        0.0000 
     50 CA         17.5020   -8.8260   31.0580 C.3       6 GLP5        0.0000 
     51 CA         19.6870   -8.6595   30.7715 C.3       3 GLC5        0.0000 
     52 CA         21.8720   -8.4930   30.4850 C.3       9 GLL5        0.0000 
     53 CA         21.6610   -8.2570   32.3000 C.3       3 GLC5        0.0000 
     54 CA         21.4500   -8.0210   34.1150 C.3       6 GLP5        0.0000 
     55 CA         24.8640   -5.9790   28.1660 C.3       3 GLC5        0.0000 
     56 CA         24.1460   -4.6970   29.8050 C.3       9 GLL5        0.0000 
     57 CA         25.5820   -7.2610   26.5270 C.3       6 GLP5        0.0000 
     58 CA         24.9580   -5.5130   31.7380 C.3       3 GLC5        0.0000 
     59 CA         25.7700   -6.3290   33.6710 C.3       6 GLP5        0.0000 
     60 CA         24.3290   -1.8895   30.7535 C.3       3 GLC5        0.0000 
     61 CA         24.8480   -3.3640   29.4570 C.3       9 GLL5        0.0000 
     62 CA         23.8100   -0.4150   32.0500 C.3       6 GLP5        0.0000 
     63 CA         26.3280   -2.2210   29.9275 C.3       3 GLC5        0.0000 
     64 CA         27.8080   -1.0780   30.3980 C.3       6 GLP5        0.0000 
     65 CA         27.6795   -3.1960   28.8585 C.3       3 GLC5        0.0000 
     66 CA         26.1040   -3.8080   28.7050 C.3       9 GLL5        0.0000 
     67 CA         29.2550   -2.5840   29.0120 C.3       6 GLP5        0.0000 
     68 CA         25.4060   -3.8245   26.7220 C.3       3 GLC5        0.0000 
     69 CA         24.7080   -3.8410   24.7390 C.3       6 GLP5        0.0000 
     70 CA         25.8430   -5.5345   27.6160 C.3       3 GLC5        0.0000 
     71 CA         24.0738   -1.1178   30.1117 C.3       3 GLC5        0.0000 
     72 CA         24.7560   -1.3000   27.7520 C.3       9 GLL5        0.0000 
     73 CA         26.0727   -1.4493   29.2858 C.3       3 GLC5        0.0000 
     74 CA         23.9190   -2.3410   28.5950 C.3       9 GLL5        0.0000 
     75 CA         24.4100   -2.7155   26.3519 C.3       3 GLC5        0.0000 
     76 CA         22.9085   -3.8782   25.4015 C.3       3 GLC5        0.0000 
     77 CA         21.2780   -4.2460   26.7470 C.3       9 GLL5        0.0000 
     78 CA         14.2576   -6.8803   24.9244 C.3       3 GLC5        0.0000 
     79 CA         12.4170   -6.5310   24.5640 C.3       6 GLP5        0.0000 
     80 CA         18.3806   -4.4241   28.8094 C.3       3 GLC5        0.0000 
     81 CA         17.2350   -2.9870   29.0630 C.3       6 GLP5        0.0000 
@<TRIPOS>BOND
@<TRIPOS>SUBSTRUCTURE
     1 ALC1       28 GROUP        1 X    ALC  0     ROOT ALC X 1
     2 ASC3       23 GROUP        1 X    ASC  0     **** ASC X 3
     3 GLC5        1 GROUP        1 X    GLC  0     **** GLC X 6
     4 ALP1       30 GROUP        1 Y    ALP  0     ROOT ALP Y 8
     5 ASP3       25 GROUP        1 Y    ASP  0     **** ASP Y 10
     6 GLP5        3 GROUP        1 Y    GLP  0     **** GLP Y 13
     7 ALL1       29 GROUP        1 Z    ALL  0     ROOT ALL Z 15
     8 ASL3       24 GROUP        1 Z    ASL  0     **** ASL Z 17
     9 GLL5        2 GROUP        1 Z    GLL  0     **** GLL Z 20
@<TRIPOS>SET

