#    Name: 2cd8_PXI_1_ligand
#    Modification time : Mon Mar 24 23:28:36 2014

@<TRIPOS>MOLECULE
2cd8_PXI_1_ligand
   76    77     1     0     0
SMALL
NO_CHARGES


@<TRIPOS>ATOM
      1 C1         23.8540   -0.3780   26.9170 C.3       1 PXI420      0.0000 
      2 C2         24.7560   -1.3000   27.7520 C.3       1 PXI420      0.0000 
      3 C3         23.9190   -2.3410   28.5950 C.3       1 PXI420      0.0000 
      4 O1         23.0560   -3.1340   27.7210 O.3       1 PXI420      0.0000 
      5 C4         21.6970   -3.2080   27.6870 C.2       1 PXI420      0.0000 
      6 O2         20.9480   -2.5320   28.3610 O.2       1 PXI420      0.0000 
      7 C5         21.2780   -4.2460   26.7470 C.3       1 PXI420      0.0000 
      8 C6         20.9400   -3.5850   25.3810 C.3       1 PXI420      0.0000 
      9 C7         20.0400   -5.1210   27.1610 C.3       1 PXI420      0.0000 
     10 O3         20.0550   -6.1320   26.1000 O.3       1 PXI420      0.0000 
     11 C8         18.8460   -6.7290   25.5950 C.3       1 PXI420      0.0000 
     12 O4         17.6290   -6.5510   26.3500 O.3       1 PXI420      0.0000 
     13 C9         16.5650   -7.4390   25.8300 C.3       1 PXI420      0.0000 
     14 C10        15.3080   -7.2210   26.6590 C.3       1 PXI420      0.0000 
     15 C11        16.2600   -7.1290   24.3250 C.3       1 PXI420      0.0000 
     16 C12        17.5960   -7.2770   23.5170 C.3       1 PXI420      0.0000 
     17 N1         17.5650   -7.1370   22.0090 N.4       1 PXI420      0.0000 
     18 C13        17.8700   -8.4720   21.4750 C.3       1 PXI420      0.0000 
     19 C14        16.2500   -6.7520   21.4690 C.3       1 PXI420      0.0000 
     20 C15        18.6540   -6.2880   24.1370 C.3       1 PXI420      0.0000 
     21 O5         19.9010   -6.3720   23.4220 O.3       1 PXI420      0.0000 
     22 C16        20.2250   -5.7960   28.6120 C.3       1 PXI420      0.0000 
     23 C17        18.9200   -6.2640   29.2250 C.3       1 PXI420      0.0000 
     24 C18        21.2310   -6.9650   28.5400 C.3       1 PXI420      0.0000 
     25 C19        22.2230   -7.2170   29.7480 C.3       1 PXI420      0.0000 
     26 C20        21.8720   -8.4930   30.4850 C.3       1 PXI420      0.0000 
     27 C21        22.3030   -5.9890   30.7790 C.2       1 PXI420      0.0000 
     28 O6         21.7350   -6.0540   31.8570 O.2       1 PXI420      0.0000 
     29 C22        23.0150   -4.7490   30.4770 C.2       1 PXI420      0.0000 
     30 C23        24.1460   -4.6970   29.8050 C.2       1 PXI420      0.0000 
     31 C24        24.8480   -3.3640   29.4570 C.3       1 PXI420      0.0000 
     32 C25        26.1040   -3.8080   28.7050 C.3       1 PXI420      0.0000 
     33 H          25.3495   -0.7063   28.4430 H         1 PXI420      0.0000 
     34 H          25.4219   -1.8553   27.0960 H         1 PXI420      0.0000 
     35 H          23.3259   -1.7942   29.3157 H         1 PXI420      0.0000 
     36 H          22.1027   -4.9394   26.5385 H         1 PXI420      0.0000 
     37 H          19.1868   -4.5357   27.1330 H         1 PXI420      0.0000 
     38 H          19.0361   -7.8506   25.5002 H         1 PXI420      0.0000 
     39 H          16.8579   -8.4650   25.9072 H         1 PXI420      0.0000 
     40 H          15.9075   -6.1240   24.2377 H         1 PXI420      0.0000 
     41 H          15.5485   -7.8366   23.9577 H         1 PXI420      0.0000 
     42 H          18.0019   -8.2936   23.7692 H         1 PXI420      0.0000 
     43 H          18.3242   -6.4564   21.6985 H         1 PXI420      0.0000 
     44 H          18.2290   -5.3175   24.1272 H         1 PXI420      0.0000 
     45 H          20.6645   -5.0256   29.2540 H         1 PXI420      0.0000 
     46 H          21.8560   -6.8451   27.6175 H         1 PXI420      0.0000 
     47 H          20.6642   -7.9172   28.3725 H         1 PXI420      0.0000 
     48 H          23.2292   -7.3299   29.3244 H         1 PXI420      0.0000 
     49 H          22.5468   -3.8744   30.8450 H         1 PXI420      0.0000 
     50 H          24.6607   -5.5278   29.4538 H         1 PXI420      0.0000 
     51 H          25.1384   -2.8839   30.3642 H         1 PXI420      0.0000 
     52 H          24.3867    0.2800   26.3847 H         1 PXI420      0.0000 
     53 H          23.2937   -0.8940   26.2691 H         1 PXI420      0.0000 
     54 H          23.2276    0.1486   27.4917 H         1 PXI420      0.0000 
     55 H          21.7275   -3.1032   24.9966 H         1 PXI420      0.0000 
     56 H          20.6502   -4.2606   24.7031 H         1 PXI420      0.0000 
     57 H          20.2001   -2.9175   25.4644 H         1 PXI420      0.0000 
     58 H          15.4600   -7.4278   27.6255 H         1 PXI420      0.0000 
     59 H          14.9892   -6.2745   26.6084 H         1 PXI420      0.0000 
     60 H          14.5542   -7.8011   26.3502 H         1 PXI420      0.0000 
     61 H          18.7691   -8.7940   21.7714 H         1 PXI420      0.0000 
     62 H          17.2016   -9.1531   21.7738 H         1 PXI420      0.0000 
     63 H          17.8705   -8.4808   20.4750 H         1 PXI420      0.0000 
     64 H          15.9435   -5.8714   21.8304 H         1 PXI420      0.0000 
     65 H          16.2673   -6.6699   20.4725 H         1 PXI420      0.0000 
     66 H          15.5444   -7.4234   21.6956 H         1 PXI420      0.0000 
     67 H          19.0592   -6.6751   30.1259 H         1 PXI420      0.0000 
     68 H          18.2739   -5.5100   29.3435 H         1 PXI420      0.0000 
     69 H          18.4677   -6.9509   28.6561 H         1 PXI420      0.0000 
     70 H          21.9209   -9.2929   29.8868 H         1 PXI420      0.0000 
     71 H          22.4919   -8.6618   31.2513 H         1 PXI420      0.0000 
     72 H          20.9450   -8.4629   30.8589 H         1 PXI420      0.0000 
     73 H          26.6860   -3.0316   28.4631 H         1 PXI420      0.0000 
     74 H          26.6617   -4.4336   29.2504 H         1 PXI420      0.0000 
     75 H          25.8791   -4.2821   27.8538 H         1 PXI420      0.0000 
     76 H          19.6690   -6.7956   22.5464 H         1 PXI420      0.0000 
@<TRIPOS>BOND
     1    2    1 1    
     2   52    1 1    
     3   53    1 1    
     4   54    1 1    
     5    3    2 1    
     6   33    2 1    
     7   34    2 1    
     8    4    3 1    
     9   31    3 1    
    10   35    3 1    
    11    5    4 1    
    12    6    5 2    
    13    7    5 1    
    14    8    7 1    
    15    9    7 1    
    16   36    7 1    
    17   55    8 1    
    18   56    8 1    
    19   57    8 1    
    20   10    9 1    
    21   22    9 1    
    22   37    9 1    
    23   11   10 1    
    24   12   11 1    
    25   20   11 1    
    26   38   11 1    
    27   13   12 1    
    28   14   13 1    
    29   15   13 1    
    30   39   13 1    
    31   58   14 1    
    32   59   14 1    
    33   60   14 1    
    34   16   15 1    
    35   40   15 1    
    36   41   15 1    
    37   17   16 1    
    38   20   16 1    
    39   42   16 1    
    40   18   17 1    
    41   19   17 1    
    42   43   17 1    
    43   61   18 1    
    44   62   18 1    
    45   63   18 1    
    46   64   19 1    
    47   65   19 1    
    48   66   19 1    
    49   21   20 1    
    50   44   20 1    
    51   76   21 1    
    52   23   22 1    
    53   24   22 1    
    54   45   22 1    
    55   67   23 1    
    56   68   23 1    
    57   69   23 1    
    58   25   24 1    
    59   46   24 1    
    60   47   24 1    
    61   26   25 1    
    62   27   25 1    
    63   48   25 1    
    64   70   26 1    
    65   71   26 1    
    66   72   26 1    
    67   28   27 2    
    68   29   27 1    
    69   30   29 2    
    70   49   29 1    
    71   31   30 1    
    72   50   30 1    
    73   32   31 1    
    74   51   31 1    
    75   73   32 1    
    76   74   32 1    
    77   75   32 1    
@<TRIPOS>SUBSTRUCTURE
     1 PXI420      1 GROUP   
@<TRIPOS>SET

