#    Name: 3t7p_7SP_1_INTS_M
#    Modification time : Mon Mar 24 19:17:12 2014

@<TRIPOS>MOLECULE
3t7p_7SP_1_INTS_M
   41     0    12     0     0
SMALL
NO_CHARGES


@<TRIPOS>ATOM
      1 CA          0.7685    1.5460    8.8885 C.3       4 GLC5        0.0000 
      2 CA         -0.3130    2.2820   10.5820 C.3      12 GLL5        0.0000 
      3 CA          1.8500    0.8100    7.1950 C.3       8 GLP5        0.0000 
      4 N          -3.0415    7.2420   10.6050 N.am      2 SEC2        0.0000 
      5 N          -1.9210    6.3220   10.2100 N.am     10 SEL2        0.0000 
      6 N          -4.1620    8.1620   11.0000 N.am      6 SEP2        0.0000 
      7 O           1.2860    5.0160   10.0850 O.2       1 ALC1        0.0000 
      8 O           0.3100    5.8880   10.6440 O.2       9 ALL1        0.0000 
      9 O           2.2620    4.1440    9.5260 O.2       5 ALP1        0.0000 
     10 N          -0.6870    7.7390   11.8950 N.am      2 SEC2        0.0000 
     11 N           0.4570    7.0420   11.3460 N.am     10 SEL2        0.0000 
     12 N          -1.8310    8.4360   12.4440 N.am      6 SEP2        0.0000 
     13 CA          0.1115    7.6045   13.5905 C.3       4 GLC5        0.0000 
     14 CA          2.0800    8.2740   12.8320 C.3      12 GLL5        0.0000 
     15 CA         -1.8570    6.9350   14.3490 C.3       8 GLP5        0.0000 
     16 CA         -0.3270    9.5370   12.0360 C.3       4 GLC5        0.0000 
     17 CA          1.6240    9.5170   12.4350 C.3      12 GLL5        0.0000 
     18 CA         -2.2780    9.5570   11.6370 C.3       8 GLP5        0.0000 
     19 CA          6.5515    7.6925   16.3430 C.3       4 GLC5        0.0000 
     20 CA          4.4280    7.9960   16.2940 C.3      12 GLL5        0.0000 
     21 CA          8.6750    7.3890   16.3920 C.3       8 GLP5        0.0000 
     22 CA          6.1600    9.5040   15.8195 C.3       4 GLC5        0.0000 
     23 CA          3.9560    9.2180   15.8640 C.3      12 GLL5        0.0000 
     24 CA          8.3640    9.7900   15.7750 C.3       8 GLP5        0.0000 
     25 OD1        -3.6955    4.3250    9.2095 O.co2     3 ASC3        0.0000 
     26 OD1        -2.2640    4.3900    8.4210 O.co2    11 ASL3        0.0000 
     27 OD1        -5.1270    4.2600    9.9980 O.co2     7 ASP3        0.0000 
     28 O          -3.6955    4.3250    9.2095 O.2       1 ALC1        0.0000 
     29 O          -2.2640    4.3900    8.4210 O.2       9 ALL1        0.0000 
     30 O          -5.1270    4.2600    9.9980 O.2       5 ALP1        0.0000 
     31 CA          0.0590   -0.1578   12.2765 C.3       4 GLC5        0.0000 
     32 CA         -1.6900    1.1800   12.2340 C.3      12 GLL5        0.0000 
     33 CA          1.2070   -1.5430   12.6720 C.3       8 GLP5        0.0000 
     34 CA         -2.0617    4.2349   12.3054 C.3       4 GLC5        0.0000 
     35 CA         -1.3260    3.1890   10.3240 C.3      12 GLL5        0.0000 
     36 CA         -2.1530    5.5800   13.6910 C.3       8 GLP5        0.0000 
     37 CA          4.0828    5.1493   14.4465 C.3       4 GLC5        0.0000 
     38 CA          3.3440    6.9390   14.4290 C.3      12 GLL5        0.0000 
     39 CA          4.4310    3.4030   13.8890 C.3       8 GLP5        0.0000 
     40 CA          3.2296    5.8509   16.6635 C.3       4 GLC5        0.0000 
     41 CA          2.3780    4.2560   17.6780 C.3       8 GLP5        0.0000 
@<TRIPOS>BOND
@<TRIPOS>SUBSTRUCTURE
     1 ALC1        7 GROUP        1 X    ALC  0     ROOT ALC X 1
     2 SEC2        4 GROUP        1 X    SEC  0     **** SEC X 2
     3 ASC3       25 GROUP        1 X    ASC  0     **** ASC X 3
     4 GLC5        1 GROUP        1 X    GLC  0     **** GLC X 6
     5 ALP1        9 GROUP        1 Y    ALP  0     ROOT ALP Y 8
     6 SEP2        6 GROUP        1 Y    SEP  0     **** SEP Y 9
     7 ASP3       27 GROUP        1 Y    ASP  0     **** ASP Y 10
     8 GLP5        3 GROUP        1 Y    GLP  0     **** GLP Y 13
     9 ALL1        8 GROUP        1 Z    ALL  0     ROOT ALL Z 15
    10 SEL2        5 GROUP        1 Z    SEL  0     **** SEL Z 16
    11 ASL3       26 GROUP        1 Z    ASL  0     **** ASL Z 17
    12 GLL5        2 GROUP        1 Z    GLL  0     **** GLL Z 20
@<TRIPOS>SET

