#    Name: 3t7p_7SP_1_ligand
#    Modification time : Mon Mar 24 19:17:12 2014

@<TRIPOS>MOLECULE
3t7p_7SP_1_ligand
   42    44     1     0     0
SMALL
NO_CHARGES


@<TRIPOS>ATOM
      1 C1         -2.7020    2.0880   11.9890 C.ar      1 7SP1001     0.0000 
      2 C2         -1.6900    1.1800   12.2340 C.ar      1 7SP1001     0.0000 
      3 C3         -0.4880    1.2750   11.5280 C.ar      1 7SP1001     0.0000 
      4 C4         -0.3130    2.2820   10.5820 C.ar      1 7SP1001     0.0000 
      5 C5         -1.3260    3.1890   10.3240 C.ar      1 7SP1001     0.0000 
      6 C6         -2.5280    3.0930   11.0420 C.ar      1 7SP1001     0.0000 
      7 C7         -1.1260    4.2820    9.3050 C.3       1 7SP1001     0.0000 
      8 C8         -0.9670    5.5640   10.0620 C.2       1 7SP1001     0.0000 
      9 O9         -1.9210    6.3220   10.2100 O.2       1 7SP1001     0.0000 
     10 N10         0.3100    5.8880   10.6440 N.am      1 7SP1001     0.0000 
     11 N11         0.4570    7.0420   11.3460 N.2       1 7SP1001     0.0000 
     12 C12         1.7310    7.0560   12.0300 C.2       1 7SP1001     0.0000 
     13 C13         2.0800    8.2740   12.8320 C.ar      1 7SP1001     0.0000 
     14 C14         1.6240    9.5170   12.4350 C.ar      1 7SP1001     0.0000 
     15 C15         1.9370   10.6590   13.1630 C.ar      1 7SP1001     0.0000 
     16 C16         2.7170   10.5530   14.3070 C.ar      1 7SP1001     0.0000 
     17 C17         3.1750    9.3110   14.7130 C.ar      1 7SP1001     0.0000 
     18 C18         2.8630    8.1600   13.9820 C.ar      1 7SP1001     0.0000 
     19 C19         3.3440    6.9390   14.4290 C.ar      1 7SP1001     0.0000 
     20 C20         4.1250    6.8520   15.5790 C.ar      1 7SP1001     0.0000 
     21 C21         4.4280    7.9960   16.2940 C.ar      1 7SP1001     0.0000 
     22 C22         3.9560    9.2180   15.8640 C.ar      1 7SP1001     0.0000 
     23 O23         3.0310   11.6750   15.0330 O.3       1 7SP1001     0.0000 
     24 N24        -2.2640    4.3900    8.4210 N.4       1 7SP1001     0.0000 
     25 H          -3.5913    2.0248   12.5073 H         1 7SP1001     0.0000 
     26 H          -1.8137    0.4359   12.9306 H         1 7SP1001     0.0000 
     27 H           0.2656    0.6009   11.7082 H         1 7SP1001     0.0000 
     28 H           0.5820    2.3493   10.0706 H         1 7SP1001     0.0000 
     29 H          -3.2804    3.7706   10.8639 H         1 7SP1001     0.0000 
     30 H          -0.2226    4.0896    8.7628 H         1 7SP1001     0.0000 
     31 H           1.0809    5.2278   10.5087 H         1 7SP1001     0.0000 
     32 H           2.3648    6.3037   11.9860 H         1 7SP1001     0.0000 
     33 H           1.0403    9.6023   11.5830 H         1 7SP1001     0.0000 
     34 H           1.5929   11.5761   12.8559 H         1 7SP1001     0.0000 
     35 H           3.1206    6.0760   13.9013 H         1 7SP1001     0.0000 
     36 H           4.4734    5.9365   15.8920 H         1 7SP1001     0.0000 
     37 H           5.0048    7.9337   17.1453 H         1 7SP1001     0.0000 
     38 H           4.1794   10.0763   16.3948 H         1 7SP1001     0.0000 
     39 H          -2.1661    3.8044    7.6164 H         1 7SP1001     0.0000 
     40 H          -3.1140    4.1238    8.8756 H         1 7SP1001     0.0000 
     41 H          -2.3894    5.3250    8.0895 H         1 7SP1001     0.0000 
     42 H           3.6084   12.2524   15.6104 H         1 7SP1001     0.0000 
@<TRIPOS>BOND
     1    2    1 ar   
     2    6    1 ar   
     3   25    1 1    
     4    3    2 ar   
     5   26    2 1    
     6    4    3 ar   
     7   27    3 1    
     8    5    4 ar   
     9   28    4 1    
    10    6    5 ar   
    11    7    5 1    
    12   29    6 1    
    13    8    7 1    
    14   24    7 1    
    15   30    7 1    
    16    9    8 2    
    17   10    8 am   
    18   11   10 1    
    19   31   10 1    
    20   12   11 2    
    21   13   12 1    
    22   32   12 1    
    23   14   13 ar   
    24   18   13 ar   
    25   15   14 ar   
    26   33   14 1    
    27   16   15 ar   
    28   34   15 1    
    29   17   16 ar   
    30   23   16 1    
    31   18   17 ar   
    32   22   17 ar   
    33   19   18 ar   
    34   20   19 ar   
    35   35   19 1    
    36   21   20 ar   
    37   36   20 1    
    38   22   21 ar   
    39   37   21 1    
    40   38   22 1    
    41   42   23 1    
    42   39   24 1    
    43   40   24 1    
    44   41   24 1    
@<TRIPOS>SUBSTRUCTURE
     1 7SP1001     1 GROUP   
@<TRIPOS>SET

