#    Name: 4k4f_K4F_1_INTS_M
#    Modification time : Tue Mar 25 06:57:43 2014

@<TRIPOS>MOLECULE
4k4f_K4F_1_INTS_M
   69     0     6     0     0
SMALL
NO_CHARGES


@<TRIPOS>ATOM
      1 CA         -6.1870   47.1995   32.4105 C.3       2 GLC5        0.0000 
      2 CA         -6.5030   46.3180   30.6910 C.3       6 GLL5        0.0000 
      3 CA         -5.8710   48.0810   34.1300 C.3       4 GLP5        0.0000 
      4 CA         -3.5225   45.2470   31.2455 C.3       2 GLC5        0.0000 
      5 CA         -5.4280   45.4740   30.3420 C.3       6 GLL5        0.0000 
      6 CA         -1.6170   45.0200   32.1490 C.3       4 GLP5        0.0000 
      7 CA         -3.5770   47.9485   25.3990 C.3       2 GLC5        0.0000 
      8 CA         -4.7810   46.7780   26.2500 C.3       6 GLL5        0.0000 
      9 CA         -2.3730   49.1190   24.5480 C.3       4 GLP5        0.0000 
     10 CA         -5.2805   48.7230   27.1325 C.3       2 GLC5        0.0000 
     11 CA         -5.7800   50.6680   28.0150 C.3       4 GLP5        0.0000 
     12 CA         -7.8105   44.6475   23.8080 C.3       2 GLC5        0.0000 
     13 CA         -5.8300   45.4710   24.3530 C.3       6 GLL5        0.0000 
     14 CA         -9.7910   43.8240   23.2630 C.3       4 GLP5        0.0000 
     15 CA         -4.5580   47.2020   23.8735 C.3       2 GLC5        0.0000 
     16 CA         -3.2860   48.9330   23.3940 C.3       4 GLP5        0.0000 
     17 N          -3.1350   41.7495   25.3990 N.am      1 SEC2        0.0000 
     18 N          -3.9800   42.1640   26.2070 N.am      5 SEL2        0.0000 
     19 N          -2.2900   41.3350   24.5910 N.am      3 SEP2        0.0000 
     20 CA         -8.2320   38.5830   28.7445 C.3       2 GLC5        0.0000 
     21 CA         -8.7950   40.1210   27.2530 C.3       6 GLL5        0.0000 
     22 CA         -7.6690   37.0450   30.2360 C.3       4 GLP5        0.0000 
     23 N          -9.8350   36.9555   25.7415 N.am      1 SEC2        0.0000 
     24 N          -9.4490   37.8360   26.8680 N.am      5 SEL2        0.0000 
     25 N         -10.2210   36.0750   24.6150 N.am      3 SEP2        0.0000 
     26 CA        -13.9715   34.2015   28.4915 C.3       2 GLC5        0.0000 
     27 CA        -13.1370   36.1600   28.3120 C.3       6 GLL5        0.0000 
     28 CA        -14.8060   32.2430   28.6710 C.3       4 GLP5        0.0000 
     29 CA        -15.4370   35.1305   29.4455 C.3       2 GLC5        0.0000 
     30 CA        -14.2350   36.7270   29.0030 C.3       6 GLL5        0.0000 
     31 CA        -16.6390   33.5340   29.8880 C.3       4 GLP5        0.0000 
     32 CA        -12.4035   40.3970   31.1200 C.3       2 GLC5        0.0000 
     33 CA        -14.0580   40.7520   30.1750 C.3       6 GLL5        0.0000 
     34 CA        -10.7490   40.0420   32.0650 C.3       4 GLP5        0.0000 
     35 CA         -5.9775   48.2812   29.6900 C.3       2 GLC5        0.0000 
     36 CA         -4.9300   50.0930   29.1420 C.3       4 GLP5        0.0000 
     37 CA         -5.6738   43.5080   30.5903 C.3       2 GLC5        0.0000 
     38 CA         -5.9340   41.8210   31.5030 C.3       4 GLP5        0.0000 
     39 CA         -6.9217   45.0229   31.8290 C.3       2 GLC5        0.0000 
     40 CA         -7.6170   44.0740   33.3680 C.3       4 GLP5        0.0000 
     41 CA         -3.8285   44.8465   24.3645 C.3       2 GLC5        0.0000 
     42 CA         -2.0570   44.2460   23.6730 C.3       4 GLP5        0.0000 
     43 CA         -6.8854   47.0104   24.7074 C.3       2 GLC5        0.0000 
     44 CA         -8.3180   48.2350   24.2360 C.3       4 GLP5        0.0000 
     45 CA        -10.9113   41.0823   26.7025 C.3       2 GLC5        0.0000 
     46 CA         -9.1300   41.4420   27.6410 C.3       6 GLL5        0.0000 
     47 CA        -12.8600   41.3830   25.9580 C.3       4 GLP5        0.0000 
     48 CA         -5.8525   39.4540   25.6635 C.3       2 GLC5        0.0000 
     49 CA         -7.5400   39.8630   26.6860 C.3       6 GLL5        0.0000 
     50 CA         -4.6320   38.5150   24.7420 C.3       4 GLP5        0.0000 
     51 CA        -11.6180   39.3213   30.4082 C.3       2 GLC5        0.0000 
     52 CA        -11.9410   38.3300   28.4060 C.3       6 GLL5        0.0000 
     53 CA        -12.7160   37.0282   30.1480 C.3       2 GLC5        0.0000 
     54 CA        -13.4650   36.4120   32.0860 C.3       4 GLP5        0.0000 
     55 CA        -10.4085   36.8713   29.1340 C.3       2 GLC5        0.0000 
     56 CA        -11.9930   36.9590   28.0140 C.3       6 GLL5        0.0000 
     57 CA         -8.8500   36.0980   30.0580 C.3       4 GLP5        0.0000 
     58 CA        -13.5755   36.4278   30.3717 C.3       2 GLC5        0.0000 
     59 CA        -12.5630   36.7876   26.2710 C.3       2 GLC5        0.0000 
     60 CA        -12.5740   36.6730   24.2810 C.3       4 GLP5        0.0000 
     61 CA        -13.5447   37.4363   30.6675 C.3       2 GLC5        0.0000 
     62 CA        -13.0330   38.8710   29.0970 C.3       6 GLL5        0.0000 
     63 CA        -13.7733   39.5511   27.6691 C.3       2 GLC5        0.0000 
     64 CA        -14.2160   38.0500   29.4010 C.3       6 GLL5        0.0000 
     65 CA        -14.1950   40.7770   26.2620 C.3       4 GLP5        0.0000 
     66 CA        -14.3575   37.8513   31.1820 C.3       2 GLC5        0.0000 
     67 CA        -15.2820   38.6130   30.0790 C.3       6 GLL5        0.0000 
     68 CA        -15.0125   40.6941   28.4032 C.3       2 GLC5        0.0000 
     69 CA        -15.3710   41.3670   26.5800 C.3       4 GLP5        0.0000 
@<TRIPOS>BOND
@<TRIPOS>SUBSTRUCTURE
     1 SEC2       17 GROUP        1 X    SEC  0     ROOT SEC X 2
     2 GLC5        1 GROUP        1 X    GLC  0     **** GLC X 6
     3 SEP2       19 GROUP        1 Y    SEP  0     ROOT SEP Y 9
     4 GLP5        3 GROUP        1 Y    GLP  0     **** GLP Y 13
     5 SEL2       18 GROUP        1 Z    SEL  0     ROOT SEL Z 16
     6 GLL5        2 GROUP        1 Z    GLL  0     **** GLL Z 20
@<TRIPOS>SET

