#    Name: 4k4f_K4F_1_ligand
#    Modification time : Tue Mar 25 06:57:43 2014

@<TRIPOS>MOLECULE
4k4f_K4F_1_ligand
   56    60     1     0     0
SMALL
NO_CHARGES


@<TRIPOS>ATOM
      1 C1         -7.5140   46.0660   28.4820 C.ar      1 K4F1402     0.0000 
      2 C2         -7.5470   46.6210   29.7850 C.ar      1 K4F1402     0.0000 
      3 C3         -6.5030   46.3180   30.6910 C.ar      1 K4F1402     0.0000 
      4 C4         -5.4280   45.4740   30.3420 C.ar      1 K4F1402     0.0000 
      5 C5         -5.3990   44.9160   29.0130 C.ar      1 K4F1402     0.0000 
      6 C6         -6.4770   45.2380   28.0660 C.ar      1 K4F1402     0.0000 
      7 C7         -6.2760   44.7260   26.8210 C.3       1 K4F1402     0.0000 
      8 C8         -5.3700   45.4230   25.7590 C.3       1 K4F1402     0.0000 
      9 C9         -4.7810   46.7780   26.2500 C.3       1 K4F1402     0.0000 
     10 C10        -5.8300   45.4710   24.3530 C.3       1 K4F1402     0.0000 
     11 O1         -4.2470   44.4790   25.9170 O.3       1 K4F1402     0.0000 
     12 C11        -4.7070   43.1480   26.2380 C.2       1 K4F1402     0.0000 
     13 O2         -3.9800   42.1640   26.2070 O.2       1 K4F1402     0.0000 
     14 N1         -6.0450   43.2570   26.5880 N.am      1 K4F1402     0.0000 
     15 C12        -6.9170   42.2530   26.8480 C.ar      1 K4F1402     0.0000 
     16 C13        -8.2030   42.4940   27.4420 C.ar      1 K4F1402     0.0000 
     17 C14        -9.1300   41.4420   27.6410 C.ar      1 K4F1402     0.0000 
     18 C15        -6.6060   40.9230   26.4840 C.ar      1 K4F1402     0.0000 
     19 C16        -7.5400   39.8630   26.6860 C.ar      1 K4F1402     0.0000 
     20 C17        -8.7950   40.1210   27.2530 C.ar      1 K4F1402     0.0000 
     21 C18        -9.7190   38.9460   27.3750 C.2       1 K4F1402     0.0000 
     22 O3         -9.4490   37.8360   26.8680 O.2       1 K4F1402     0.0000 
     23 N2        -10.8920   39.1760   28.0790 N.am      1 K4F1402     0.0000 
     24 C19       -11.9410   38.3300   28.4060 C.ar      1 K4F1402     0.0000 
     25 C20       -11.9930   36.9590   28.0140 C.ar      1 K4F1402     0.0000 
     26 C21       -13.1370   36.1600   28.3120 C.ar      1 K4F1402     0.0000 
     27 C22       -14.2350   36.7270   29.0030 C.ar      1 K4F1402     0.0000 
     28 C23       -13.0330   38.8710   29.0970 C.ar      1 K4F1402     0.0000 
     29 C24       -14.2160   38.0500   29.4010 C.ar      1 K4F1402     0.0000 
     30 C25       -15.2820   38.6130   30.0790 C.ar      1 K4F1402     0.0000 
     31 C26       -15.2180   39.9680   30.4770 C.ar      1 K4F1402     0.0000 
     32 C27       -14.0580   40.7520   30.1750 C.ar      1 K4F1402     0.0000 
     33 N3        -13.0130   40.1800   29.5020 N.ar      1 K4F1402     0.0000 
     34 H          -8.2878   46.2895   27.8302 H         1 K4F1402     0.0000 
     35 H          -8.3098   47.2280   30.0645 H         1 K4F1402     0.0000 
     36 H          -6.5309   46.7304   31.6411 H         1 K4F1402     0.0000 
     37 H          -4.6938   45.2583   30.9931 H         1 K4F1402     0.0000 
     38 H          -4.6531   44.3100   28.7235 H         1 K4F1402     0.0000 
     39 H          -7.3504   44.8407   26.2188 H         1 K4F1402     0.0000 
     40 H          -8.4459   43.4496   27.7244 H         1 K4F1402     0.0000 
     41 H         -10.0376   41.6346   28.0630 H         1 K4F1402     0.0000 
     42 H          -5.6924   40.7095   26.0659 H         1 K4F1402     0.0000 
     43 H          -7.2804   38.9117   26.4110 H         1 K4F1402     0.0000 
     44 H         -11.0114   40.2171   28.4435 H         1 K4F1402     0.0000 
     45 H         -11.2039   36.5456   27.5154 H         1 K4F1402     0.0000 
     46 H         -13.1590   35.1835   28.0259 H         1 K4F1402     0.0000 
     47 H         -15.0535   36.1319   29.2050 H         1 K4F1402     0.0000 
     48 H         -16.1169   38.0644   30.2974 H         1 K4F1402     0.0000 
     49 H         -15.9939   40.3951   30.9798 H         1 K4F1402     0.0000 
     50 H         -14.0388   41.7299   30.4727 H         1 K4F1402     0.0000 
     51 H          -4.2134   46.6626   27.0652 H         1 K4F1402     0.0000 
     52 H          -4.2081   47.2084   25.5525 H         1 K4F1402     0.0000 
     53 H          -5.5000   47.4326   26.4836 H         1 K4F1402     0.0000 
     54 H          -5.1713   45.9372   23.7624 H         1 K4F1402     0.0000 
     55 H          -5.9655   44.5551   23.9751 H         1 K4F1402     0.0000 
     56 H          -6.6994   45.9568   24.2631 H         1 K4F1402     0.0000 
@<TRIPOS>BOND
     1    2    1 ar   
     2    6    1 ar   
     3   34    1 1    
     4    3    2 ar   
     5   35    2 1    
     6    4    3 ar   
     7   36    3 1    
     8    5    4 ar   
     9   37    4 1    
    10    6    5 ar   
    11   38    5 1    
    12    7    6 1    
    13    8    7 1    
    14   14    7 1    
    15   39    7 1    
    16    9    8 1    
    17   10    8 1    
    18   11    8 1    
    19   51    9 1    
    20   52    9 1    
    21   53    9 1    
    22   54   10 1    
    23   55   10 1    
    24   56   10 1    
    25   12   11 1    
    26   13   12 2    
    27   14   12 am   
    28   15   14 1    
    29   16   15 ar   
    30   18   15 ar   
    31   17   16 ar   
    32   40   16 1    
    33   20   17 ar   
    34   41   17 1    
    35   19   18 ar   
    36   42   18 1    
    37   20   19 ar   
    38   43   19 1    
    39   21   20 1    
    40   22   21 2    
    41   23   21 am   
    42   24   23 1    
    43   44   23 1    
    44   25   24 ar   
    45   28   24 ar   
    46   26   25 ar   
    47   45   25 1    
    48   27   26 ar   
    49   46   26 1    
    50   29   27 ar   
    51   47   27 1    
    52   29   28 ar   
    53   33   28 ar   
    54   30   29 ar   
    55   31   30 ar   
    56   48   30 1    
    57   32   31 ar   
    58   49   31 1    
    59   33   32 ar   
    60   50   32 1    
@<TRIPOS>SUBSTRUCTURE
     1 K4F1402     1 GROUP   
@<TRIPOS>SET

