#    Name: 2zdu_446_1_INTS_M
#    Modification time : Tue Mar 25 10:36:44 2014

@<TRIPOS>MOLECULE
2zdu_446_1_INTS_M
   83     0     6     0     0
SMALL
NO_CHARGES


@<TRIPOS>ATOM
      1 CA         20.4065   -5.6000   86.2685 C.3       2 GLC5        0.0000 
      2 CA         19.7990   -7.7090   86.6060 C.3       6 GLL5        0.0000 
      3 CA         21.0140   -3.4910   85.9310 C.3       4 GLP5        0.0000 
      4 CA         18.2910   -6.7290   87.6855 C.3       2 GLC5        0.0000 
      5 CA         16.7830   -5.7490   88.7650 C.3       4 GLP5        0.0000 
      6 CA         19.5395   -6.8965   84.5605 C.3       2 GLC5        0.0000 
      7 CA         19.2800   -6.0840   82.5150 C.3       4 GLP5        0.0000 
      8 CA         21.8185   -5.6375   86.7080 C.3       2 GLC5        0.0000 
      9 CA         21.1820   -7.6670   87.0950 C.3       6 GLL5        0.0000 
     10 CA         22.4550   -3.6080   86.3210 C.3       4 GLP5        0.0000 
     11 CA         18.9540   -9.7315   83.0500 C.3       2 GLC5        0.0000 
     12 CA         18.4680  -10.9980   84.1550 C.3       6 GLL5        0.0000 
     13 CA         19.4400   -8.4650   81.9450 C.3       4 GLP5        0.0000 
     14 CA         25.9390   -9.2010   87.8375 C.3       2 GLC5        0.0000 
     15 CA         23.9120   -8.6460   87.4080 C.3       6 GLL5        0.0000 
     16 CA         27.9660   -9.7560   88.2670 C.3       4 GLP5        0.0000 
     17 CA         24.6935   -7.3045   88.5210 C.3       2 GLC5        0.0000 
     18 CA         25.4750   -5.9630   89.6340 C.3       4 GLP5        0.0000 
     19 CA         23.3465   -7.6535   85.6560 C.3       2 GLC5        0.0000 
     20 CA         22.7810   -6.6610   83.9040 C.3       4 GLP5        0.0000 
     21 CA         17.7830   -9.2665   83.0795 C.3       2 GLC5        0.0000 
     22 CA         16.1260  -10.0680   84.2140 C.3       6 GLL5        0.0000 
     23 CA         17.4190  -13.2275   80.8345 C.3       2 GLC5        0.0000 
     24 CA         17.3770  -14.1000   82.6880 C.3       6 GLL5        0.0000 
     25 CA         17.4610  -12.3550   78.9810 C.3       4 GLP5        0.0000 
     26 N          18.8105  -12.1150   80.8010 N.am      1 SEC2        0.0000 
     27 N          17.8220  -11.8040   81.9910 N.am      5 SEL2        0.0000 
     28 N          19.7990  -12.4260   79.6110 N.am      3 SEP2        0.0000 
     29 N          16.3935   -7.0740   86.0915 N.am      1 SEC2        0.0000 
     30 N          17.1510   -8.0430   85.5410 N.am      5 SEL2        0.0000 
     31 N          15.6360   -6.1050   86.6420 N.am      3 SEP2        0.0000 
     32 CA         19.6115  -13.6350   86.4265 C.3       2 GLC5        0.0000 
     33 CA         21.0220  -13.1720   84.9610 C.3       6 GLL5        0.0000 
     34 CA         18.2010  -14.0980   87.8920 C.3       4 GLP5        0.0000 
     35 CA         15.9230  -13.5580   86.1375 C.3       2 GLC5        0.0000 
     36 CA         14.9650  -12.3080   84.6600 C.3       6 GLL5        0.0000 
     37 CA         16.8810  -14.8080   87.6150 C.3       4 GLP5        0.0000 
     38 CA         13.8435  -14.6550   88.8700 C.3       2 GLC5        0.0000 
     39 CA         11.8120  -14.8610   89.0690 C.3       6 GLL5        0.0000 
     40 CA         15.8750  -14.4490   88.6710 C.3       4 GLP5        0.0000 
     41 CA         12.5625  -15.8310   91.8660 C.3       2 GLC5        0.0000 
     42 CA         11.3980  -14.8150   90.5490 C.3       6 GLL5        0.0000 
     43 CA         13.7270  -16.8470   93.1830 C.3       4 GLP5        0.0000 
     44 CA         19.6470   -8.9227   83.7810 C.3       2 GLC5        0.0000 
     45 CA         19.3920   -8.8440   85.7810 C.3       6 GLL5        0.0000 
     46 CA         21.1883   -7.4688   85.0487 C.3       2 GLC5        0.0000 
     47 CA         22.2465   -6.8035   88.2810 C.3       2 GLC5        0.0000 
     48 CA         22.8530   -5.3940   89.6360 C.3       4 GLP5        0.0000 
     49 CA         22.2105   -7.4370   85.4150 C.3       2 GLC5        0.0000 
     50 CA         21.8190  -10.1642   83.5955 C.3       2 GLC5        0.0000 
     51 CA         19.8500  -10.9830   84.5870 C.3       6 GLL5        0.0000 
     52 CA         23.3360   -8.8310   82.8420 C.3       4 GLP5        0.0000 
     53 CA         20.1382  -10.0639   82.7605 C.3       2 GLC5        0.0000 
     54 CA         21.3710  -11.8280   82.8030 C.3       6 GLL5        0.0000 
     55 CA         22.5892  -10.5853   82.7027 C.3       2 GLC5        0.0000 
     56 CA         21.8762  -10.9695   87.5738 C.3       2 GLC5        0.0000 
     57 CA         21.6990   -9.9030   85.9300 C.3       6 GLL5        0.0000 
     58 CA         21.8540  -12.6080   88.8040 C.3       4 GLP5        0.0000 
     59 CA         20.7786   -8.4793   88.5379 C.3       2 GLC5        0.0000 
     60 CA         22.0980   -8.7590   86.7570 C.3       6 GLL5        0.0000 
     61 CA         20.2630   -8.7350   90.2720 C.3       4 GLP5        0.0000 
     62 CA         22.1717   -9.3705   84.2668 C.3       2 GLC5        0.0000 
     63 CA         18.6658  -11.6550   86.2972 C.3       2 GLC5        0.0000 
     64 CA         20.3160   -9.9170   85.4530 C.3       6 GLL5        0.0000 
     65 CA         18.0560  -12.5860   88.0070 C.3       4 GLP5        0.0000 
     66 CA         16.5210  -11.6280   86.8688 C.3       2 GLC5        0.0000 
     67 CA         15.2750  -10.9530   85.1180 C.3       6 GLL5        0.0000 
     68 CA         22.9870  -16.0475   84.3398 C.3       2 GLC5        0.0000 
     69 CA         21.9640  -14.1910   84.4800 C.3       6 GLL5        0.0000 
     70 CA         23.6860  -17.9800   84.8600 C.3       4 GLP5        0.0000 
     71 CA         20.7660  -15.4072   85.0228 C.3       2 GLC5        0.0000 
     72 CA         20.0390  -17.1330   85.3250 C.3       4 GLP5        0.0000 
     73 CA         22.0710  -13.7812   86.5938 C.3       2 GLC5        0.0000 
     74 CA         22.6490  -13.8810   88.4670 C.3       4 GLP5        0.0000 
     75 CA         15.3193   -9.9030   87.9718 C.3       2 GLC5        0.0000 
     76 CA         14.6970  -10.3870   86.3430 C.3       6 GLL5        0.0000 
     77 CA         16.4150   -9.0110   89.2120 C.3       4 GLP5        0.0000 
     78 CA         13.7039   -9.3294   84.7823 C.3       2 GLC5        0.0000 
     79 CA         12.2090   -8.2100   84.0600 C.3       4 GLP5        0.0000 
     80 CA         14.8411  -13.4718   87.4146 C.3       2 GLC5        0.0000 
     81 CA         13.7500  -11.2030   87.1200 C.3       6 GLL5        0.0000 
     82 CA         14.5769  -10.7626   82.9270 C.3       2 GLC5        0.0000 
     83 CA         13.8210  -10.1160   81.1910 C.3       4 GLP5        0.0000 
@<TRIPOS>BOND
@<TRIPOS>SUBSTRUCTURE
     1 SEC2       26 GROUP        1 X    SEC  0     ROOT SEC X 2
     2 GLC5        1 GROUP        1 X    GLC  0     **** GLC X 6
     3 SEP2       28 GROUP        1 Y    SEP  0     ROOT SEP Y 9
     4 GLP5        3 GROUP        1 Y    GLP  0     **** GLP Y 13
     5 SEL2       27 GROUP        1 Z    SEL  0     ROOT SEL Z 16
     6 GLL5        2 GROUP        1 Z    GLL  0     **** GLL Z 20
@<TRIPOS>SET

