#    Name: 2zdu_446_1_ligand
#    Modification time : Tue Mar 25 10:36:44 2014

@<TRIPOS>MOLECULE
2zdu_446_1_ligand
   59    62     1     0     0
SMALL
NO_CHARGES


@<TRIPOS>ATOM
      1 C4         19.3920   -8.8440   85.7810 C.ar      1 446901      0.0000 
      2 C5         19.7990   -7.7090   86.6060 C.ar      1 446901      0.0000 
      3 C6         21.1820   -7.6670   87.0950 C.ar      1 446901      0.0000 
      4 C10        19.8500  -10.9830   84.5870 C.2       1 446901      0.0000 
      5 N12        17.5530   -9.9940   84.5790 N.am      1 446901      0.0000 
      6 C13        17.9600   -8.9370   85.2770 C.2       1 446901      0.0000 
      7 C15        20.7540  -12.0120   84.1110 C.ar      1 446901      0.0000 
      8 C17        18.0190  -12.0850   83.2010 C.2       1 446901      0.0000 
      9 C28        21.3710  -11.8280   82.8030 C.ar      1 446901      0.0000 
     10 C1         22.0980   -8.7590   86.7570 C.ar      1 446901      0.0000 
     11 C2         21.6990   -9.9030   85.9300 C.ar      1 446901      0.0000 
     12 C3         20.3160   -9.9170   85.4530 C.ar      1 446901      0.0000 
     13 C11        18.4680  -10.9980   84.1550 C.2       1 446901      0.0000 
     14 BR14       23.9120   -8.6460   87.4080 Br        1 446901      0.0000 
     15 C16        16.1260  -10.0680   84.2140 C.3       1 446901      0.0000 
     16 O18        17.8400  -13.2550   83.6170 O.3       1 446901      0.0000 
     17 C19        17.3770  -14.1000   82.6880 C.3       1 446901      0.0000 
     18 O23        17.8220  -11.8040   81.9910 O.2       1 446901      0.0000 
     19 O24        17.1510   -8.0430   85.5410 O.2       1 446901      0.0000 
     20 C25        15.2750  -10.9530   85.1180 C.ar      1 446901      0.0000 
     21 C29        22.3140  -12.8510   82.3240 C.ar      1 446901      0.0000 
     22 C30        22.6120  -14.0390   83.1590 C.ar      1 446901      0.0000 
     23 C31        21.9640  -14.1910   84.4800 C.ar      1 446901      0.0000 
     24 C32        21.0220  -13.1720   84.9610 C.ar      1 446901      0.0000 
     25 C38        14.6970  -10.3870   86.3430 C.ar      1 446901      0.0000 
     26 C39        13.7500  -11.2030   87.1200 C.ar      1 446901      0.0000 
     27 C40        13.4270  -12.5550   86.6430 C.ar      1 446901      0.0000 
     28 C41        14.0260  -13.1100   85.4350 C.ar      1 446901      0.0000 
     29 C42        14.9650  -12.3080   84.6600 C.ar      1 446901      0.0000 
     30 N47        12.4150  -13.3330   87.2680 N.am      1 446901      0.0000 
     31 C48        12.4760  -13.5800   88.5790 C.2       1 446901      0.0000 
     32 C49        11.8120  -14.8610   89.0690 C.3       1 446901      0.0000 
     33 C50        11.3980  -14.8150   90.5490 C.3       1 446901      0.0000 
     34 C53        10.6180  -16.0500   90.9960 C.2       1 446901      0.0000 
     35 O56        13.0210  -12.7830   89.3420 O.2       1 446901      0.0000 
     36 O57        10.6140  -17.0690   90.2540 O.co2     1 446901      0.0000 
     37 O58        10.0060  -16.0410   92.0680 O.co2     1 446901      0.0000 
     38 H          19.1607   -6.9856   86.8310 H         1 446901      0.0000 
     39 H          21.4948   -6.9002   87.6532 H         1 446901      0.0000 
     40 H          21.1642  -11.0347   82.2448 H         1 446901      0.0000 
     41 H          22.3278  -10.6200   85.7094 H         1 446901      0.0000 
     42 H          16.0195  -10.4395   83.1700 H         1 446901      0.0000 
     43 H          15.6805   -9.0478   84.2133 H         1 446901      0.0000 
     44 H          22.7578  -12.7488   81.4328 H         1 446901      0.0000 
     45 H          23.2476  -14.7329   82.8299 H         1 446901      0.0000 
     46 H          22.1711  -14.9922   85.0442 H         1 446901      0.0000 
     47 H          20.5786  -13.2706   85.8432 H         1 446901      0.0000 
     48 H          14.9388   -9.4726   86.6427 H         1 446901      0.0000 
     49 H          13.3385  -10.8465   87.9491 H         1 446901      0.0000 
     50 H          13.7929  -14.0401   85.1384 H         1 446901      0.0000 
     51 H          15.3878  -12.6721   83.8362 H         1 446901      0.0000 
     52 H          11.6481  -13.6901   86.6747 H         1 446901      0.0000 
     53 H          12.5024  -15.7055   88.9226 H         1 446901      0.0000 
     54 H          10.9179  -15.0613   88.4593 H         1 446901      0.0000 
     55 H          10.7834  -13.9203   90.7164 H         1 446901      0.0000 
     56 H          12.3014  -14.7164   91.1658 H         1 446901      0.0000 
     57 H          18.0042  -14.1802   81.9133 H         1 446901      0.0000 
     58 H          17.2461  -15.0207   83.0556 H         1 446901      0.0000 
     59 H          16.4953  -13.8025   82.3218 H         1 446901      0.0000 
@<TRIPOS>BOND
     1    2    1 ar   
     2    6    1 1    
     3   12    1 ar   
     4    3    2 ar   
     5   38    2 1    
     6   10    3 ar   
     7   39    3 1    
     8    7    4 1    
     9   12    4 1    
    10   13    4 2    
    11    6    5 am   
    12   13    5 1    
    13   15    5 1    
    14   19    6 2    
    15    9    7 ar   
    16   24    7 ar   
    17   13    8 1    
    18   16    8 1    
    19   18    8 2    
    20   21    9 ar   
    21   40    9 1    
    22   11   10 ar   
    23   14   10 1    
    24   12   11 ar   
    25   41   11 1    
    26   20   15 1    
    27   42   15 1    
    28   43   15 1    
    29   17   16 1    
    30   57   17 1    
    31   58   17 1    
    32   59   17 1    
    33   25   20 ar   
    34   29   20 ar   
    35   22   21 ar   
    36   44   21 1    
    37   23   22 ar   
    38   45   22 1    
    39   24   23 ar   
    40   46   23 1    
    41   47   24 1    
    42   26   25 ar   
    43   48   25 1    
    44   27   26 ar   
    45   49   26 1    
    46   28   27 ar   
    47   30   27 1    
    48   29   28 ar   
    49   50   28 1    
    50   51   29 1    
    51   31   30 am   
    52   52   30 1    
    53   32   31 1    
    54   35   31 2    
    55   33   32 1    
    56   53   32 1    
    57   54   32 1    
    58   34   33 1    
    59   55   33 1    
    60   56   33 1    
    61   36   34 ar   
    62   37   34 ar   
@<TRIPOS>SUBSTRUCTURE
     1 446901      1 GROUP   
@<TRIPOS>SET

