#    Name: 3tl1_JRO_2_INTS_M
#    Modification time : Mon Mar 24 20:17:21 2014

@<TRIPOS>MOLECULE
3tl1_JRO_2_INTS_M
   55     0     6     0     0
SMALL
NO_CHARGES


@<TRIPOS>ATOM
      1 CA         -7.5290  -15.4550   -3.4620 C.3       2 GLC5        0.0000 
      2 CA         -7.7380  -16.6970   -4.8340 C.3       6 GLL5        0.0000 
      3 CA         -7.3200  -14.2130   -2.0900 C.3       4 GLP5        0.0000 
      4 CA         -9.3165  -16.6425   -4.0550 C.3       2 GLC5        0.0000 
      5 CA        -10.8950  -16.5880   -3.2760 C.3       4 GLP5        0.0000 
      6 N          -6.4305  -15.9135   -9.1040 N.am      1 SEC2        0.0000 
      7 N          -6.6720  -17.3180   -9.3800 N.am      5 SEL2        0.0000 
      8 N          -6.1890  -14.5090   -8.8280 N.am      3 SEP2        0.0000 
      9 N          -4.7445  -26.1525   -6.9555 N.am      1 SEC2        0.0000 
     10 N          -4.5130  -25.3620   -8.0560 N.am      5 SEL2        0.0000 
     11 N          -4.9760  -26.9430   -5.8550 N.am      3 SEP2        0.0000 
     12 N          -5.7465  -22.3150  -12.1075 N.am      1 SEC2        0.0000 
     13 N          -5.0110  -21.7310  -11.0760 N.am      5 SEL2        0.0000 
     14 N          -6.4820  -22.8990  -13.1390 N.am      3 SEP2        0.0000 
     15 N          -5.1710  -25.3505   -5.9435 N.am      1 SEC2        0.0000 
     16 N          -5.3660  -23.7580   -6.0320 N.am      5 SEL2        0.0000 
     17 N          -5.0865  -24.7255   -4.9900 N.am      1 SEC2        0.0000 
     18 N          -4.8070  -25.6930   -3.9480 N.am      3 SEP2        0.0000 
     19 CA         -4.2255  -24.4605  -11.4735 C.3       2 GLC5        0.0000 
     20 CA         -4.7730  -23.5500   -9.6050 C.3       6 GLL5        0.0000 
     21 CA         -3.6780  -25.3710  -13.3420 C.3       4 GLP5        0.0000 
     22 CA         -6.2905  -19.3525   -3.9555 C.3       2 GLC5        0.0000 
     23 CA         -6.9130  -18.9420   -5.6690 C.3       6 GLL5        0.0000 
     24 CA         -5.6680  -19.7630   -2.2420 C.3       4 GLP5        0.0000 
     25 CA         -5.1515  -20.5660   -4.4950 C.3       2 GLC5        0.0000 
     26 CA         -6.1080  -21.0780   -6.4590 C.3       6 GLL5        0.0000 
     27 CA         -4.1950  -20.0540   -2.5310 C.3       4 GLP5        0.0000 
     28 CA         -5.4745  -16.9725   -6.4365 C.3       2 GLC5        0.0000 
     29 CA         -7.2660  -17.6230   -5.9380 C.3       6 GLL5        0.0000 
     30 CA         -3.6830  -16.3220   -6.9350 C.3       4 GLP5        0.0000 
     31 CA         -9.2785  -17.6425   -5.0210 C.3       2 GLC5        0.0000 
     32 CA        -11.2910  -17.6620   -4.1040 C.3       4 GLP5        0.0000 
     33 CA         -4.9625  -26.1170   -7.4760 C.3       2 GLC5        0.0000 
     34 CA         -4.8860  -24.0670   -8.3020 C.3       6 GLL5        0.0000 
     35 CA         -5.0390  -28.1670   -6.6500 C.3       4 GLP5        0.0000 
     36 CA         -7.4185  -21.2355  -10.0105 C.3       2 GLC5        0.0000 
     37 CA         -5.5710  -21.3860   -8.7870 C.3       6 GLL5        0.0000 
     38 CA         -9.2660  -21.0850  -11.2340 C.3       4 GLP5        0.0000 
     39 CA         -6.8475  -17.8605   -3.5990 C.3       2 GLC5        0.0000 
     40 CA         -6.1930  -18.5610   -1.8120 C.3       4 GLP5        0.0000 
     41 CA         -8.8985  -16.4140   -6.7120 C.3       2 GLC5        0.0000 
     42 CA        -10.2950  -15.6680   -8.0380 C.3       4 GLP5        0.0000 
     43 CA         -8.5418  -19.4443   -6.5777 C.3       2 GLC5        0.0000 
     44 CA         -9.9940  -20.6060   -7.3520 C.3       4 GLP5        0.0000 
     45 CA         -8.1433  -20.5115   -6.9703 C.3       2 GLC5        0.0000 
     46 CA         -6.4770  -19.7560   -6.7180 C.3       6 GLL5        0.0000 
     47 CA         -8.0705  -20.1247   -7.9415 C.3       2 GLC5        0.0000 
     48 CA         -6.3690  -19.2270   -8.0200 C.3       6 GLL5        0.0000 
     49 CA         -7.5485  -19.6348   -9.8350 C.3       2 GLC5        0.0000 
     50 CA         -8.9500  -19.6260  -11.1390 C.3       4 GLP5        0.0000 
     51 CA         -6.6284  -23.8896   -9.9579 C.3       2 GLC5        0.0000 
     52 CA         -5.1240  -22.2220   -9.8260 C.3       6 GLL5        0.0000 
     53 CA         -8.2800  -24.7640  -10.5260 C.3       4 GLP5        0.0000 
     54 CA         -4.8481  -18.7931   -6.6341 C.3       2 GLC5        0.0000 
     55 CA         -3.3110  -17.8660   -6.0950 C.3       4 GLP5        0.0000 
@<TRIPOS>BOND
@<TRIPOS>SUBSTRUCTURE
     1 SEC2        6 GROUP        1 X    SEC  0     ROOT SEC X 2
     2 GLC5        1 GROUP        1 X    GLC  0     **** GLC X 6
     3 SEP2        8 GROUP        1 Y    SEP  0     ROOT SEP Y 9
     4 GLP5        3 GROUP        1 Y    GLP  0     **** GLP Y 13
     5 SEL2        7 GROUP        1 Z    SEL  0     ROOT SEL Z 16
     6 GLL5        2 GROUP        1 Z    GLL  0     **** GLL Z 20
@<TRIPOS>SET

