#    Name: 3tl1_JRO_2_ligand
#    Modification time : Mon Mar 24 20:17:21 2014

@<TRIPOS>MOLECULE
3tl1_JRO_2_ligand
   29    31     1     0     0
SMALL
NO_CHARGES


@<TRIPOS>ATOM
      1 CAA        -7.7380  -16.6970   -4.8340 C.3       1 JRO160      0.0000 
      2 OAB        -6.6720  -17.3180   -9.3800 O.2       1 JRO160      0.0000 
      3 OAC        -4.5130  -25.3620   -8.0560 O.3       1 JRO160      0.0000 
      4 OAD        -5.0110  -21.7310  -11.0760 O.3       1 JRO160      0.0000 
      5 OAE        -5.3660  -23.7580   -6.0320 O.3       1 JRO160      0.0000 
      6 CAF        -4.7730  -23.5500   -9.6050 C.ar      1 JRO160      0.0000 
      7 CAG        -6.9130  -18.9420   -5.6690 C.2       1 JRO160      0.0000 
      8 CAH        -6.1080  -21.0780   -6.4590 C.ar      1 JRO160      0.0000 
      9 CAI        -5.9250  -20.0600   -9.0420 C.ar      1 JRO160      0.0000 
     10 OAJ        -7.1690  -17.1150   -7.2150 O.3       1 JRO160      0.0000 
     11 CAK        -7.2660  -17.6230   -5.9380 C.2       1 JRO160      0.0000 
     12 CAL        -4.8860  -24.0670   -8.3020 C.ar      1 JRO160      0.0000 
     13 CAM        -5.1240  -22.2220   -9.8260 C.ar      1 JRO160      0.0000 
     14 CAN        -5.3080  -23.2370   -7.2690 C.ar      1 JRO160      0.0000 
     15 CAO        -6.7490  -17.8850   -8.2660 C.2       1 JRO160      0.0000 
     16 CAP        -6.4770  -19.7560   -6.7180 C.ar      1 JRO160      0.0000 
     17 CAQ        -5.5710  -21.3860   -8.7870 C.ar      1 JRO160      0.0000 
     18 CAR        -5.6650  -21.8960   -7.4900 C.ar      1 JRO160      0.0000 
     19 CAS        -6.3690  -19.2270   -8.0200 C.ar      1 JRO160      0.0000 
     20 H          -4.4418  -24.1386  -10.3631 H         1 JRO160      0.0000 
     21 H          -6.9708  -19.3122   -4.7198 H         1 JRO160      0.0000 
     22 H          -6.1660  -21.4441   -5.4985 H         1 JRO160      0.0000 
     23 H          -5.8554  -19.6929  -10.0067 H         1 JRO160      0.0000 
     24 H          -7.0447  -16.5840   -4.1223 H         1 JRO160      0.0000 
     25 H          -7.9529  -15.7842   -5.1814 H         1 JRO160      0.0000 
     26 H          -8.5632  -17.0423   -4.3871 H         1 JRO160      0.0000 
     27 H          -4.0806  -25.6720   -8.9027 H         1 JRO160      0.0000 
     28 H          -5.2635  -20.7665  -10.9988 H         1 JRO160      0.0000 
     29 H          -6.0534  -23.2119   -5.5533 H         1 JRO160      0.0000 
@<TRIPOS>BOND
     1   11    1 1    
     2   24    1 1    
     3   25    1 1    
     4   26    1 1    
     5   15    2 2    
     6   12    3 1    
     7   27    3 1    
     8   13    4 1    
     9   28    4 1    
    10   14    5 1    
    11   29    5 1    
    12   12    6 ar   
    13   13    6 ar   
    14   20    6 1    
    15   11    7 2    
    16   16    7 1    
    17   21    7 1    
    18   16    8 ar   
    19   18    8 ar   
    20   22    8 1    
    21   17    9 ar   
    22   19    9 ar   
    23   23    9 1    
    24   11   10 1    
    25   15   10 1    
    26   14   12 ar   
    27   17   13 ar   
    28   18   14 ar   
    29   19   15 1    
    30   19   16 ar   
    31   18   17 ar   
@<TRIPOS>SUBSTRUCTURE
     1 JRO160      1 GROUP   
@<TRIPOS>SET

