#    Name: 2w06_FRV_1_INTS_M
#    Modification time : Tue Mar 25 03:26:00 2014

@<TRIPOS>MOLECULE
2w06_FRV_1_INTS_M
   70     0     9     0     0
SMALL
NO_CHARGES


@<TRIPOS>ATOM
      1 CA         -3.3790   28.9160    9.8300 C.3       3 GLC5        0.0000 
      2 CA         -2.6740   30.6740   10.7880 C.3       9 GLL5        0.0000 
      3 CA         -4.0840   27.1580    8.8720 C.3       6 GLP5        0.0000 
      4 CA         -3.6600   26.3135   12.3340 C.3       3 GLC5        0.0000 
      5 CA         -2.4390   27.9550   12.1840 C.3       9 GLL5        0.0000 
      6 CA         -4.8810   24.6720   12.4840 C.3       6 GLP5        0.0000 
      7 CA         -3.0920   29.8055    8.2940 C.3       3 GLC5        0.0000 
      8 CA         -3.3230   31.2010    9.5000 C.3       9 GLL5        0.0000 
      9 CA         -2.8610   28.4100    7.0880 C.3       6 GLP5        0.0000 
     10 CA         -5.2200   30.4760   10.1075 C.3       3 GLC5        0.0000 
     11 CA         -7.1170   29.7510   10.7150 C.3       6 GLP5        0.0000 
     12 CA          0.8035   27.6510    8.4545 C.3       3 GLC5        0.0000 
     13 CA          0.4340   28.7370   10.1680 C.3       9 GLL5        0.0000 
     14 CA          1.1730   26.5650    6.7410 C.3       6 GLP5        0.0000 
     15 CA          2.3140   29.8915   10.4970 C.3       3 GLC5        0.0000 
     16 CA          4.1940   31.0460   10.8260 C.3       6 GLP5        0.0000 
     17 CA          1.2700   34.2070    6.3565 C.3       3 GLC5        0.0000 
     18 CA          0.6460   33.1060    8.0000 C.3       9 GLL5        0.0000 
     19 CA          1.8940   35.3080    4.7130 C.3       6 GLP5        0.0000 
     20 CA          1.6000   33.0140    9.3925 C.3       3 GLC5        0.0000 
     21 CA          2.5540   32.9220   10.7850 C.3       6 GLP5        0.0000 
     22 CA          1.2285   30.0165    6.0785 C.3       3 GLC5        0.0000 
     23 CA          2.0660   31.3000    7.3620 C.3       9 GLL5        0.0000 
     24 CA          0.3910   28.7330    4.7950 C.3       6 GLP5        0.0000 
     25 CA          0.2735   31.8560    6.4235 C.3       3 GLC5        0.0000 
     26 CA         -1.5190   32.4120    5.4850 C.3       6 GLP5        0.0000 
     27 CA          2.3100   32.1110    9.0735 C.3       3 GLC5        0.0000 
     28 CA          2.8785   25.2165    7.2450 C.3       3 GLC5        0.0000 
     29 CA          4.5840   23.8680    7.7490 C.3       9 GLL5        0.0000 
     30 CA          5.1080   27.8145   10.1570 C.3       3 GLC5        0.0000 
     31 CA          4.3620   27.6270    8.3170 C.3       9 GLL5        0.0000 
     32 CA          5.8540   28.0020   11.9970 C.3       6 GLP5        0.0000 
     33 N           7.5255   27.5300    9.4270 N.am      2 SEC2        0.0000 
     34 N           7.5070   26.2770    8.5100 N.am      8 SEL2        0.0000 
     35 N           7.5440   28.7830   10.3440 N.am      5 SEP2        0.0000 
     36 O           5.3925   25.2275    9.9085 O.2       1 ALC1        0.0000 
     37 O           5.4520   24.6480    8.5960 O.2       7 ALL1        0.0000 
     38 O           5.3330   25.8070   11.2210 O.2       4 ALP1        0.0000 
     39 O           5.7430   23.9240   10.1185 O.2       1 ALC1        0.0000 
     40 O           6.0340   23.2000   11.6410 O.2       4 ALP1        0.0000 
     41 O           4.0490   31.5120    6.1285 O.2       1 ALC1        0.0000 
     42 O           3.0800   30.7470    6.6460 O.2       7 ALL1        0.0000 
     43 O           5.0180   32.2770    5.6110 O.2       4 ALP1        0.0000 
     44 N           2.7610   33.5705    6.6130 N.am      2 SEC2        0.0000 
     45 N           1.6730   32.5920    7.2770 N.am      8 SEL2        0.0000 
     46 N           3.8490   34.5490    5.9490 N.am      5 SEP2        0.0000 
     47 CA          6.4680   30.2315    5.6650 C.3       3 GLC5        0.0000 
     48 CA          4.8570   29.1990    6.0270 C.3       9 GLL5        0.0000 
     49 CA          7.6880   31.8370    5.1790 C.3       6 GLP5        0.0000 
     50 CA         -1.5570   32.3282   12.0960 C.3       3 GLC5        0.0000 
     51 CA         -0.3110   33.2470   13.4770 C.3       6 GLP5        0.0000 
     52 CA         -2.9992   27.7088   10.2990 C.3       3 GLC5        0.0000 
     53 CA         -1.3900   28.5640   11.2680 C.3       9 GLL5        0.0000 
     54 CA         -4.1717   33.0105    9.5670 C.3       3 GLC5        0.0000 
     55 CA         -5.2160   34.3480    9.0630 C.3       6 GLP5        0.0000 
     56 CA          0.0348   34.6367    9.2823 C.3       3 GLC5        0.0000 
     57 CA         -0.0590   32.2630    8.9010 C.3       9 GLL5        0.0000 
     58 CA         -0.2240   36.5890   10.1140 C.3       6 GLP5        0.0000 
     59 CA         -1.4127   29.4123    8.2705 C.3       3 GLC5        0.0000 
     60 CA          0.3340   30.9190    9.0050 C.3       9 GLL5        0.0000 
     61 CA          1.2456   31.8362   10.1060 C.3       3 GLC5        0.0000 
     62 CA         -0.2630   29.9100    9.9010 C.3       9 GLL5        0.0000 
     63 CA         -0.5636   32.3803    6.9808 C.3       3 GLC5        0.0000 
     64 CA          2.4388   27.8717    7.1140 C.3       3 GLC5        0.0000 
     65 CA          3.8290   29.5840    6.9050 C.3       9 GLL5        0.0000 
     66 CA          3.0272   27.0068    7.3027 C.3       3 GLC5        0.0000 
     67 CA          4.1136   29.7244    9.3640 C.3       3 GLC5        0.0000 
     68 CA          6.8653   28.8105    7.5107 C.3       3 GLC5        0.0000 
     69 CA          5.4010   27.2700    7.4120 C.3       9 GLL5        0.0000 
     70 CA          8.4060   29.6730    8.2400 C.3       6 GLP5        0.0000 
@<TRIPOS>BOND
@<TRIPOS>SUBSTRUCTURE
     1 ALC1       36 GROUP        1 X    ALC  0     ROOT ALC X 1
     2 SEC2       33 GROUP        1 X    SEC  0     **** SEC X 2
     3 GLC5        1 GROUP        1 X    GLC  0     **** GLC X 6
     4 ALP1       38 GROUP        1 Y    ALP  0     ROOT ALP Y 8
     5 SEP2       35 GROUP        1 Y    SEP  0     **** SEP Y 9
     6 GLP5        3 GROUP        1 Y    GLP  0     **** GLP Y 13
     7 ALL1       37 GROUP        1 Z    ALL  0     ROOT ALL Z 15
     8 SEL2       34 GROUP        1 Z    SEL  0     **** SEL Z 16
     9 GLL5        2 GROUP        1 Z    GLL  0     **** GLL Z 20
@<TRIPOS>SET

