#    Name: 2w06_FRV_1_ligand
#    Modification time : Tue Mar 25 03:26:00 2014

@<TRIPOS>MOLECULE
2w06_FRV_1_ligand
   48    51     1     0     0
SMALL
NO_CHARGES


@<TRIPOS>ATOM
      1 C13         4.8570   29.1990    6.0270 C.ar      1 FRV1300     0.0000 
      2 N21        -1.4650   29.7980   10.6100 N.pl3     1 FRV1300     0.0000 
      3 C25        -2.6740   30.6740   10.7880 C.3       1 FRV1300     0.0000 
      4 C22        -1.3900   28.5640   11.2680 C.2       1 FRV1300     0.0000 
      5 C28        -2.4390   27.9550   12.1840 C.3       1 FRV1300     0.0000 
      6 C26        -3.3230   31.2010    9.5000 C.3       1 FRV1300     0.0000 
      7 C6         -0.0590   32.2630    8.9010 C.ar      1 FRV1300     0.0000 
      8 C1          0.3340   30.9190    9.0050 C.ar      1 FRV1300     0.0000 
      9 C20        -0.2630   29.9100    9.9010 C.2       1 FRV1300     0.0000 
     10 C24         0.4340   28.7370   10.1680 C.2       1 FRV1300     0.0000 
     11 C5          0.6460   33.1060    8.0000 C.ar      1 FRV1300     0.0000 
     12 C8          3.8290   29.5840    6.9050 C.ar      1 FRV1300     0.0000 
     13 C3          2.0660   31.3000    7.3620 C.ar      1 FRV1300     0.0000 
     14 N2          1.3780   30.5030    8.2340 N.ar      1 FRV1300     0.0000 
     15 C16         4.5840   23.8680    7.7490 C.3       1 FRV1300     0.0000 
     16 C9          3.5800   28.7730    8.0690 C.ar      1 FRV1300     0.0000 
     17 C10         4.3620   27.6270    8.3170 C.ar      1 FRV1300     0.0000 
     18 C11         5.4010   27.2700    7.4120 C.ar      1 FRV1300     0.0000 
     19 O30         6.8320   25.3280    6.4470 O.2       1 FRV1300     0.0000 
     20 S14         6.3720   25.8750    7.7030 S.o2      1 FRV1300     0.0000 
     21 O29         7.5070   26.2770    8.5100 O.2       1 FRV1300     0.0000 
     22 N15         5.4520   24.6480    8.5960 N.pl3     1 FRV1300     0.0000 
     23 C12         5.6390   28.0530    6.2750 C.ar      1 FRV1300     0.0000 
     24 N7          3.0800   30.7470    6.6460 N.pl3     1 FRV1300     0.0000 
     25 N4          1.6730   32.5920    7.2770 N.ar      1 FRV1300     0.0000 
     26 N23        -0.2780   27.9560   10.9970 N.pl3     1 FRV1300     0.0000 
     27 C30        -2.9320   32.1450   10.6420 C.3       1 FRV1300     0.0000 
     28 H           5.0438   29.7647    5.1850 H         1 FRV1300     0.0000 
     29 H          -3.5387   30.3220   11.2839 H         1 FRV1300     0.0000 
     30 H          -4.2488   31.0444    9.5719 H         1 FRV1300     0.0000 
     31 H          -2.6444   31.2541    8.8493 H         1 FRV1300     0.0000 
     32 H          -0.8233   32.6293    9.4499 H         1 FRV1300     0.0000 
     33 H           1.3071   28.5363    9.7962 H         1 FRV1300     0.0000 
     34 H           0.3600   34.0858    7.9182 H         1 FRV1300     0.0000 
     35 H           2.8323   29.0403    8.7075 H         1 FRV1300     0.0000 
     36 H           4.1891   27.0520    9.1395 H         1 FRV1300     0.0000 
     37 H           5.6252   24.6414    9.4914 H         1 FRV1300     0.0000 
     38 H           6.3831   27.7948    5.6193 H         1 FRV1300     0.0000 
     39 H           3.3707   31.2729    5.7260 H         1 FRV1300     0.0000 
     40 H           0.0161   27.0847   11.3233 H         1 FRV1300     0.0000 
     41 H          -2.1215   32.5704   10.3922 H         1 FRV1300     0.0000 
     42 H          -3.7258   32.3607   11.1148 H         1 FRV1300     0.0000 
     43 H          -2.1527   27.0637   12.5356 H         1 FRV1300     0.0000 
     44 H          -2.6234   28.5370   12.9760 H         1 FRV1300     0.0000 
     45 H          -3.3098   27.8179   11.7119 H         1 FRV1300     0.0000 
     46 H           5.0955   23.3808    7.0412 H         1 FRV1300     0.0000 
     47 H           4.0766   23.1811    8.2693 H         1 FRV1300     0.0000 
     48 H           3.9092   24.4395    7.2821 H         1 FRV1300     0.0000 
@<TRIPOS>BOND
     1   12    1 ar   
     2   23    1 ar   
     3   28    1 1    
     4    3    2 1    
     5    4    2 1    
     6    9    2 1    
     7    6    3 1    
     8   27    3 1    
     9   29    3 1    
    10    5    4 1    
    11   26    4 2    
    12   43    5 1    
    13   44    5 1    
    14   45    5 1    
    15   27    6 1    
    16   30    6 1    
    17   31    6 1    
    18    8    7 ar   
    19   11    7 ar   
    20   32    7 1    
    21    9    8 1    
    22   14    8 ar   
    23   10    9 2    
    24   26   10 1    
    25   33   10 1    
    26   25   11 ar   
    27   34   11 1    
    28   16   12 ar   
    29   24   12 1    
    30   14   13 ar   
    31   24   13 1    
    32   25   13 ar   
    33   22   15 1    
    34   46   15 1    
    35   47   15 1    
    36   48   15 1    
    37   17   16 ar   
    38   35   16 1    
    39   18   17 ar   
    40   36   17 1    
    41   20   18 1    
    42   23   18 ar   
    43   20   19 2    
    44   21   20 2    
    45   22   20 1    
    46   37   22 1    
    47   38   23 1    
    48   39   24 1    
    49   40   26 1    
    50   41   27 1    
    51   42   27 1    
@<TRIPOS>SUBSTRUCTURE
     1 FRV1300     1 GROUP   
@<TRIPOS>SET

