#    Name: 2dji_FAD_1_INTS_M
#    Modification time : Mon Apr  7 17:22:49 2014

@<TRIPOS>MOLECULE
2dji_FAD_1_INTS_M
  127     0    12     0     0
SMALL
NO_CHARGES


@<TRIPOS>ATOM
      1 NZ         30.4435   20.8935   13.5875 N.4       3 LYC4        0.0000 
      2 NZ         29.9270   21.4340   12.4560 N.4      11 LYL4        0.0000 
      3 NZ         30.9600   20.3530   14.7190 N.4       7 LYP4        0.0000 
      4 N          30.4435   20.8935   13.5875 N.am      2 SEC2        0.0000 
      5 N          29.9270   21.4340   12.4560 N.am     10 SEL2        0.0000 
      6 N          30.9600   20.3530   14.7190 N.am      6 SEP2        0.0000 
      7 CA         29.7810   24.3830   12.5100 C.3       4 GLC5        0.0000 
      8 CA         29.0650   23.9240   10.9010 C.3      12 GLL5        0.0000 
      9 CA         30.4970   24.8420   14.1190 C.3       8 GLP5        0.0000 
     10 CA         27.9510   26.6100    9.7370 C.3       4 GLC5        0.0000 
     11 CA         28.8860   24.6830    9.6140 C.3      12 GLL5        0.0000 
     12 CA         27.0160   28.5370    9.8600 C.3       8 GLP5        0.0000 
     13 CA         27.9690   22.5940    8.3995 C.3       4 GLC5        0.0000 
     14 CA         29.5810   24.0570    8.4040 C.3      12 GLL5        0.0000 
     15 CA         26.3570   21.1310    8.3950 C.3       8 GLP5        0.0000 
     16 CA         29.0525   23.5435    6.2990 C.3       4 GLC5        0.0000 
     17 CA         28.5240   23.0300    4.1940 C.3       8 GLP5        0.0000 
     18 O          28.2270   25.1175    6.7775 O.2       1 ALC1        0.0000 
     19 O          28.6680   23.9360    7.3170 O.2       9 ALL1        0.0000 
     20 O          27.7860   26.2990    6.2380 O.2       5 ALP1        0.0000 
     21 O          30.4030   25.8465    5.9590 O.2       1 ALC1        0.0000 
     22 O          31.1490   25.0240    6.7670 O.2       9 ALL1        0.0000 
     23 O          29.6570   26.6690    5.1510 O.2       5 ALP1        0.0000 
     24 CA         30.1040   27.6495   10.3010 C.3       4 GLC5        0.0000 
     25 CA         30.2070   26.3340    8.6170 C.3      12 GLL5        0.0000 
     26 CA         30.0010   28.9650   11.9850 C.3       8 GLP5        0.0000 
     27 CA         28.6115   27.4355    9.2385 C.3       4 GLC5        0.0000 
     28 CA         32.7380   30.8330    7.4130 C.3       4 GLC5        0.0000 
     29 CA         32.4530   30.6210    9.1960 C.3      12 GLL5        0.0000 
     30 CA         33.0230   31.0450    5.6300 C.3       8 GLP5        0.0000 
     31 CA         32.4070   32.5225    8.0580 C.3       4 GLC5        0.0000 
     32 CA         32.3610   34.4240    6.9200 C.3       8 GLP5        0.0000 
     33 CA         30.7205   31.9160    9.6870 C.3       4 GLC5        0.0000 
     34 CA         28.9880   33.2110   10.1780 C.3       8 GLP5        0.0000 
     35 O          33.8075   32.7335    9.5455 O.2       1 ALC1        0.0000 
     36 O          33.4990   31.2980    9.6790 O.2       9 ALL1        0.0000 
     37 O          34.1160   34.1690    9.4120 O.2       5 ALP1        0.0000 
     38 N          31.0230   32.6815    8.5325 N.am      2 SEC2        0.0000 
     39 N          31.4760   31.3140    8.5460 N.am     10 SEL2        0.0000 
     40 N          30.5700   34.0490    8.5190 N.am      6 SEP2        0.0000 
     41 CA         30.2080   29.8000   10.0200 C.3       4 GLC5        0.0000 
     42 CA         30.4150   30.6350    8.0550 C.3      12 GLL5        0.0000 
     43 CA         28.7155   29.5860    8.9575 C.3       4 GLC5        0.0000 
     44 CA         29.3635   30.0335    6.5315 C.3       4 GLC5        0.0000 
     45 CA         28.3120   29.4320    5.0080 C.3       8 GLP5        0.0000 
     46 CA         31.7190   30.8400    6.8425 C.3       4 GLC5        0.0000 
     47 CA         31.3880   32.5295    7.4875 C.3       4 GLC5        0.0000 
     48 CA         29.7015   31.9230    9.1165 C.3       4 GLC5        0.0000 
     49 N          30.4335   29.2945    6.3940 N.am      2 SEC2        0.0000 
     50 N          30.1600   29.3180    8.1130 N.am     10 SEL2        0.0000 
     51 N          30.7070   29.2710    4.6750 N.am      6 SEP2        0.0000 
     52 CA         29.0825   28.5985    9.3120 C.3       4 GLC5        0.0000 
     53 CA         31.1490   28.6600    8.7640 C.3      12 GLL5        0.0000 
     54 N          22.7950   20.2175   18.3650 N.am      2 SEC2        0.0000 
     55 N          22.2350   18.6630   17.8320 N.am     10 SEL2        0.0000 
     56 N          23.3550   21.7720   18.8980 N.am      6 SEP2        0.0000 
     57 N          22.1545   21.1100   18.1205 N.am      2 SEC2        0.0000 
     58 N          20.9540   20.4480   17.3430 N.am     10 SEL2        0.0000 
     59 O          18.5860   19.1855   18.3715 O.2       1 ALC1        0.0000 
     60 O          19.9090   18.6990   18.3230 O.2       9 ALL1        0.0000 
     61 O          17.2630   19.6720   18.4200 O.2       5 ALP1        0.0000 
     62 N          18.5240   16.6800   20.5280 N.am      2 SEC2        0.0000 
     63 N          18.8650   16.9420   19.3350 N.am     10 SEL2        0.0000 
     64 N          18.1830   16.4180   21.7210 N.am      6 SEP2        0.0000 
     65 CA         21.8085   10.8705   21.4675 C.3       4 GLC5        0.0000 
     66 CA         23.8650   11.6650   21.0800 C.3      12 GLL5        0.0000 
     67 CA         19.7520   10.0760   21.8550 C.3       8 GLP5        0.0000 
     68 CA         24.8465   13.8960   21.9645 C.3       4 GLC5        0.0000 
     69 CA         24.9840   13.6120   19.8290 C.3      12 GLL5        0.0000 
     70 CA         24.7090   14.1800   24.1000 C.3       8 GLP5        0.0000 
     71 CA         27.7035   12.0295   21.0315 C.3       4 GLC5        0.0000 
     72 CA         26.3360   12.9560   19.9400 C.3      12 GLL5        0.0000 
     73 CA         29.0710   11.1030   22.1230 C.3       8 GLP5        0.0000 
     74 CA         26.9905   11.5195   19.1820 C.3       4 GLC5        0.0000 
     75 CA         27.6450   10.0830   18.4240 C.3       8 GLP5        0.0000 
     76 CA         24.3110   19.2800   18.9015 C.3       4 GLC5        0.0000 
     77 CA         24.6840   17.4730   17.7670 C.3      12 GLL5        0.0000 
     78 CA         23.9380   21.0870   20.0360 C.3       8 GLP5        0.0000 
     79 CA         26.7365   17.1445   17.7645 C.3       4 GLC5        0.0000 
     80 CA         28.7890   16.8160   17.7620 C.3       8 GLP5        0.0000 
     81 CA         23.7870   16.8385   14.4165 C.3       4 GLC5        0.0000 
     82 CA         24.3720   17.2540   16.2630 C.3      12 GLL5        0.0000 
     83 CA         23.2020   16.4230   12.5700 C.3       8 GLP5        0.0000 
     84 CA         22.4935   16.3560   15.9720 C.3       4 GLC5        0.0000 
     85 CA         20.6150   15.4580   15.6810 C.3       8 GLP5        0.0000 
     86 O          25.6410   15.2480   16.3145 O.2       1 ALC1        0.0000 
     87 O          24.4770   15.8920   15.9280 O.2       9 ALL1        0.0000 
     88 O          26.8050   14.6040   16.7010 O.2       5 ALP1        0.0000 
     89 CA         27.1140   19.0920   15.7550 C.3       4 GLC5        0.0000 
     90 CA         25.3160   18.0540   15.3440 C.3      12 GLL5        0.0000 
     91 CA         28.9120   20.1300   16.1660 C.3       8 GLP5        0.0000 
     92 CA         27.0525   17.4350   16.5530 C.3       4 GLC5        0.0000 
     93 CA         26.8085   19.9495   16.5505 C.3       4 GLC5        0.0000 
     94 CA         25.3130   19.5680   15.5350 C.3      12 GLL5        0.0000 
     95 CA         28.3040   20.3310   17.5660 C.3       8 GLP5        0.0000 
     96 CA         27.4340   20.1925   15.2490 C.3       4 GLC5        0.0000 
     97 CA         25.9560   20.2550   14.3320 C.3      12 GLL5        0.0000 
     98 N          25.4925   22.8185   15.6875 N.am      2 SEC2        0.0000 
     99 N          25.9920   21.6290   14.6930 N.am     10 SEL2        0.0000 
    100 N          24.9930   24.0080   16.6820 N.am      6 SEP2        0.0000 
    101 N          24.4340   23.5355   12.0865 N.am      2 SEC2        0.0000 
    102 N          25.4710   22.9260   12.6290 N.am     10 SEL2        0.0000 
    103 N          23.3970   24.1450   11.5440 N.am      6 SEP2        0.0000 
    104 N          25.3555   22.9050   11.1890 N.am      2 SEC2        0.0000 
    105 N          25.2400   22.8840    9.7490 N.am      6 SEP2        0.0000 
    106 N          27.3000   25.2360   14.6600 N.am      2 SEC2        0.0000 
    107 N          26.6330   24.0250   14.6440 N.am     10 SEL2        0.0000 
    108 N          27.9670   26.4470   14.6760 N.am      6 SEP2        0.0000 
    109 N          25.8130   24.0165   15.6630 N.am      2 SEC2        0.0000 
    110 CA         27.1217   24.7583   10.3213 C.3       4 GLC5        0.0000 
    111 CA         25.2680   25.2130   10.3850 C.3       8 GLP5        0.0000 
    112 CA         32.4620   28.7488    7.5020 C.3       4 GLC5        0.0000 
    113 CA         32.2990   29.2110    9.3220 C.3      12 GLL5        0.0000 
    114 CA         33.2000   28.5620    5.9610 C.3       8 GLP5        0.0000 
    115 CA         30.8818   29.1265   10.4982 C.3       4 GLC5        0.0000 
    116 CA         22.0099   14.4880   21.3854 C.3       4 GLC5        0.0000 
    117 CA         23.8140   12.9970   20.3750 C.3      12 GLL5        0.0000 
    118 CA         20.8400   15.3350   22.6190 C.3       8 GLP5        0.0000 
    119 CA         24.1223   13.3392   22.3974 C.3       4 GLC5        0.0000 
    120 CA         22.5980   13.6670   20.2440 C.3      12 GLL5        0.0000 
    121 CA         26.9815   14.6925   18.7516 C.3       4 GLC5        0.0000 
    122 CA         24.8920   14.8540   19.1740 C.3      12 GLL5        0.0000 
    123 CA         28.6870   15.3160   17.9740 C.3       8 GLP5        0.0000 
    124 CA         24.6653   21.6922   15.6633 C.3       4 GLC5        0.0000 
    125 CA         23.6960   23.4730   16.3930 C.3       8 GLP5        0.0000 
    126 CA         24.4306   18.7250   13.5854 C.3       4 GLC5        0.0000 
    127 CA         23.2260   17.9170   12.2850 C.3       8 GLP5        0.0000 
@<TRIPOS>BOND
@<TRIPOS>SUBSTRUCTURE
     1 ALC1       18 GROUP        1 X    ALC  0     ROOT ALC X 1
     2 SEC2        4 GROUP        1 X    SEC  0     **** SEC X 2
     3 LYC4        1 GROUP        1 X    LYC  0     **** LYC X 4
     4 GLC5        7 GROUP        1 X    GLC  0     **** GLC X 6
     5 ALP1       20 GROUP        1 Y    ALP  0     ROOT ALP Y 8
     6 SEP2        6 GROUP        1 Y    SEP  0     **** SEP Y 9
     7 LYP4        3 GROUP        1 Y    LYP  0     **** LYP Y 11
     8 GLP5        9 GROUP        1 Y    GLP  0     **** GLP Y 13
     9 ALL1       19 GROUP        1 Z    ALL  0     ROOT ALL Z 15
    10 SEL2        5 GROUP        1 Z    SEL  0     **** SEL Z 16
    11 LYL4        2 GROUP        1 Z    LYL  0     **** LYL Z 18
    12 GLL5        8 GROUP        1 Z    GLL  0     **** GLL Z 20
@<TRIPOS>SET

