#    Name: 2dji_FAD_1_ligand
#    Modification time : Mon Apr  7 17:22:49 2014

@<TRIPOS>MOLECULE
2dji_FAD_1_ligand
   84    89     1     0     0
SMALL
NO_CHARGES


@<TRIPOS>ATOM
      1 PA         28.5190   21.6400   12.0380 P.3       1 FAD1601     0.0000 
      2 O1A        29.9270   21.4340   12.4560 O.co2     1 FAD1601     0.0000 
      3 O2A        27.6860   20.4710   11.6570 O.co2     1 FAD1601     0.0000 
      4 O5B        28.4870   22.6230   10.7890 O.3       1 FAD1601     0.0000 
      5 C5B        29.0650   23.9240   10.9010 C.3       1 FAD1601     0.0000 
      6 C4B        28.8860   24.6830    9.6140 C.3       1 FAD1601     0.0000 
      7 O4B        29.4510   26.0110    9.7680 O.3       1 FAD1601     0.0000 
      8 C3B        29.5810   24.0570    8.4040 C.3       1 FAD1601     0.0000 
      9 O3B        28.6680   23.9360    7.3170 O.3       1 FAD1601     0.0000 
     10 C2B        30.7500   24.9990    8.1200 C.3       1 FAD1601     0.0000 
     11 O2B        31.1490   25.0240    6.7670 O.3       1 FAD1601     0.0000 
     12 C1B        30.2070   26.3340    8.6170 C.3       1 FAD1601     0.0000 
     13 N9A        31.2210   27.3120    9.0170 N.pl3     1 FAD1601     0.0000 
     14 C8A        32.4010   27.1210    9.7030 C.2       1 FAD1601     0.0000 
     15 N7A        33.0800   28.2250    9.9080 N.2       1 FAD1601     0.0000 
     16 C5A        32.2990   29.2110    9.3220 C.ar      1 FAD1601     0.0000 
     17 C6A        32.4530   30.6210    9.1960 C.ar      1 FAD1601     0.0000 
     18 N6A        33.4990   31.2980    9.6790 N.pl3     1 FAD1601     0.0000 
     19 N1A        31.4760   31.3140    8.5460 N.ar      1 FAD1601     0.0000 
     20 C2A        30.4150   30.6350    8.0550 C.ar      1 FAD1601     0.0000 
     21 N3A        30.1600   29.3180    8.1130 N.ar      1 FAD1601     0.0000 
     22 C4A        31.1490   28.6600    8.7640 C.ar      1 FAD1601     0.0000 
     23 N1         22.2350   18.6630   17.8320 N.2       1 FAD1601     0.0000 
     24 C2         21.0370   19.3300   17.8030 C.2       1 FAD1601     0.0000 
     25 O2         20.9540   20.4480   17.3430 O.2       1 FAD1601     0.0000 
     26 N3         19.9090   18.6990   18.3230 N.am      1 FAD1601     0.0000 
     27 C4         19.9170   17.4460   18.8860 C.2       1 FAD1601     0.0000 
     28 O4         18.8650   16.9420   19.3350 O.2       1 FAD1601     0.0000 
     29 C4X        21.1620   16.7800   18.9450 C.2       1 FAD1601     0.0000 
     30 N5         21.2700   15.5310   19.5320 N.2       1 FAD1601     0.0000 
     31 C5X        22.4930   14.9030   19.6130 C.ar      1 FAD1601     0.0000 
     32 C6         22.5980   13.6670   20.2440 C.ar      1 FAD1601     0.0000 
     33 C7         23.8140   12.9970   20.3750 C.ar      1 FAD1601     0.0000 
     34 C7M        23.8650   11.6650   21.0800 C.3       1 FAD1601     0.0000 
     35 C8         24.9840   13.6120   19.8290 C.ar      1 FAD1601     0.0000 
     36 C8M        26.3360   12.9560   19.9400 C.3       1 FAD1601     0.0000 
     37 C9         24.8920   14.8540   19.1740 C.ar      1 FAD1601     0.0000 
     38 C9A        23.6530   15.5250   19.0580 C.ar      1 FAD1601     0.0000 
     39 N10        23.5290   16.7840   18.4260 N.pl3     1 FAD1601     0.0000 
     40 C10        22.2970   17.4220   18.3920 C.2       1 FAD1601     0.0000 
     41 C1'        24.6840   17.4730   17.7670 C.3       1 FAD1601     0.0000 
     42 C2'        24.3720   17.2540   16.2630 C.3       1 FAD1601     0.0000 
     43 O2'        24.4770   15.8920   15.9280 O.3       1 FAD1601     0.0000 
     44 C3'        25.3160   18.0540   15.3440 C.3       1 FAD1601     0.0000 
     45 O3'        26.6790   17.6750   15.4950 O.3       1 FAD1601     0.0000 
     46 C4'        25.3130   19.5680   15.5350 C.3       1 FAD1601     0.0000 
     47 O4'        23.9630   20.0330   15.6690 O.3       1 FAD1601     0.0000 
     48 C5'        25.9560   20.2550   14.3320 C.3       1 FAD1601     0.0000 
     49 O5'        25.9920   21.6290   14.6930 O.3       1 FAD1601     0.0000 
     50 P          26.4130   22.8430   13.7650 P.3       1 FAD1601     0.0000 
     51 O1P        25.4710   22.9260   12.6290 O.co2     1 FAD1601     0.0000 
     52 O2P        26.6330   24.0250   14.6440 O.co2     1 FAD1601     0.0000 
     53 O3P        27.8550   22.5910   13.1550 O.3       1 FAD1601     0.0000 
     54 H          30.1413   23.8668   11.1207 H         1 FAD1601     0.0000 
     55 H          28.5961   24.5025   11.7106 H         1 FAD1601     0.0000 
     56 H          27.8312   24.7721    9.3881 H         1 FAD1601     0.0000 
     57 H          29.9852   23.1159    8.7249 H         1 FAD1601     0.0000 
     58 H          31.5448   24.7173    8.8026 H         1 FAD1601     0.0000 
     59 H          29.5594   26.7382    7.8589 H         1 FAD1601     0.0000 
     60 H          32.6847   26.2073   10.0036 H         1 FAD1601     0.0000 
     61 H          33.7180   32.1576    9.2174 H         1 FAD1601     0.0000 
     62 H          33.9689   30.8842   10.4588 H         1 FAD1601     0.0000 
     63 H          29.6584   31.2489    7.5373 H         1 FAD1601     0.0000 
     64 H          18.9902   19.2256   18.2776 H         1 FAD1601     0.0000 
     65 H          21.7363   13.2246   20.6336 H         1 FAD1601     0.0000 
     66 H          25.7366   15.2823   18.7729 H         1 FAD1601     0.0000 
     67 H          25.5935   16.9933   17.9992 H         1 FAD1601     0.0000 
     68 H          24.6734   18.5075   17.9696 H         1 FAD1601     0.0000 
     69 H          23.3602   17.6211   16.0826 H         1 FAD1601     0.0000 
     70 H          25.0129   17.8696   14.2975 H         1 FAD1601     0.0000 
     71 H          25.8931   19.8037   16.4091 H         1 FAD1601     0.0000 
     72 H          25.3373   20.0718   13.4720 H         1 FAD1601     0.0000 
     73 H          26.9383   19.8398   14.1953 H         1 FAD1601     0.0000 
     74 H          24.7935   11.2948   21.1078 H         1 FAD1601     0.0000 
     75 H          23.5482   11.7332   22.0261 H         1 FAD1601     0.0000 
     76 H          23.2909   10.9829   20.6271 H         1 FAD1601     0.0000 
     77 H          27.0528   13.5081   19.5141 H         1 FAD1601     0.0000 
     78 H          26.6028   12.8140   20.8932 H         1 FAD1601     0.0000 
     79 H          26.3521   12.0608   19.4947 H         1 FAD1601     0.0000 
     80 H          28.4406   24.8764    7.0643 H         1 FAD1601     0.0000 
     81 H          30.5062   25.6455    6.3192 H         1 FAD1601     0.0000 
     82 H          25.0544   15.4941   16.6409 H         1 FAD1601     0.0000 
     83 H          27.0832   17.7964   14.5884 H         1 FAD1601     0.0000 
     84 H          23.6323   19.6254   16.5202 H         1 FAD1601     0.0000 
@<TRIPOS>BOND
     1    2    1 ar   
     2    3    1 ar   
     3    4    1 1    
     4   53    1 1    
     5    5    4 1    
     6    6    5 1    
     7   54    5 1    
     8   55    5 1    
     9    7    6 1    
    10    8    6 1    
    11   56    6 1    
    12   12    7 1    
    13    9    8 1    
    14   10    8 1    
    15   57    8 1    
    16   80    9 1    
    17   11   10 1    
    18   12   10 1    
    19   58   10 1    
    20   81   11 1    
    21   13   12 1    
    22   59   12 1    
    23   14   13 1    
    24   22   13 1    
    25   15   14 2    
    26   60   14 1    
    27   16   15 1    
    28   17   16 ar   
    29   22   16 ar   
    30   18   17 1    
    31   19   17 ar   
    32   61   18 1    
    33   62   18 1    
    34   20   19 ar   
    35   21   20 ar   
    36   63   20 1    
    37   22   21 ar   
    38   24   23 1    
    39   40   23 2    
    40   25   24 2    
    41   26   24 am   
    42   27   26 am   
    43   64   26 1    
    44   28   27 2    
    45   29   27 1    
    46   30   29 2    
    47   40   29 1    
    48   31   30 1    
    49   32   31 ar   
    50   38   31 ar   
    51   33   32 ar   
    52   65   32 1    
    53   34   33 1    
    54   35   33 ar   
    55   74   34 1    
    56   75   34 1    
    57   76   34 1    
    58   36   35 1    
    59   37   35 ar   
    60   77   36 1    
    61   78   36 1    
    62   79   36 1    
    63   38   37 ar   
    64   66   37 1    
    65   39   38 1    
    66   40   39 1    
    67   41   39 1    
    68   42   41 1    
    69   67   41 1    
    70   68   41 1    
    71   43   42 1    
    72   44   42 1    
    73   69   42 1    
    74   82   43 1    
    75   45   44 1    
    76   46   44 1    
    77   70   44 1    
    78   83   45 1    
    79   47   46 1    
    80   48   46 1    
    81   71   46 1    
    82   84   47 1    
    83   49   48 1    
    84   72   48 1    
    85   73   48 1    
    86   50   49 1    
    87   51   50 ar   
    88   52   50 ar   
    89   53   50 1    
@<TRIPOS>SUBSTRUCTURE
     1 FAD1601     1 GROUP   
@<TRIPOS>SET

