#    Name: 4gk2_L66_1_INTS_M
#    Modification time : Mon Mar 24 22:17:54 2014

@<TRIPOS>MOLECULE
4gk2_L66_1_INTS_M
   66     0     9     0     0
SMALL
NO_CHARGES


@<TRIPOS>ATOM
      1 O          -0.6325  -15.4940  -10.5935 O.2       1 ALC1        0.0000 
      2 O           0.3040  -15.0810  -11.5650 O.2       7 ALL1        0.0000 
      3 O          -1.5690  -15.9070   -9.6220 O.2       4 ALP1        0.0000 
      4 N           0.0410  -13.2555   -9.2855 N.am      2 SEC2        0.0000 
      5 N           0.6910  -12.9940  -10.5240 N.am      8 SEL2        0.0000 
      6 N          -0.6090  -13.5170   -8.0470 N.am      5 SEP2        0.0000 
      7 CA          1.7310  -17.2730  -14.5135 C.3       3 GLC5        0.0000 
      8 CA          0.2360  -16.1890  -15.1070 C.3       9 GLL5        0.0000 
      9 CA          3.2260  -18.3570  -13.9200 C.3       6 GLP5        0.0000 
     10 CA         -1.5690  -16.4100  -14.1515 C.3       3 GLC5        0.0000 
     11 CA         -3.3740  -16.6310  -13.1960 C.3       6 GLP5        0.0000 
     12 CA          2.2320  -12.5045  -11.8140 C.3       3 GLC5        0.0000 
     13 CA          0.7640  -13.2230  -12.9160 C.3       9 GLL5        0.0000 
     14 CA          3.7000  -11.7860  -10.7120 C.3       6 GLP5        0.0000 
     15 CA          2.5065  -11.1900  -11.8185 C.3       3 GLC5        0.0000 
     16 CA          1.3130  -10.5940  -12.9250 C.3       9 GLL5        0.0000 
     17 CA          3.8515  -10.3205  -11.9380 C.3       3 GLC5        0.0000 
     18 CA          4.0030   -8.8550  -13.1640 C.3       9 GLL5        0.0000 
     19 CA          5.9365   -9.6205  -12.5565 C.3       3 GLC5        0.0000 
     20 CA          7.8700  -10.3860  -11.9490 C.3       6 GLP5        0.0000 
     21 CA          4.9400   -8.5705  -15.0140 C.3       3 GLC5        0.0000 
     22 CA          5.8770   -8.2860  -16.8640 C.3       6 GLP5        0.0000 
     23 CA          4.6670   -5.2950  -13.6130 C.3       3 GLC5        0.0000 
     24 CA          3.2870   -6.6790  -14.1600 C.3       9 GLL5        0.0000 
     25 CA          6.0470   -3.9110  -13.0660 C.3       6 GLP5        0.0000 
     26 CA         -0.2860   -5.5710  -16.7860 C.3       3 GLC5        0.0000 
     27 CA          1.2370   -6.4360  -15.4180 C.3       9 GLL5        0.0000 
     28 CA         -1.8090   -4.7060  -18.1540 C.3       6 GLP5        0.0000 
     29 N          -0.9335   -5.3385  -16.4595 N.am      2 SEC2        0.0000 
     30 N           0.3770   -5.6470  -16.1180 N.am      8 SEL2        0.0000 
     31 N          -2.2440   -5.0300  -16.8010 N.am      5 SEP2        0.0000 
     32 O           0.6965   -4.5075  -16.6430 O.2       1 ALC1        0.0000 
     33 O           0.3770   -5.6470  -16.1180 O.2       7 ALL1        0.0000 
     34 O           1.0160   -3.3680  -17.1680 O.2       4 ALP1        0.0000 
     35 CA          3.9005  -10.7940  -20.3820 C.3       3 GLC5        0.0000 
     36 CA          2.5570  -10.2830  -18.7750 C.3       9 GLL5        0.0000 
     37 CA          5.2440  -11.3050  -21.9890 C.3       6 GLP5        0.0000 
     38 CA         -3.9965   -9.5590  -17.8920 C.3       3 GLC5        0.0000 
     39 CA         -2.1870  -10.1360  -17.1260 C.3       9 GLL5        0.0000 
     40 CA         -5.8060   -8.9820  -18.6580 C.3       6 GLP5        0.0000 
     41 CA         -2.5020  -11.2180  -15.6535 C.3       3 GLC5        0.0000 
     42 CA         -2.8170  -12.3000  -14.1810 C.3       6 GLP5        0.0000 
     43 CA         -2.5815   -8.4220  -15.8820 C.3       3 GLC5        0.0000 
     44 CA         -2.9760   -6.7080  -14.6380 C.3       6 GLP5        0.0000 
     45 CA         -1.0577  -12.9705  -13.8265 C.3       3 GLC5        0.0000 
     46 CA         -0.3600  -10.2350  -13.3427 C.3       3 GLC5        0.0000 
     47 CA         -2.1260  -10.1640  -13.0550 C.3       6 GLP5        0.0000 
     48 CA         -0.3672   -9.1707  -13.9540 C.3       3 GLC5        0.0000 
     49 CA          0.9510   -7.7810  -15.2210 C.3       9 GLL5        0.0000 
     50 CA          3.2953   -7.2323  -12.1330 C.3       3 GLC5        0.0000 
     51 CA          3.0120   -8.0280  -13.9560 C.3       9 GLL5        0.0000 
     52 CA          3.0830   -6.0230  -10.7060 C.3       6 GLP5        0.0000 
     53 CA          2.9615   -6.1542  -12.6133 C.3       3 GLC5        0.0000 
     54 CA          2.3930   -5.8920  -14.8810 C.3       9 GLL5        0.0000 
     55 CA          3.9201   -6.8449  -15.9008 C.3       3 GLC5        0.0000 
     56 CA          5.0690   -7.0670  -17.3320 C.3       6 GLP5        0.0000 
     57 CA         -0.9410   -6.9083  -14.9787 C.3       3 GLC5        0.0000 
     58 CA          2.5521   -7.3914  -16.6013 C.3       3 GLC5        0.0000 
     59 CA          3.7900   -7.4760  -18.0670 C.3       6 GLP5        0.0000 
     60 CA          1.9928   -4.4809  -14.2586 C.3       3 GLC5        0.0000 
     61 CA          1.9470   -2.6010  -13.5480 C.3       6 GLP5        0.0000 
     62 CA          2.9055   -9.0300  -17.5438 C.3       3 GLC5        0.0000 
     63 CA          2.5980  -10.4820  -17.3960 C.3       9 GLL5        0.0000 
     64 CA          3.8650  -11.3422  -17.8504 C.3       3 GLC5        0.0000 
     65 CA          5.4410  -12.2510  -17.8030 C.3       6 GLP5        0.0000 
     66 CA          2.8735   -8.8753  -18.5972 C.3       3 GLC5        0.0000 
@<TRIPOS>BOND
@<TRIPOS>SUBSTRUCTURE
     1 ALC1        1 GROUP        1 X    ALC  0     ROOT ALC X 1
     2 SEC2        4 GROUP        1 X    SEC  0     **** SEC X 2
     3 GLC5        7 GROUP        1 X    GLC  0     **** GLC X 6
     4 ALP1        3 GROUP        1 Y    ALP  0     ROOT ALP Y 8
     5 SEP2        6 GROUP        1 Y    SEP  0     **** SEP Y 9
     6 GLP5        9 GROUP        1 Y    GLP  0     **** GLP Y 13
     7 ALL1        2 GROUP        1 Z    ALL  0     ROOT ALL Z 15
     8 SEL2        5 GROUP        1 Z    SEL  0     **** SEL Z 16
     9 GLL5        8 GROUP        1 Z    GLL  0     **** GLL Z 20
@<TRIPOS>SET

