#    Name: 4gk2_L66_1_ligand
#    Modification time : Mon Mar 24 22:17:54 2014

@<TRIPOS>MOLECULE
4gk2_L66_1_ligand
   50    54     1     0     0
SMALL
NO_CHARGES


@<TRIPOS>ATOM
      1 O2         -0.0950  -17.1840  -12.5760 O.2       1 L661001     0.0000 
      2 C17         0.1930  -15.8560  -12.6760 C.2       1 L661001     0.0000 
      3 N4          0.3040  -15.0810  -11.5650 N.am      1 L661001     0.0000 
      4 C16         0.5830  -13.7580  -11.6440 C.2       1 L661001     0.0000 
      5 O3          0.6910  -12.9940  -10.5240 O.2       1 L661001     0.0000 
      6 N5          0.3620  -15.3520  -13.9070 N.am      1 L661001     0.0000 
      7 C18         0.2360  -16.1890  -15.1070 C.3       1 L661001     0.0000 
      8 C2          0.6390  -14.0590  -14.0280 C.2       1 L661001     0.0000 
      9 C3          0.7640  -13.2230  -12.9160 C.2       1 L661001     0.0000 
     10 N1          0.8420  -13.3740  -15.1970 N.2       1 L661001     0.0000 
     11 C1          1.0740  -12.0860  -14.7280 C.2       1 L661001     0.0000 
     12 N2          1.0630  -11.9590  -13.3810 N.pl3     1 L661001     0.0000 
     13 C4          1.3130  -10.5940  -12.9250 C.2       1 L661001     0.0000 
     14 N3          1.3970  -10.8950  -15.3300 N.pl3     1 L661001     0.0000 
     15 C5          1.4990  -10.0180  -14.3360 C.2       1 L661001     0.0000 
     16 C10         1.8320   -8.5740  -14.4850 C.ar      1 L661001     0.0000 
     17 C11         3.0120   -8.0280  -13.9560 C.ar      1 L661001     0.0000 
     18 C40         4.0030   -8.8550  -13.1640 C.3       1 L661001     0.0000 
     19 C12         3.2870   -6.6790  -14.1600 C.ar      1 L661001     0.0000 
     20 C13         2.3930   -5.8920  -14.8810 C.ar      1 L661001     0.0000 
     21 C15         0.9510   -7.7810  -15.2210 C.ar      1 L661001     0.0000 
     22 C14         1.2370   -6.4360  -15.4180 C.ar      1 L661001     0.0000 
     23 O41         0.3770   -5.6470  -16.1180 O.3       1 L661001     0.0000 
     24 C32         1.4440  -10.6860  -16.6450 C.ar      1 L661001     0.0000 
     25 C33         2.5980  -10.4820  -17.3960 C.ar      1 L661001     0.0000 
     26 C34         2.5570  -10.2830  -18.7750 C.ar      1 L661001     0.0000 
     27 C35         1.3570  -10.2660  -19.4800 C.ar      1 L661001     0.0000 
     28 C36         0.1650  -10.4610  -18.8060 C.ar      1 L661001     0.0000 
     29 C37         0.1770  -10.6600  -17.4300 C.ar      1 L661001     0.0000 
     30 O38        -1.0120  -10.8640  -16.7710 O.3       1 L661001     0.0000 
     31 C39        -2.1870  -10.1360  -17.1260 C.3       1 L661001     0.0000 
     32 H           0.1693  -15.5221  -10.6200 H         1 L661001     0.0000 
     33 H           1.3513  -10.2201  -12.1997 H         1 L661001     0.0000 
     34 H           4.1461   -6.2654  -13.7802 H         1 L661001     0.0000 
     35 H           2.5973   -4.8859  -15.0164 H         1 L661001     0.0000 
     36 H           0.0972   -8.1917  -15.6135 H         1 L661001     0.0000 
     37 H           3.5213  -10.4778  -16.9134 H         1 L661001     0.0000 
     38 H           3.4497  -10.1432  -19.2915 H         1 L661001     0.0000 
     39 H           1.3607  -10.1093  -20.4947 H         1 L661001     0.0000 
     40 H          -0.7264  -10.4594  -19.3166 H         1 L661001     0.0000 
     41 H           0.3879  -15.6634  -15.9441 H         1 L661001     0.0000 
     42 H           0.8974  -16.9390  -15.1078 H         1 L661001     0.0000 
     43 H          -0.6729  -16.5996  -15.1796 H         1 L661001     0.0000 
     44 H           4.3648   -9.6165  -13.7018 H         1 L661001     0.0000 
     45 H           4.7859   -8.3098  -12.8642 H         1 L661001     0.0000 
     46 H           3.5874   -9.2471  -12.3433 H         1 L661001     0.0000 
     47 H          -2.0581   -9.1497  -17.0230 H         1 L661001     0.0000 
     48 H          -2.4521  -10.2993  -18.0763 H         1 L661001     0.0000 
     49 H          -2.9681  -10.3906  -16.5559 H         1 L661001     0.0000 
     50 H           0.9113   -4.8392  -16.3668 H         1 L661001     0.0000 
@<TRIPOS>BOND
     1    2    1 2    
     2    3    2 1    
     3    6    2 1    
     4    4    3 1    
     5   32    3 1    
     6    5    4 2    
     7    9    4 1    
     8    7    6 1    
     9    8    6 1    
    10   41    7 1    
    11   42    7 1    
    12   43    7 1    
    13    9    8 2    
    14   10    8 1    
    15   12    9 1    
    16   11   10 2    
    17   12   11 1    
    18   14   11 1    
    19   13   12 1    
    20   15   13 2    
    21   33   13 1    
    22   15   14 1    
    23   24   14 1    
    24   16   15 1    
    25   17   16 ar   
    26   21   16 ar   
    27   18   17 1    
    28   19   17 ar   
    29   44   18 1    
    30   45   18 1    
    31   46   18 1    
    32   20   19 ar   
    33   34   19 1    
    34   22   20 ar   
    35   35   20 1    
    36   22   21 ar   
    37   36   21 1    
    38   23   22 1    
    39   50   23 1    
    40   25   24 ar   
    41   29   24 ar   
    42   26   25 ar   
    43   37   25 1    
    44   27   26 ar   
    45   38   26 1    
    46   28   27 ar   
    47   39   27 1    
    48   29   28 ar   
    49   40   28 1    
    50   30   29 1    
    51   31   30 1    
    52   47   31 1    
    53   48   31 1    
    54   49   31 1    
@<TRIPOS>SUBSTRUCTURE
     1 L661001     1 GROUP   
@<TRIPOS>SET

