#    Name: 1FMO_1_CAVITY_N1_6.mol2
#    Modification time : Mon Mar 10 23:23:35 2014

@<TRIPOS>MOLECULE
1FMO_1_CAVITY_N1_6.mol2
   55     0     7     0     0
SMALL
NO_CHARGES


@<TRIPOS>ATOM
      1 CA          5.5373   11.8578    5.0765 C.3       6 GLY6        0.0000 
      2 CA          5.2772   10.9172    6.2156 C.3       6 GLY6        0.0000 
      3 CA          4.0939   11.7733    4.6771 C.3       6 GLY6        0.0000 
      4 CA          8.7386   10.8613    4.9847 C.3       6 GLY6        0.0000 
      5 CA          7.2952   10.7768    4.5854 C.3       6 GLY6        0.0000 
      6 CZ          7.0351    9.8363    5.7245 C.ar      5 PHE5        0.0000 
      7 CA          6.1119   11.6329    3.0469 C.3       6 GLY6        0.0000 
      8 CA          5.8518   10.6923    4.1860 C.3       6 GLY6        0.0000 
      9 CZ          5.5917    9.7518    5.3252 C.ar      5 PHE5        0.0000 
     10 CA          4.4084   10.6079    3.7867 C.3       6 GLY6        0.0000 
     11 CA          4.1483    9.6673    4.9259 C.3       6 GLY6        0.0000 
     12 CA         10.7567   10.7210    3.3545 C.3       6 GLY6        0.0000 
     13 O          10.4966    9.7804    4.4936 O.2       2 ALA2        0.0000 
     14 CA          9.3133   10.6365    2.9551 C.3       6 GLY6        0.0000 
     15 DU          9.0532    9.6959    4.0943 H         7 CUB7        0.0000 
     16 NZ          8.7931    8.7553    5.2334 N.2       4 LYS4        0.0000 
     17 CA          7.8699   10.5520    2.5558 C.3       6 GLY6        0.0000 
     18 CA          7.6098    9.6114    3.6949 C.3       6 GLY6        0.0000 
     19 CA          7.3497    8.6708    4.8341 C.3       6 GLY6        0.0000 
     20 OG          6.4265   10.4675    2.1565 O.2       1 SER1        0.0000 
     21 CA          6.1664    9.5269    3.2956 C.3       6 GLY6        0.0000 
     22 CA          4.9831   10.3830    1.7571 C.3       6 GLY6        0.0000 
     23 CA          4.7230    9.4425    2.8963 C.3       6 GLY6        0.0000 
     24 N          12.7748   10.5806    1.7242 N.2       2 ALA2        0.0000 
     25 CA         11.5915   11.4367    0.1857 C.3       6 GLY6        0.0000 
     26 CA         11.3314   10.4961    1.3249 C.3       6 GLY6        0.0000 
     27 N          11.0713    9.5556    2.4640 N.2       2 ALA2        0.0000 
     28 O          10.8111    8.6150    3.6032 O.2       2 ALA2        0.0000 
     29 NZ         10.5510    7.6744    4.7423 N.2       4 LYS4        0.0000 
     30 CA         10.1481   11.3522   -0.2136 C.3       6 GLY6        0.0000 
     31 CA          9.8880   10.4116    0.9256 C.3       6 GLY6        0.0000 
     32 CA          9.6279    9.4711    2.0647 C.3       6 GLY6        0.0000 
     33 CA          9.3678    8.5305    3.2039 C.3       6 GLY6        0.0000 
     34 N           9.1076    7.5899    4.3430 N.2       2 ALA2        0.0000 
     35 CA          8.7047   11.2677   -0.6129 C.3       6 GLY6        0.0000 
     36 OG          8.4446   10.3272    0.5262 O.2       1 SER1        0.0000 
     37 OG          8.1845    9.3866    1.6654 O.2       1 SER1        0.0000 
     38 CA          7.9244    8.4460    2.8045 C.3       6 GLY6        0.0000 
     39 N          15.4559    7.7030    3.9108 N.2       2 ALA2        0.0000 
     40 N          14.2726    8.5591    2.3723 N.2       2 ALA2        0.0000 
     41 O          14.0125    7.6185    3.5114 O.2       2 ALA2        0.0000 
     42 NZ         13.0893    9.4152    0.8338 N.2       4 LYS4        0.0000 
     43 N          12.8292    8.4746    1.9729 N.2       2 ALA2        0.0000 
     44 O          12.5691    7.5341    3.1121 O.2       2 ALA2        0.0000 
     45 NZ         11.6459    9.3307    0.4345 N.2       4 LYS4        0.0000 
     46 N          11.3858    8.3901    1.5736 N.2       2 ALA2        0.0000 
     47 N          11.1257    7.4496    2.7128 N.2       2 ALA2        0.0000 
     48 OD1        10.4626   10.1868   -1.1040 O.3       3 ASP3        0.0000 
     49 CA         10.2025    9.2462    0.0351 C.3       6 GLY6        0.0000 
     50 CA          9.9424    8.3057    1.1743 C.3       6 GLY6        0.0000 
     51 CA          9.6823    7.3651    2.3134 C.3       6 GLY6        0.0000 
     52 OD1        16.0306    7.4782    1.8812 O.3       3 ASP3        0.0000 
     53 N          14.5872    7.3937    1.4819 N.2       2 ALA2        0.0000 
     54 CA         14.3271    6.4531    2.6210 C.3       6 GLY6        0.0000 
     55 N          13.1438    7.3092    1.0825 N.2       2 ALA2        0.0000 
@<TRIPOS>BOND
@<TRIPOS>SUBSTRUCTURE
     1 SER1       20 GROUP   
     2 ALA2       13 GROUP   
     3 ASP3       48 GROUP   
     4 LYS4       16 GROUP   
     5 PHE5        6 GROUP   
     6 GLY6        1 GROUP   
     7 CUB7       15 GROUP   
@<TRIPOS>SET

