#    Name: 1fmo_ADN_1_INTS_M
#    Modification time : Tue Mar 25 01:32:37 2014

@<TRIPOS>MOLECULE
1fmo_ADN_1_INTS_M
   56     0     9     0     0
SMALL
NO_CHARGES


@<TRIPOS>ATOM
      1 CA         11.1030   11.0715    5.2285 C.3       3 GLC5        0.0000 
      2 CA         10.6880    9.6800    3.5230 C.3       9 GLL5        0.0000 
      3 CA         11.5180   12.4630    6.9340 C.3       6 GLP5        0.0000 
      4 CA          8.8840    7.3610    2.3525 C.3       3 GLC5        0.0000 
      5 CA          9.9730    8.3740    3.9030 C.3       9 GLL5        0.0000 
      6 CA          7.7950    6.3480    0.8020 C.3       6 GLP5        0.0000 
      7 N          11.9715    7.7760    5.0605 N.am      2 SEC2        0.0000 
      8 N          10.8790    7.3610    4.3040 N.am      8 SEL2        0.0000 
      9 N          13.0640    8.1910    5.8170 N.am      5 SEP2        0.0000 
     10 O          10.8245    6.1035    4.2845 O.2       1 ALC1        0.0000 
     11 O          10.8790    7.3610    4.3040 O.2       7 ALL1        0.0000 
     12 O          10.7700    4.8460    4.2650 O.2       4 ALP1        0.0000 
     13 CA          9.2305    7.3390    6.3675 C.3       3 GLC5        0.0000 
     14 CA          9.1150    8.8200    5.0590 C.3       9 GLL5        0.0000 
     15 CA          9.3460    5.8580    7.6760 C.3       6 GLP5        0.0000 
     16 CA          7.7210    7.3345    5.0300 C.3       3 GLC5        0.0000 
     17 CA          6.3270    5.8490    5.0010 C.3       6 GLP5        0.0000 
     18 CA          7.6650    8.8915    6.7540 C.3       3 GLC5        0.0000 
     19 CA          6.2150    8.9630    8.4490 C.3       6 GLP5        0.0000 
     20 N          10.3885    9.4435    7.4760 N.am      2 SEC2        0.0000 
     21 N           9.8870    9.0340    6.2320 N.am      8 SEL2        0.0000 
     22 N          10.8900    9.8530    8.7200 N.am      5 SEP2        0.0000 
     23 O          10.5035    8.2245    6.8060 O.2       1 ALC1        0.0000 
     24 O           9.8870    9.0340    6.2320 O.2       7 ALL1        0.0000 
     25 O          11.1200    7.4150    7.3800 O.2       4 ALP1        0.0000 
     26 CA         10.0715   11.3115    5.7170 C.3       3 GLC5        0.0000 
     27 CA          8.6250   10.1600    4.5000 C.3       9 GLL5        0.0000 
     28 CA          8.7005   12.0205    3.7665 C.3       3 GLC5        0.0000 
     29 CA          8.7760   13.8810    3.0330 C.3       6 GLP5        0.0000 
     30 N           6.4140    8.9410    0.7290 N.am      2 SEC2        0.0000 
     31 N           6.1460    9.7910    1.8430 N.am      8 SEL2        0.0000 
     32 N           6.6820    8.0910   -0.3850 N.am      5 SEP2        0.0000 
     33 CA          2.5095    8.4730    3.9110 C.3       3 GLC5        0.0000 
     34 CA          3.9570    9.9570    3.1460 C.3       9 GLL5        0.0000 
     35 CA          1.0620    6.9890    4.6760 C.3       6 GLP5        0.0000 
     36 O           1.7325   10.1865    1.9190 O.2       1 ALC1        0.0000 
     37 O           3.0830    9.8260    2.1420 O.2       7 ALL1        0.0000 
     38 O           0.3820   10.5470    1.6960 O.2       4 ALP1        0.0000 
     39 N           2.0350    9.7650    4.6305 N.am      2 SEC2        0.0000 
     40 N           3.4990   10.1040    4.4020 N.am      8 SEL2        0.0000 
     41 N           0.5710    9.4260    4.8590 N.am      5 SEP2        0.0000 
     42 CA          4.6210   12.0655    6.0595 C.3       3 GLC5        0.0000 
     43 CA          4.3760   10.2590    5.3870 C.3       9 GLL5        0.0000 
     44 CA          4.8660   13.8720    6.7320 C.3       6 GLP5        0.0000 
     45 CA          3.9355   11.8275    4.1025 C.3       3 GLC5        0.0000 
     46 CA          3.4950   13.3960    2.8180 C.3       6 GLP5        0.0000 
     47 CA          4.5540    8.6335    4.4570 C.3       3 GLC5        0.0000 
     48 CA          4.7320    7.0080    3.5270 C.3       6 GLP5        0.0000 
     49 CA         10.0987   11.4380    2.3022 C.3       3 GLC5        0.0000 
     50 CA          9.3100   13.1410    1.8170 C.3       6 GLP5        0.0000 
     51 CA          6.4957   11.9633    3.2535 C.3       3 GLC5        0.0000 
     52 CA          6.1360   10.0870    4.0940 C.3       9 GLL5        0.0000 
     53 CA          7.2470   13.9070    2.9730 C.3       6 GLP5        0.0000 
     54 CA          4.4452   11.7084    3.1975 C.3       3 GLC5        0.0000 
     55 CA          5.3530    9.9520    2.9740 C.3       9 GLL5        0.0000 
     56 CA          5.0638    8.5144    3.5520 C.3       3 GLC5        0.0000 
@<TRIPOS>BOND
@<TRIPOS>SUBSTRUCTURE
     1 ALC1       10 GROUP        1 X    ALC  0     ROOT ALC X 1
     2 SEC2        7 GROUP        1 X    SEC  0     **** SEC X 2
     3 GLC5        1 GROUP        1 X    GLC  0     **** GLC X 6
     4 ALP1       12 GROUP        1 Y    ALP  0     ROOT ALP Y 8
     5 SEP2        9 GROUP        1 Y    SEP  0     **** SEP Y 9
     6 GLP5        3 GROUP        1 Y    GLP  0     **** GLP Y 13
     7 ALL1       11 GROUP        1 Z    ALL  0     ROOT ALL Z 15
     8 SEL2        8 GROUP        1 Z    SEL  0     **** SEL Z 16
     9 GLL5        2 GROUP        1 Z    GLL  0     **** GLL Z 20
@<TRIPOS>SET

