#    Name: 1fmo_ADN_1_ligand
#    Modification time : Tue Mar 25 01:32:37 2014

@<TRIPOS>MOLECULE
1fmo_ADN_1_ligand
   32    34     1     0     0
SMALL
NO_CHARGES


@<TRIPOS>ATOM
      1 O5'        11.5450    8.5200    1.5450 O.3       1 ADN351      0.0000 
      2 C5'        11.0870    9.7900    2.0520 C.3       1 ADN351      0.0000 
      3 C4'        10.6880    9.6800    3.5230 C.3       1 ADN351      0.0000 
      4 O4'         9.7140   10.7250    3.8100 O.3       1 ADN351      0.0000 
      5 C3'         9.9730    8.3740    3.9030 C.3       1 ADN351      0.0000 
      6 O3'        10.8790    7.3610    4.3040 O.3       1 ADN351      0.0000 
      7 C2'         9.1150    8.8200    5.0590 C.3       1 ADN351      0.0000 
      8 O2'         9.8870    9.0340    6.2320 O.3       1 ADN351      0.0000 
      9 C1'         8.6250   10.1600    4.5000 C.3       1 ADN351      0.0000 
     10 N9          7.4440   10.0560    3.6460 N.pl3     1 ADN351      0.0000 
     11 C8          7.3740    9.8720    2.2910 C.2       1 ADN351      0.0000 
     12 N7          6.1460    9.7910    1.8430 N.2       1 ADN351      0.0000 
     13 C5          5.3530    9.9520    2.9740 C.ar      1 ADN351      0.0000 
     14 C6          3.9570    9.9570    3.1460 C.ar      1 ADN351      0.0000 
     15 N6          3.0830    9.8260    2.1420 N.pl3     1 ADN351      0.0000 
     16 N1          3.4990   10.1040    4.4020 N.ar      1 ADN351      0.0000 
     17 C2          4.3760   10.2590    5.3870 C.ar      1 ADN351      0.0000 
     18 N3          5.7050   10.2490    5.3510 N.ar      1 ADN351      0.0000 
     19 C4          6.1360   10.0870    4.0940 C.ar      1 ADN351      0.0000 
     20 H          10.2129   10.1519    1.4919 H         1 ADN351      0.0000 
     21 H          11.8697   10.5579    1.9716 H         1 ADN351      0.0000 
     22 H          11.5415    9.8031    4.1486 H         1 ADN351      0.0000 
     23 H           9.3379    8.1068    3.0992 H         1 ADN351      0.0000 
     24 H           8.3004    8.1862    5.1546 H         1 ADN351      0.0000 
     25 H           8.3903   10.7875    5.3774 H         1 ADN351      0.0000 
     26 H           8.1981    9.8096    1.7263 H         1 ADN351      0.0000 
     27 H           2.1162    9.8923    2.3888 H         1 ADN351      0.0000 
     28 H           3.4748    9.6736    1.2347 H         1 ADN351      0.0000 
     29 H           3.9312   10.4222    6.3970 H         1 ADN351      0.0000 
     30 H          11.3931    7.8731    2.2923 H         1 ADN351      0.0000 
     31 H          10.3032    6.5802    4.5466 H         1 ADN351      0.0000 
     32 H          10.6224    8.3581    6.1845 H         1 ADN351      0.0000 
@<TRIPOS>BOND
     1    2    1 1    
     2   30    1 1    
     3    3    2 1    
     4   20    2 1    
     5   21    2 1    
     6    4    3 1    
     7    5    3 1    
     8   22    3 1    
     9    9    4 1    
    10    6    5 1    
    11    7    5 1    
    12   23    5 1    
    13   31    6 1    
    14    8    7 1    
    15    9    7 1    
    16   24    7 1    
    17   32    8 1    
    18   10    9 1    
    19   25    9 1    
    20   11   10 1    
    21   19   10 1    
    22   12   11 2    
    23   26   11 1    
    24   13   12 1    
    25   14   13 ar   
    26   19   13 ar   
    27   15   14 1    
    28   16   14 ar   
    29   27   15 1    
    30   28   15 1    
    31   17   16 ar   
    32   18   17 ar   
    33   29   17 1    
    34   19   18 ar   
@<TRIPOS>SUBSTRUCTURE
     1 ADN351      1 GROUP   
@<TRIPOS>SET

