#    Name: 3dbd_3FR_1_INTS_M
#    Modification time : Mon Mar 24 23:02:34 2014

@<TRIPOS>MOLECULE
3dbd_3FR_1_INTS_M
   67     0     9     0     0
SMALL
NO_CHARGES


@<TRIPOS>ATOM
      1 CA         57.3315   24.2400   40.5890 C.3       3 GLC5        0.0000 
      2 CA         57.1640   23.3860   42.1510 C.3       9 GLL5        0.0000 
      3 CA         57.4990   25.0940   39.0270 C.3       6 GLP5        0.0000 
      4 CA         56.8270   24.9960   43.0805 C.3       3 GLC5        0.0000 
      5 CA         56.4900   26.6060   44.0100 C.3       6 GLP5        0.0000 
      6 CA         53.1135   15.1645   40.7000 C.3       3 GLC5        0.0000 
      7 CA         53.7330   15.1370   42.8240 C.3       9 GLL5        0.0000 
      8 CA         52.4940   15.1920   38.5760 C.3       6 GLP5        0.0000 
      9 CA         55.2230   13.7170   42.6285 C.3       3 GLC5        0.0000 
     10 CA         56.7130   12.2970   42.4330 C.3       6 GLP5        0.0000 
     11 CA         53.9035   20.9640   40.3635 C.3       3 GLC5        0.0000 
     12 CA         55.6840   20.6850   41.6280 C.3       9 GLL5        0.0000 
     13 CA         52.1230   21.2430   39.0990 C.3       6 GLP5        0.0000 
     14 CA         55.8300   19.6750   39.9080 C.3       3 GLC5        0.0000 
     15 CA         55.9760   18.6650   38.1880 C.3       6 GLP5        0.0000 
     16 CA         55.5750   18.6285   40.3940 C.3       3 GLC5        0.0000 
     17 CA         55.1740   18.5920   42.6000 C.3       9 GLL5        0.0000 
     18 CA         60.0580   15.3930   42.2320 C.3       3 GLC5        0.0000 
     19 CA         58.2340   15.5120   43.4770 C.3       9 GLL5        0.0000 
     20 CA         61.8820   15.2740   40.9870 C.3       6 GLP5        0.0000 
     21 O          62.2270   17.7850   43.8070 O.2       1 ALC1        0.0000 
     22 O          61.1700   17.6980   45.0550 O.2       7 ALL1        0.0000 
     23 O          63.2840   17.8720   42.5590 O.2       4 ALP1        0.0000 
     24 CA         57.7990   18.8675   50.6115 C.3       3 GLC5        0.0000 
     25 CA         58.2920   19.4790   48.6030 C.3       9 GLL5        0.0000 
     26 CA         57.3060   18.2560   52.6200 C.3       6 GLP5        0.0000 
     27 CA         59.3945   19.8915   50.4130 C.3       3 GLC5        0.0000 
     28 CA         60.4970   20.3040   52.2230 C.3       6 GLP5        0.0000 
     29 CA         59.0020   21.0735   51.0145 C.3       3 GLC5        0.0000 
     30 CA         57.5070   21.8430   49.8060 C.3       9 GLL5        0.0000 
     31 CA         57.7370   23.1480   51.1815 C.3       3 GLC5        0.0000 
     32 CA         57.9670   24.4530   52.5570 C.3       6 GLP5        0.0000 
     33 CA         55.9935   21.7460   51.4235 C.3       3 GLC5        0.0000 
     34 CA         54.4800   21.6490   53.0410 C.3       6 GLP5        0.0000 
     35 CA         55.8595   21.2265   49.1075 C.3       3 GLC5        0.0000 
     36 CA         54.2120   20.6100   48.4090 C.3       6 GLP5        0.0000 
     37 CA         55.6640   20.7035   46.3495 C.3       3 GLC5        0.0000 
     38 CA         57.5640   20.3660   45.9850 C.3       9 GLL5        0.0000 
     39 CA         53.7640   21.0410   46.7140 C.3       6 GLP5        0.0000 
     40 N          54.4145   19.4595   40.1895 N.am      2 SEC2        0.0000 
     41 N          55.1020   19.4760   41.5690 N.am      8 SEL2        0.0000 
     42 N          53.7270   19.4430   38.8100 N.am      5 SEP2        0.0000 
     43 O          54.6180   16.9945   41.0625 O.2       1 ALC1        0.0000 
     44 O          54.5580   17.3900   42.4410 O.2       7 ALL1        0.0000 
     45 O          54.6780   16.5990   39.6840 O.2       4 ALP1        0.0000 
     46 CA         56.8480   15.9638   49.4483 C.3       3 GLC5        0.0000 
     47 CA         58.3300   16.3660   48.4870 C.3       9 GLL5        0.0000 
     48 CA         55.1120   16.2000   50.2940 C.3       6 GLP5        0.0000 
     49 CA         52.4480   15.9885   44.0720 C.3       3 GLC5        0.0000 
     50 CA         54.5130   16.3070   43.4200 C.3       9 GLL5        0.0000 
     51 CA         50.7730   16.2550   45.0220 C.3       6 GLP5        0.0000 
     52 CA         54.3582   21.6403   42.5247 C.3       3 GLC5        0.0000 
     53 CA         56.3810   21.0380   42.7810 C.3       9 GLL5        0.0000 
     54 CA         52.6840   22.4190   42.8450 C.3       6 GLP5        0.0000 
     55 CA         54.9708   20.2955   45.2650 C.3       3 GLC5        0.0000 
     56 CA         56.4860   20.1720   43.8610 C.3       9 GLL5        0.0000 
     57 CA         56.3213   13.9260   43.4622 C.3       3 GLC5        0.0000 
     58 CA         55.8600   15.8380   43.8570 C.3       9 GLL5        0.0000 
     59 CA         57.4947   14.7565   41.8447 C.3       3 GLC5        0.0000 
     60 CA         56.9870   15.9540   43.0360 C.3       9 GLL5        0.0000 
     61 CA         57.3790   13.7800   40.4330 C.3       6 GLP5        0.0000 
     62 CA         57.2582   13.5905   43.7935 C.3       3 GLC5        0.0000 
     63 CA         58.3630   14.9440   44.7430 C.3       9 GLL5        0.0000 
     64 CA         55.9649   20.6229   48.1125 C.3       3 GLC5        0.0000 
     65 CA         58.0938   22.8909   47.7194 C.3       3 GLC5        0.0000 
     66 CA         57.7570   20.7440   48.4090 C.3       9 GLL5        0.0000 
     67 CA         58.6660   24.5550   47.3220 C.3       6 GLP5        0.0000 
@<TRIPOS>BOND
@<TRIPOS>SUBSTRUCTURE
     1 ALC1       21 GROUP        1 X    ALC  0     ROOT ALC X 1
     2 SEC2       40 GROUP        1 X    SEC  0     **** SEC X 2
     3 GLC5        1 GROUP        1 X    GLC  0     **** GLC X 6
     4 ALP1       23 GROUP        1 Y    ALP  0     ROOT ALP Y 8
     5 SEP2       42 GROUP        1 Y    SEP  0     **** SEP Y 9
     6 GLP5        3 GROUP        1 Y    GLP  0     **** GLP Y 13
     7 ALL1       22 GROUP        1 Z    ALL  0     ROOT ALL Z 15
     8 SEL2       41 GROUP        1 Z    SEL  0     **** SEL Z 16
     9 GLL5        2 GROUP        1 Z    GLL  0     **** GLL Z 20
@<TRIPOS>SET

