#    Name: 3dbd_3FR_1_ligand
#    Modification time : Mon Mar 24 23:02:34 2014

@<TRIPOS>MOLECULE
3dbd_3FR_1_ligand
   59    63     1     0     0
SMALL
NO_CHARGES


@<TRIPOS>ATOM
      1 C31        60.0740   14.7270   48.1870 C.ar      1 3FR313      0.0000 
      2 C30        58.8380   15.0890   48.7180 C.ar      1 3FR313      0.0000 
      3 C28        59.0490   17.2880   47.7210 C.ar      1 3FR313      0.0000 
      4 C26        57.1640   23.3860   42.1510 C.3       1 3FR313      0.0000 
      5 C24        53.7330   15.1370   42.8240 C.3       1 3FR313      0.0000 
      6 C23        58.1150   19.0960   46.2260 C.ar      1 3FR313      0.0000 
      7 C22        58.4740   18.6480   47.5030 C.ar      1 3FR313      0.0000 
      8 C17        57.1230   22.2720   43.1610 C.2       1 3FR313      0.0000 
      9 C20        57.7570   20.7440   48.4090 C.ar      1 3FR313      0.0000 
     10 C12        56.3810   21.0380   42.7810 C.ar      1 3FR313      0.0000 
     11 C13        55.6840   20.6850   41.6280 C.ar      1 3FR313      0.0000 
     12 C11        56.4860   20.1720   43.8610 C.ar      1 3FR313      0.0000 
     13 C10        55.8690   18.9280   43.7710 C.ar      1 3FR313      0.0000 
     14 C9         55.1740   18.5920   42.6000 C.ar      1 3FR313      0.0000 
     15 C7         54.5130   16.3070   43.4200 C.3       1 3FR313      0.0000 
     16 C4         55.9990   15.2720   45.1260 C.ar      1 3FR313      0.0000 
     17 C5         55.8600   15.8380   43.8570 C.ar      1 3FR313      0.0000 
     18 C6         56.9870   15.9540   43.0360 C.ar      1 3FR313      0.0000 
     19 C3         57.2440   14.8240   45.5650 C.ar      1 3FR313      0.0000 
     20 C2         58.3630   14.9440   44.7430 C.ar      1 3FR313      0.0000 
     21 C1         58.2340   15.5120   43.4770 C.ar      1 3FR313      0.0000 
     22 O36        61.6730   18.8090   46.9240 O.2       1 3FR313      0.0000 
     23 C34        61.1000   17.8840   46.3720 C.2       1 3FR313      0.0000 
     24 N35        61.1700   17.6980   45.0550 N.am      1 3FR313      0.0000 
     25 C33        60.2890   16.9240   47.1950 C.ar      1 3FR313      0.0000 
     26 C32        60.7970   15.6450   47.4270 C.ar      1 3FR313      0.0000 
     27 C29        58.3300   16.3660   48.4870 C.ar      1 3FR313      0.0000 
     28 C21        58.2920   19.4790   48.6030 C.ar      1 3FR313      0.0000 
     29 CL         57.5070   21.8430   49.8060 Cl        1 3FR313      0.0000 
     30 C19        57.4110   21.1600   47.1260 C.ar      1 3FR313      0.0000 
     31 C18        57.5640   20.3660   45.9850 C.ar      1 3FR313      0.0000 
     32 N15        57.2190   20.8380   44.7730 N.pl3     1 3FR313      0.0000 
     33 N16        57.6340   22.1270   44.3980 N.2       1 3FR313      0.0000 
     34 N14        55.1020   19.4760   41.5690 N.ar      1 3FR313      0.0000 
     35 N8         54.5580   17.3900   42.4410 N.pl3     1 3FR313      0.0000 
     36 H          60.4513   13.7879   48.3545 H         1 3FR313      0.0000 
     37 H          58.3021   14.4164   49.2786 H         1 3FR313      0.0000 
     38 H          58.2632   18.4565   45.4112 H         1 3FR313      0.0000 
     39 H          55.6293   21.3534   40.8494 H         1 3FR313      0.0000 
     40 H          55.9187   18.2646   44.5449 H         1 3FR313      0.0000 
     41 H          53.9513   16.6353   44.3030 H         1 3FR313      0.0000 
     42 H          55.1773   15.1856   45.7397 H         1 3FR313      0.0000 
     43 H          56.8928   16.3697   42.0982 H         1 3FR313      0.0000 
     44 H          57.3369   14.4032   46.4993 H         1 3FR313      0.0000 
     45 H          59.2784   14.6154   45.0687 H         1 3FR313      0.0000 
     46 H          59.0562   15.6052   42.8691 H         1 3FR313      0.0000 
     47 H          60.6806   16.9032   44.6962 H         1 3FR313      0.0000 
     48 H          61.7057   18.3699   44.5436 H         1 3FR313      0.0000 
     49 H          61.7106   15.3788   47.0344 H         1 3FR313      0.0000 
     50 H          57.4176   16.6343   48.8831 H         1 3FR313      0.0000 
     51 H          58.5490   19.1611   49.5395 H         1 3FR313      0.0000 
     52 H          57.0113   22.1267   47.0055 H         1 3FR313      0.0000 
     53 H          54.0480   17.1810   41.5268 H         1 3FR313      0.0000 
     54 H          57.6828   24.1724   42.4863 H         1 3FR313      0.0000 
     55 H          57.5921   23.0958   41.2952 H         1 3FR313      0.0000 
     56 H          56.2475   23.7149   41.9234 H         1 3FR313      0.0000 
     57 H          54.2018   14.7422   42.0338 H         1 3FR313      0.0000 
     58 H          53.6049   14.3997   43.4873 H         1 3FR313      0.0000 
     59 H          52.8233   15.4156   42.5160 H         1 3FR313      0.0000 
@<TRIPOS>BOND
     1    2    1 ar   
     2   26    1 ar   
     3   36    1 1    
     4   27    2 ar   
     5   37    2 1    
     6    7    3 1    
     7   25    3 ar   
     8   27    3 ar   
     9    8    4 1    
    10   54    4 1    
    11   55    4 1    
    12   56    4 1    
    13   15    5 1    
    14   57    5 1    
    15   58    5 1    
    16   59    5 1    
    17    7    6 ar   
    18   31    6 ar   
    19   38    6 1    
    20   28    7 ar   
    21   10    8 1    
    22   33    8 2    
    23   28    9 ar   
    24   29    9 1    
    25   30    9 ar   
    26   11   10 ar   
    27   12   10 ar   
    28   34   11 ar   
    29   39   11 1    
    30   13   12 ar   
    31   32   12 1    
    32   14   13 ar   
    33   40   13 1    
    34   34   14 ar   
    35   35   14 1    
    36   17   15 1    
    37   35   15 1    
    38   41   15 1    
    39   17   16 ar   
    40   19   16 ar   
    41   42   16 1    
    42   18   17 ar   
    43   21   18 ar   
    44   43   18 1    
    45   20   19 ar   
    46   44   19 1    
    47   21   20 ar   
    48   45   20 1    
    49   46   21 1    
    50   23   22 2    
    51   24   23 am   
    52   25   23 1    
    53   47   24 1    
    54   48   24 1    
    55   26   25 ar   
    56   49   26 1    
    57   50   27 1    
    58   51   28 1    
    59   31   30 ar   
    60   52   30 1    
    61   32   31 1    
    62   33   32 1    
    63   53   35 1    
@<TRIPOS>SUBSTRUCTURE
     1 3FR313      1 GROUP   
@<TRIPOS>SET

