#    Name: 4i3z_ADP_2_INTS_M
#    Modification time : Tue Mar 25 02:21:31 2014

@<TRIPOS>MOLECULE
4i3z_ADP_2_INTS_M
   60     0    15     0     0
SMALL
NO_CHARGES


@<TRIPOS>ATOM
      1 NZ         10.9640    5.3030  -41.1600 N.4       3 LYC4        0.0000 
      2 NZ         11.4320    3.8660  -40.7150 N.4      13 LYL4        0.0000 
      3 NZ         10.4960    6.7400  -41.6050 N.4       8 LYP4        0.0000 
      4 Zn         10.9845    2.9470  -41.1305 Zn        4 ZIC7        0.0000 
      5 Zn         11.4320    3.8660  -40.7150 Zn       14 ZIL7        0.0000 
      6 Zn         10.5370    2.0280  -41.5460 Zn        9 ZIP7        0.0000 
      7 N          10.9640    5.3030  -41.1600 N.am      2 SEC2        0.0000 
      8 N          11.4320    3.8660  -40.7150 N.am     12 SEL2        0.0000 
      9 N          10.4960    6.7400  -41.6050 N.am      7 SEP2        0.0000 
     10 Zn         10.3835    2.8725  -38.0235 Zn        4 ZIC7        0.0000 
     11 Zn         11.3130    3.1360  -38.2900 Zn       14 ZIL7        0.0000 
     12 Zn          9.4540    2.6090  -37.7570 Zn        9 ZIP7        0.0000 
     13 Zn          9.3370    3.6220  -37.7525 Zn        4 ZIC7        0.0000 
     14 Zn          9.2200    4.6350  -37.7480 Zn       14 ZIL7        0.0000 
     15 NZ          9.8125    6.7885  -40.3640 N.4       3 LYC4        0.0000 
     16 NZ          9.1290    6.8370  -39.1230 N.4      13 LYL4        0.0000 
     17 N           9.8125    6.7885  -40.3640 N.am      2 SEC2        0.0000 
     18 N           9.1290    6.8370  -39.1230 N.am     12 SEL2        0.0000 
     19 CA         12.3220    7.4625  -36.7990 C.3       5 GLC5        0.0000 
     20 CA         11.2200    6.0410  -35.9880 C.3      15 GLL5        0.0000 
     21 CA         13.4240    8.8840  -37.6100 C.3      10 GLP5        0.0000 
     22 O           7.9285    4.1050  -33.8785 O.2       1 ALC1        0.0000 
     23 O           9.1940    4.6510  -33.7810 O.2      11 ALL1        0.0000 
     24 O           6.6630    3.5590  -33.9760 O.2       6 ALP1        0.0000 
     25 CA          7.1490    6.1485  -32.2450 C.3       5 GLC5        0.0000 
     26 CA          8.7940    7.0350  -33.3910 C.3      15 GLL5        0.0000 
     27 CA          5.5040    5.2620  -31.0990 C.3      10 GLP5        0.0000 
     28 CA          6.8050    7.5105  -33.5530 C.3       5 GLC5        0.0000 
     29 CA          4.8160    7.9860  -33.7150 C.3      10 GLP5        0.0000 
     30 O           8.3670    5.6960  -31.3215 O.2       1 ALC1        0.0000 
     31 O           8.9480    6.6450  -32.0230 O.2      11 ALL1        0.0000 
     32 O           7.7860    4.7470  -30.6200 O.2       6 ALP1        0.0000 
     33 CA         10.4045   10.0770  -33.2390 C.3       5 GLC5        0.0000 
     34 CA          9.6680    8.2450  -33.6700 C.3      15 GLL5        0.0000 
     35 CA         11.1410   11.9090  -32.8080 C.3      10 GLP5        0.0000 
     36 CA          6.1095   13.9940  -34.6455 C.3       5 GLC5        0.0000 
     37 CA          6.6680   11.9060  -35.2240 C.3      15 GLL5        0.0000 
     38 CA          5.5510   16.0820  -34.0670 C.3      10 GLP5        0.0000 
     39 O           5.5790   13.7185  -36.4290 O.2       1 ALC1        0.0000 
     40 O           6.0610   12.4530  -36.3030 O.2      11 ALL1        0.0000 
     41 O           5.0970   14.9840  -36.5550 O.2       6 ALP1        0.0000 
     42 N           5.5040   13.3650  -33.3845 N.am      2 SEC2        0.0000 
     43 N           6.5120   12.4200  -33.9790 N.am     12 SEL2        0.0000 
     44 N           4.4960   14.3100  -32.7900 N.am      7 SEP2        0.0000 
     45 CA          9.1280   11.8910  -32.8565 C.3       5 GLC5        0.0000 
     46 CA          7.1150   11.8730  -32.9050 C.3      15 GLL5        0.0000 
     47 CA          8.1285   12.9770  -34.5735 C.3       5 GLC5        0.0000 
     48 CA          9.1420   14.0810  -36.2420 C.3      10 GLP5        0.0000 
     49 CA          5.3280   12.8135  -32.3715 C.3       5 GLC5        0.0000 
     50 CA          3.5410   13.7540  -31.8380 C.3      10 GLP5        0.0000 
     51 CA          9.6445   11.0420  -33.4815 C.3       5 GLC5        0.0000 
     52 CA          8.1480   10.1750  -34.1550 C.3      15 GLL5        0.0000 
     53 CA          6.4820    9.0805  -33.9350 C.3       5 GLC5        0.0000 
     54 CA         12.8550    6.7192  -34.4853 C.3       5 GLC5        0.0000 
     55 CA         10.7600    6.3780  -34.5770 C.3      15 GLL5        0.0000 
     56 CA         14.7200    7.2290  -33.6880 C.3      10 GLP5        0.0000 
     57 CA          8.1202   12.6955  -35.7712 C.3       5 GLC5        0.0000 
     58 CA          7.5290   10.7140  -35.3770 C.3      15 GLL5        0.0000 
     59 CA          5.6043   10.4330  -35.4228 C.3       5 GLC5        0.0000 
     60 CA          4.1100    9.5560  -35.5450 C.3      10 GLP5        0.0000 
@<TRIPOS>BOND
@<TRIPOS>SUBSTRUCTURE
     1 ALC1       22 GROUP        1 X    ALC  0     ROOT ALC X 1
     2 SEC2        7 GROUP        1 X    SEC  0     **** SEC X 2
     3 LYC4        1 GROUP        1 X    LYC  0     **** LYC X 4
     4 ZIC7        4 GROUP        1 X    ZIC  0     **** ZIC X 5
     5 GLC5       19 GROUP        1 X    GLC  0     **** GLC X 6
     6 ALP1       24 GROUP        1 Y    ALP  0     ROOT ALP Y 8
     7 SEP2        9 GROUP        1 Y    SEP  0     **** SEP Y 9
     8 LYP4        3 GROUP        1 Y    LYP  0     **** LYP Y 11
     9 ZIP7        6 GROUP        1 Y    ZIP  0     **** ZIP Y 12
    10 GLP5       21 GROUP        1 Y    GLP  0     **** GLP Y 13
    11 ALL1       23 GROUP        1 Z    ALL  0     ROOT ALL Z 15
    12 SEL2        8 GROUP        1 Z    SEL  0     **** SEL Z 16
    13 LYL4        2 GROUP        1 Z    LYL  0     **** LYL Z 18
    14 ZIL7        5 GROUP        1 Z    ZIL  0     **** ZIL Z 19
    15 GLL5       20 GROUP        1 Z    GLL  0     **** GLL Z 20
@<TRIPOS>SET

