#    Name: 4i3z_ADP_2_ligand
#    Modification time : Tue Mar 25 02:21:31 2014

@<TRIPOS>MOLECULE
4i3z_ADP_2_ligand
   39    41     1     0     0
SMALL
NO_CHARGES


@<TRIPOS>ATOM
      1 PB         11.9050    4.0950  -39.3000 P.3       1 ADP301      0.0000 
      2 O1B        13.4040    4.2500  -39.2150 O.co2     1 ADP301      0.0000 
      3 O2B        11.4320    3.8660  -40.7150 O.co2     1 ADP301      0.0000 
      4 O3B        11.3130    3.1360  -38.2900 O.co2     1 ADP301      0.0000 
      5 PA          9.8970    5.8900  -38.2350 P.3       1 ADP301      0.0000 
      6 O1A         9.2200    4.6350  -37.7480 O.co2     1 ADP301      0.0000 
      7 O2A         9.1290    6.8370  -39.1230 O.co2     1 ADP301      0.0000 
      8 O3A        11.3360    5.5600  -38.9120 O.3       1 ADP301      0.0000 
      9 O5'        10.3750    6.6950  -36.9330 O.3       1 ADP301      0.0000 
     10 C5'        11.2200    6.0410  -35.9880 C.3       1 ADP301      0.0000 
     11 C4'        10.7600    6.3780  -34.5770 C.3       1 ADP301      0.0000 
     12 O4'        10.8210    7.7930  -34.3820 O.3       1 ADP301      0.0000 
     13 C3'         9.3150    5.9700  -34.3350 C.3       1 ADP301      0.0000 
     14 O3'         9.1940    4.6510  -33.7810 O.3       1 ADP301      0.0000 
     15 C2'         8.7940    7.0350  -33.3910 C.3       1 ADP301      0.0000 
     16 O2'         8.9480    6.6450  -32.0230 O.3       1 ADP301      0.0000 
     17 C1'         9.6680    8.2450  -33.6700 C.3       1 ADP301      0.0000 
     18 N9          8.8680    9.1230  -34.5480 N.pl3     1 ADP301      0.0000 
     19 C8          8.7310    8.9720  -35.8820 C.2       1 ADP301      0.0000 
     20 N7          7.9250    9.9320  -36.4000 N.2       1 ADP301      0.0000 
     21 C5          7.5290   10.7140  -35.3770 C.ar      1 ADP301      0.0000 
     22 C6          6.6680   11.9060  -35.2240 C.ar      1 ADP301      0.0000 
     23 N6          6.0610   12.4530  -36.3030 N.pl3     1 ADP301      0.0000 
     24 N1          6.5120   12.4200  -33.9790 N.ar      1 ADP301      0.0000 
     25 C2          7.1150   11.8730  -32.9050 C.ar      1 ADP301      0.0000 
     26 N3          7.9090   10.7900  -32.9680 N.ar      1 ADP301      0.0000 
     27 C4          8.1480   10.1750  -34.1550 C.ar      1 ADP301      0.0000 
     28 H          12.2636    6.3602  -36.0873 H         1 ADP301      0.0000 
     29 H          11.1889    4.9514  -36.1012 H         1 ADP301      0.0000 
     30 H          11.3825    5.8685  -33.8691 H         1 ADP301      0.0000 
     31 H           8.7871    6.0789  -35.2685 H         1 ADP301      0.0000 
     32 H           7.7981    7.2735  -33.6530 H         1 ADP301      0.0000 
     33 H           9.8964    8.7214  -32.7684 H         1 ADP301      0.0000 
     34 H           9.1563    8.2632  -36.4104 H         1 ADP301      0.0000 
     35 H           5.8560   13.4300  -36.2443 H         1 ADP301      0.0000 
     36 H           5.8713   11.8317  -37.0632 H         1 ADP301      0.0000 
     37 H           6.9522   12.3260  -31.9516 H         1 ADP301      0.0000 
     38 H           8.2364    4.5738  -33.5036 H         1 ADP301      0.0000 
     39 H           8.2983    5.8961  -31.8928 H         1 ADP301      0.0000 
@<TRIPOS>BOND
     1    2    1 ar   
     2    3    1 ar   
     3    4    1 ar   
     4    8    1 1    
     5    6    5 ar   
     6    7    5 ar   
     7    8    5 1    
     8    9    5 1    
     9   10    9 1    
    10   11   10 1    
    11   28   10 1    
    12   29   10 1    
    13   12   11 1    
    14   13   11 1    
    15   30   11 1    
    16   17   12 1    
    17   14   13 1    
    18   15   13 1    
    19   31   13 1    
    20   38   14 1    
    21   16   15 1    
    22   17   15 1    
    23   32   15 1    
    24   39   16 1    
    25   18   17 1    
    26   33   17 1    
    27   19   18 1    
    28   27   18 1    
    29   20   19 2    
    30   34   19 1    
    31   21   20 1    
    32   22   21 ar   
    33   27   21 ar   
    34   23   22 1    
    35   24   22 ar   
    36   35   23 1    
    37   36   23 1    
    38   25   24 ar   
    39   26   25 ar   
    40   37   25 1    
    41   27   26 ar   
@<TRIPOS>SUBSTRUCTURE
     1 ADP301      1 GROUP   
@<TRIPOS>SET

