#    Name: 3asx_D99_1_INTS_M
#    Modification time : Mon Mar 24 18:10:06 2014

@<TRIPOS>MOLECULE
3asx_D99_1_INTS_M
   83     0     3     0     0
SMALL
NO_CHARGES


@<TRIPOS>ATOM
      1 CA         19.5260   -3.4070   52.0670 C.3       1 GLC5        0.0000 
      2 CA         20.8020   -3.0400   53.5230 C.3       3 GLL5        0.0000 
      3 CA         18.2500   -3.7740   50.6110 C.3       2 GLP5        0.0000 
      4 CA         21.7575   -2.6595   51.5500 C.3       1 GLC5        0.0000 
      5 CA         22.7130   -2.2790   49.5770 C.3       2 GLP5        0.0000 
      6 CA         22.5350   -4.1915   53.4235 C.3       1 GLC5        0.0000 
      7 CA         24.2680   -5.3430   53.3240 C.3       2 GLP5        0.0000 
      8 CA         13.6695   -1.5900   52.9080 C.3       1 GLC5        0.0000 
      9 CA         15.2160   -1.1440   51.7320 C.3       3 GLL5        0.0000 
     10 CA         12.1230   -2.0360   54.0840 C.3       2 GLP5        0.0000 
     11 CA         15.0810   -2.8265   50.4860 C.3       1 GLC5        0.0000 
     12 CA         14.9460   -4.5090   49.2400 C.3       2 GLP5        0.0000 
     13 CA         16.2590    0.1410   50.6910 C.3       1 GLC5        0.0000 
     14 CA         17.3020    1.4260   49.6500 C.3       2 GLP5        0.0000 
     15 CA         15.2180   -3.9505   51.2760 C.3       1 GLC5        0.0000 
     16 CA         15.4900   -3.3920   53.3120 C.3       3 GLL5        0.0000 
     17 CA         22.1475   -1.3605   51.3855 C.3       1 GLC5        0.0000 
     18 CA         21.5820   -0.4420   53.1940 C.3       3 GLL5        0.0000 
     19 CA         22.0430    2.7875   53.3815 C.3       1 GLC5        0.0000 
     20 CA         21.4820    0.9240   53.4140 C.3       3 GLL5        0.0000 
     21 CA         22.6040    4.6510   53.3490 C.3       2 GLP5        0.0000 
     22 CA         21.4410    2.8240   55.1920 C.3       1 GLC5        0.0000 
     23 CA         20.5160    1.4400   54.2820 C.3       3 GLL5        0.0000 
     24 CA         22.3660    4.2080   56.1020 C.3       2 GLP5        0.0000 
     25 CA         15.6445   -1.3450   57.4875 C.3       1 GLC5        0.0000 
     26 CA         15.7980   -3.4450   57.4440 C.3       3 GLL5        0.0000 
     27 CA         15.4910    0.7550   57.5310 C.3       2 GLP5        0.0000 
     28 CA         13.8675   -3.0950   56.3825 C.3       1 GLC5        0.0000 
     29 CA         11.9370   -2.7450   55.3210 C.3       2 GLP5        0.0000 
     30 CA         14.9655   -1.3270   58.6255 C.3       1 GLC5        0.0000 
     31 CA         15.5750   -3.1990   58.9680 C.3       3 GLL5        0.0000 
     32 CA         14.3560    0.5450   58.2830 C.3       2 GLP5        0.0000 
     33 CA         14.8035   -0.4950   60.5960 C.3       1 GLC5        0.0000 
     34 CA         15.4230   -2.1920   61.6970 C.3       3 GLL5        0.0000 
     35 CA         14.1840    1.2020   59.4950 C.3       2 GLP5        0.0000 
     36 CA         14.2740   -0.2340   61.6565 C.3       1 GLC5        0.0000 
     37 CA         15.5800   -1.4330   63.0240 C.3       3 GLL5        0.0000 
     38 CA         12.9680    0.9650   60.2890 C.3       2 GLP5        0.0000 
     39 CA         19.5320   -0.1510   61.5030 C.3       1 GLC5        0.0000 
     40 CA         17.7540   -0.3790   62.1790 C.3       3 GLL5        0.0000 
     41 CA         21.3100    0.0770   60.8270 C.3       2 GLP5        0.0000 
     42 CA         19.1955   -0.0920   63.7595 C.3       1 GLC5        0.0000 
     43 CA         20.6370    0.1950   65.3400 C.3       2 GLP5        0.0000 
     44 CA         19.3615   -1.1140   60.5410 C.3       1 GLC5        0.0000 
     45 CA         17.9060   -1.8010   61.6380 C.3       3 GLL5        0.0000 
     46 CA         20.8170   -0.4270   59.4440 C.3       2 GLP5        0.0000 
     47 CA         20.4715   -4.2060   56.5400 C.3       1 GLC5        0.0000 
     48 CA         18.9500   -5.2230   55.9130 C.3       3 GLL5        0.0000 
     49 CA         21.9930   -3.1890   57.1670 C.3       2 GLP5        0.0000 
     50 CA         20.9915   -8.1035   54.2095 C.3       1 GLC5        0.0000 
     51 CA         20.0960   -7.2870   55.6750 C.3       3 GLL5        0.0000 
     52 CA         21.8870   -8.9200   52.7440 C.3       2 GLP5        0.0000 
     53 CA         21.4110   -6.4020   56.7860 C.3       1 GLC5        0.0000 
     54 CA         22.7260   -5.5170   57.8970 C.3       2 GLP5        0.0000 
     55 CA         21.4720   -8.5420   56.4400 C.3       1 GLC5        0.0000 
     56 CA         22.8480   -9.7970   57.2050 C.3       2 GLP5        0.0000 
     57 CA         19.9550   -7.4935   52.5875 C.3       1 GLC5        0.0000 
     58 CA         18.6620   -6.5330   53.7790 C.3       3 GLL5        0.0000 
     59 CA         21.2480   -8.4540   51.3960 C.3       2 GLP5        0.0000 
     60 CA         18.4025   -6.3510   51.7855 C.3       1 GLC5        0.0000 
     61 CA         18.1430   -6.1690   49.7920 C.3       2 GLP5        0.0000 
     62 CA         19.8187   -1.0797   52.3113 C.3       1 GLC5        0.0000 
     63 CA         18.8910    0.0060   50.9450 C.3       2 GLP5        0.0000 
     64 CA         21.3697   -2.6772   55.4222 C.3       1 GLC5        0.0000 
     65 CA         20.6910   -1.2910   53.8320 C.3       3 GLL5        0.0000 
     66 CA         17.0123   -3.7672   52.2315 C.3       1 GLC5        0.0000 
     67 CA         16.0590   -4.1290   54.3920 C.3       3 GLL5        0.0000 
     68 CA         16.9265   -2.7043   51.4958 C.3       1 GLC5        0.0000 
     69 CA         15.9900   -2.1250   53.0290 C.3       3 GLL5        0.0000 
     70 CA         17.7222   -0.9308   52.1573 C.3       1 GLC5        0.0000 
     71 CA         17.8257   -2.8765   52.4162 C.3       1 GLC5        0.0000 
     72 CA         17.1170   -1.6100   53.7100 C.3       3 GLL5        0.0000 
     73 CA         20.6382   -2.2325   56.1343 C.3       1 GLC5        0.0000 
     74 CA         18.8270   -1.7400   55.4850 C.3       3 GLL5        0.0000 
     75 CA         19.6806    0.1842   56.9581 C.3       1 GLC5        0.0000 
     76 CA         19.6330    0.5850   54.9270 C.3       3 GLL5        0.0000 
     77 CA         19.9030    0.7140   58.9020 C.3       2 GLP5        0.0000 
     78 CA         16.1078    0.9215   61.2137 C.3       1 GLC5        0.0000 
     79 CA         15.1560    2.0960   59.9460 C.3       2 GLP5        0.0000 
     80 CA         17.9943    1.5415   62.5868 C.3       1 GLC5        0.0000 
     81 CA         16.3650   -0.1270   62.7840 C.3       3 GLL5        0.0000 
     82 CA         18.9290    3.3360   62.6920 C.3       2 GLP5        0.0000 
     83 CA         19.8538    0.2291   52.4366 C.3       1 GLC5        0.0000 
@<TRIPOS>BOND
@<TRIPOS>SUBSTRUCTURE
     1 GLC5        1 GROUP        1 X    GLC  0     ROOT GLC X 6
     2 GLP5        3 GROUP        1 Y    GLP  0     ROOT GLP Y 13
     3 GLL5        2 GROUP        1 Z    GLL  0     ROOT GLL Z 20
@<TRIPOS>SET

