#    Name: 3asx_D99_1_ligand
#    Modification time : Mon Mar 24 18:10:06 2014

@<TRIPOS>MOLECULE
3asx_D99_1_ligand
   70    72     1     0     0
SMALL
NO_CHARGES


@<TRIPOS>ATOM
      1 C1         17.1720   -3.6090   55.0720 C.ar      1 D991        0.0000 
      2 N1         17.7110   -4.4110   56.1220 N.am      1 D991        0.0000 
      3 O1         18.2250   -0.9550   56.5470 O.3       1 D991        0.0000 
      4 CL1        20.8020   -3.0400   53.5230 Cl        1 D991        0.0000 
      5 C2         16.0590   -4.1290   54.3920 C.ar      1 D991        0.0000 
      6 N2         16.6720   -2.1020   60.8980 N.am      1 D991        0.0000 
      7 O2         17.3800   -5.0240   58.2240 O.2       1 D991        0.0000 
      8 CL2        15.2160   -1.1440   51.7320 Cl        1 D991        0.0000 
      9 C3         15.4900   -3.3920   53.3120 C.ar      1 D991        0.0000 
     10 O3         17.6730   -2.0720   58.8660 O.2       1 D991        0.0000 
     11 C4         15.9900   -2.1250   53.0290 C.ar      1 D991        0.0000 
     12 O4         13.3240   -2.0530   63.5300 O.co2     1 D991        0.0000 
     13 C5         17.1170   -1.6100   53.7100 C.ar      1 D991        0.0000 
     14 O5         13.8630   -0.0160   64.1890 O.co2     1 D991        0.0000 
     15 C6         17.6860   -2.3480   54.7330 C.ar      1 D991        0.0000 
     16 C7         18.8270   -1.7400   55.4850 C.3       1 D991        0.0000 
     17 C8         19.7400   -0.8120   54.7180 C.ar      1 D991        0.0000 
     18 C9         20.6910   -1.2910   53.8320 C.ar      1 D991        0.0000 
     19 C10        21.5820   -0.4420   53.1940 C.ar      1 D991        0.0000 
     20 C11        21.4820    0.9240   53.4140 C.ar      1 D991        0.0000 
     21 C12        20.5160    1.4400   54.2820 C.ar      1 D991        0.0000 
     22 C13        19.6330    0.5850   54.9270 C.ar      1 D991        0.0000 
     23 C14        17.0270   -4.3600   57.2880 C.2       1 D991        0.0000 
     24 C15        15.7980   -3.4450   57.4440 C.3       1 D991        0.0000 
     25 C16        15.5750   -3.1990   58.9680 C.3       1 D991        0.0000 
     26 C17        16.7170   -2.4000   59.5700 C.2       1 D991        0.0000 
     27 C18        15.4230   -2.1920   61.6970 C.3       1 D991        0.0000 
     28 C19        15.5800   -1.4330   63.0240 C.3       1 D991        0.0000 
     29 C20        16.3650   -0.1270   62.7840 C.3       1 D991        0.0000 
     30 C21        17.7540   -0.3790   62.1790 C.3       1 D991        0.0000 
     31 C22        17.9060   -1.8010   61.6380 C.3       1 D991        0.0000 
     32 C23        14.1910   -1.1810   63.5930 C.2       1 D991        0.0000 
     33 C24        18.9500   -5.2230   55.9130 C.3       1 D991        0.0000 
     34 C25        18.7830   -6.6130   55.3220 C.3       1 D991        0.0000 
     35 C26        17.6280   -7.4140   55.9390 C.3       1 D991        0.0000 
     36 C27        20.0960   -7.2870   55.6750 C.3       1 D991        0.0000 
     37 C28        18.6620   -6.5330   53.7790 C.3       1 D991        0.0000 
     38 H          15.6551   -5.0223   54.6598 H         1 D991        0.0000 
     39 H          14.7356   -3.7977   52.7699 H         1 D991        0.0000 
     40 H          17.4968   -0.7019   53.4397 H         1 D991        0.0000 
     41 H          19.4181   -2.5261   55.9414 H         1 D991        0.0000 
     42 H          22.3012   -0.8160   52.5715 H         1 D991        0.0000 
     43 H          22.1274    1.5714   52.9324 H         1 D991        0.0000 
     44 H          20.4627    2.4543   54.4402 H         1 D991        0.0000 
     45 H          18.9092    0.9467   55.5483 H         1 D991        0.0000 
     46 H          14.9323   -3.9300   57.0397 H         1 D991        0.0000 
     47 H          15.9833   -2.5053   56.9635 H         1 D991        0.0000 
     48 H          15.4968   -4.1655   59.4623 H         1 D991        0.0000 
     49 H          14.6379   -2.6600   59.0937 H         1 D991        0.0000 
     50 H          15.1880   -3.2333   61.9215 H         1 D991        0.0000 
     51 H          14.5868   -1.7567   61.1481 H         1 D991        0.0000 
     52 H          16.1342   -2.0571   63.7014 H         1 D991        0.0000 
     53 H          16.4788    0.3974   63.7367 H         1 D991        0.0000 
     54 H          15.7902    0.5120   62.1080 H         1 D991        0.0000 
     55 H          18.5133   -0.2034   62.9478 H         1 D991        0.0000 
     56 H          17.9222    0.3351   61.3665 H         1 D991        0.0000 
     57 H          18.7655   -1.8333   60.9884 H         1 D991        0.0000 
     58 H          18.0339   -2.4750   62.4693 H         1 D991        0.0000 
     59 H          19.4924   -5.3218   56.8903 H         1 D991        0.0000 
     60 H          19.6586   -4.6485   55.2597 H         1 D991        0.0000 
     61 H          17.5467   -8.3232   55.5306 H         1 D991        0.0000 
     62 H          17.7505   -7.5446   56.9228 H         1 D991        0.0000 
     63 H          16.7484   -6.9557   55.8114 H         1 D991        0.0000 
     64 H          20.8782   -6.8078   55.2769 H         1 D991        0.0000 
     65 H          20.2435   -7.3182   56.6636 H         1 D991        0.0000 
     66 H          20.1303   -8.2299   55.3437 H         1 D991        0.0000 
     67 H          19.4741   -6.1232   53.3635 H         1 D991        0.0000 
     68 H          18.5472   -7.4374   53.3681 H         1 D991        0.0000 
     69 H          17.8777   -5.9809   53.4961 H         1 D991        0.0000 
     70 H          18.1177   -1.5919   57.3105 H         1 D991        0.0000 
@<TRIPOS>BOND
     1    2    1 1    
     2    5    1 ar   
     3   15    1 ar   
     4   23    2 am   
     5   33    2 1    
     6   16    3 1    
     7   70    3 1    
     8   18    4 1    
     9    9    5 ar   
    10   38    5 1    
    11   26    6 am   
    12   27    6 1    
    13   31    6 1    
    14   23    7 2    
    15   11    8 1    
    16   11    9 ar   
    17   39    9 1    
    18   26   10 2    
    19   13   11 ar   
    20   32   12 ar   
    21   15   13 ar   
    22   40   13 1    
    23   32   14 ar   
    24   16   15 1    
    25   17   16 1    
    26   41   16 1    
    27   18   17 ar   
    28   22   17 ar   
    29   19   18 ar   
    30   20   19 ar   
    31   42   19 1    
    32   21   20 ar   
    33   43   20 1    
    34   22   21 ar   
    35   44   21 1    
    36   45   22 1    
    37   24   23 1    
    38   25   24 1    
    39   46   24 1    
    40   47   24 1    
    41   26   25 1    
    42   48   25 1    
    43   49   25 1    
    44   28   27 1    
    45   50   27 1    
    46   51   27 1    
    47   29   28 1    
    48   32   28 1    
    49   52   28 1    
    50   30   29 1    
    51   53   29 1    
    52   54   29 1    
    53   31   30 1    
    54   55   30 1    
    55   56   30 1    
    56   57   31 1    
    57   58   31 1    
    58   34   33 1    
    59   59   33 1    
    60   60   33 1    
    61   35   34 1    
    62   36   34 1    
    63   37   34 1    
    64   61   35 1    
    65   62   35 1    
    66   63   35 1    
    67   64   36 1    
    68   65   36 1    
    69   66   36 1    
    70   67   37 1    
    71   68   37 1    
    72   69   37 1    
@<TRIPOS>SUBSTRUCTURE
     1 D991        1 GROUP   
@<TRIPOS>SET

