#    Name: 3kru_FMN_3_INTS_M
#    Modification time : Mon Mar 24 20:23:35 2014

@<TRIPOS>MOLECULE
3kru_FMN_3_INTS_M
   71     0    12     0     0
SMALL
NO_CHARGES


@<TRIPOS>ATOM
      1 N          92.3975    1.5030   62.4785 N.am      2 SEC2        0.0000 
      2 N          92.1070    2.5240   61.5380 N.am     10 SEL2        0.0000 
      3 N          92.6880    0.4820   63.4190 N.am      6 SEP2        0.0000 
      4 N          92.4545    2.2610   60.2120 N.am      2 SEC2        0.0000 
      5 N          92.8020    1.9980   58.8860 N.am      6 SEP2        0.0000 
      6 O          90.5140    1.8965   63.6145 O.2       1 ALC1        0.0000 
      7 O          90.1600    2.7430   62.5930 O.2       9 ALL1        0.0000 
      8 O          90.8680    1.0500   64.6360 O.2       5 ALP1        0.0000 
      9 N          88.0640    1.8385   64.6655 N.am      2 SEC2        0.0000 
     10 N          88.2400    2.9290   63.6170 N.am     10 SEL2        0.0000 
     11 N          87.8880    0.7480   65.7140 N.am      6 SEP2        0.0000 
     12 N          86.1480    4.0060   62.0140 N.am      2 SEC2        0.0000 
     13 N          87.2220    4.6460   61.5460 N.am     10 SEL2        0.0000 
     14 N          85.0740    3.3660   62.4820 N.am      6 SEP2        0.0000 
     15 CA         82.2670    4.3870   59.4490 C.3       4 GLC5        0.0000 
     16 CA         83.4300    6.2470   59.0660 C.3      12 GLL5        0.0000 
     17 CA         81.1040    2.5270   59.8320 C.3       8 GLP5        0.0000 
     18 CA         84.9040    6.1645   54.7460 C.3       4 GLC5        0.0000 
     19 CA         85.1970    6.6800   56.6700 C.3      12 GLL5        0.0000 
     20 CA         84.6110    5.6490   52.8220 C.3       8 GLP5        0.0000 
     21 CA         83.6995    7.7955   55.9695 C.3       4 GLC5        0.0000 
     22 CA         82.2020    8.9110   55.2690 C.3       8 GLP5        0.0000 
     23 CA         87.6755    2.8935   57.6470 C.3       4 GLC5        0.0000 
     24 CA         89.4760    3.6800   57.3140 C.3      12 GLL5        0.0000 
     25 CA         85.8750    2.1070   57.9800 C.3       8 GLP5        0.0000 
     26 N          90.0320    1.3515   57.3360 N.am      2 SEC2        0.0000 
     27 N          89.6630    2.4270   57.9940 N.am     10 SEL2        0.0000 
     28 N          90.4010    0.2760   56.6780 N.am      6 SEP2        0.0000 
     29 N          91.2325    2.2125   58.4400 N.am      2 SEC2        0.0000 
     30 O          89.0835    2.0275   59.0785 O.2       1 ALC1        0.0000 
     31 O          89.6630    2.4270   57.9940 O.2       9 ALL1        0.0000 
     32 O          88.5040    1.6280   60.1630 O.2       5 ALP1        0.0000 
     33 CA         91.3290    2.3520   54.8640 C.3       4 GLC5        0.0000 
     34 CA         90.3370    3.6300   56.0510 C.3      12 GLL5        0.0000 
     35 CA         92.3210    1.0740   53.6770 C.3       8 GLP5        0.0000 
     36 N          92.2630    2.7485   57.6695 N.am      2 SEC2        0.0000 
     37 N          91.7240    3.4990   56.4530 N.am     10 SEL2        0.0000 
     38 CA         91.5400    2.9420   53.7305 C.3       4 GLC5        0.0000 
     39 CA         90.7590    4.8100   53.7840 C.3      12 GLL5        0.0000 
     40 CA         91.9110    4.4540   52.2235 C.3       4 GLC5        0.0000 
     41 CA         93.0630    4.0980   50.6630 C.3       8 GLP5        0.0000 
     42 NZ         87.1930    5.5155   52.4880 N.4       3 LYC4        0.0000 
     43 NZ         87.7310    4.2560   52.8430 N.4      11 LYL4        0.0000 
     44 NZ         87.4600    7.7800   51.7780 N.4       7 LYP4        0.0000 
     45 N          86.5690    3.4605   52.7430 N.am      2 SEC2        0.0000 
     46 N          87.7310    4.2560   52.8430 N.am     10 SEL2        0.0000 
     47 N          85.4070    2.6650   52.6430 N.am      6 SEP2        0.0000 
     48 N          87.1930    5.5155   52.4880 N.am      2 SEC2        0.0000 
     49 N          86.6550    6.7750   52.1330 N.am      6 SEP2        0.0000 
     50 NZ         89.0575    6.1900   51.3000 N.4       3 LYC4        0.0000 
     51 NZ         89.3670    4.8220   51.0530 N.4      11 LYL4        0.0000 
     52 N          90.3315    4.7460   50.1000 N.am      2 SEC2        0.0000 
     53 N          89.3670    4.8220   51.0530 N.am     10 SEL2        0.0000 
     54 N          91.2960    4.6700   49.1470 N.am      6 SEP2        0.0000 
     55 N          89.0575    6.1900   51.3000 N.am      2 SEC2        0.0000 
     56 N          88.7480    7.5580   51.5470 N.am      6 SEP2        0.0000 
     57 N          88.1500    1.3535   52.1885 N.am      2 SEC2        0.0000 
     58 N          88.8030    2.4200   51.5420 N.am     10 SEL2        0.0000 
     59 N          87.4970    0.2870   52.8350 N.am      6 SEP2        0.0000 
     60 CA         85.9313    3.7050   60.4235 C.3       4 GLC5        0.0000 
     61 CA         86.7770    5.1620   60.3820 C.3      12 GLL5        0.0000 
     62 CA         85.7620    2.0980   60.5270 C.3       8 GLP5        0.0000 
     63 CA         85.1382    4.5515   61.9485 C.3       4 GLC5        0.0000 
     64 CA         84.1760    3.7910   63.5770 C.3       8 GLP5        0.0000 
     65 CA         84.5785    4.1130   59.1385 C.3       4 GLC5        0.0000 
     66 CA         84.9060    5.9530   59.0760 C.3      12 GLL5        0.0000 
     67 CA         84.9890    2.1260   59.2060 C.3       8 GLP5        0.0000 
     68 CA         86.4500    3.8813   58.3186 C.3       4 GLC5        0.0000 
     69 CA         85.7380    6.1470   57.9820 C.3      12 GLL5        0.0000 
     70 CA         89.6337    1.5855   56.4102 C.3       4 GLC5        0.0000 
     71 CA         89.3610   -0.4840   56.1380 C.3       8 GLP5        0.0000 
@<TRIPOS>BOND
@<TRIPOS>SUBSTRUCTURE
     1 ALC1        6 GROUP        1 X    ALC  0     ROOT ALC X 1
     2 SEC2        1 GROUP        1 X    SEC  0     **** SEC X 2
     3 LYC4       42 GROUP        1 X    LYC  0     **** LYC X 4
     4 GLC5       15 GROUP        1 X    GLC  0     **** GLC X 6
     5 ALP1        8 GROUP        1 Y    ALP  0     ROOT ALP Y 8
     6 SEP2        3 GROUP        1 Y    SEP  0     **** SEP Y 9
     7 LYP4       44 GROUP        1 Y    LYP  0     **** LYP Y 11
     8 GLP5       17 GROUP        1 Y    GLP  0     **** GLP Y 13
     9 ALL1        7 GROUP        1 Z    ALL  0     ROOT ALL Z 15
    10 SEL2        2 GROUP        1 Z    SEL  0     **** SEL Z 16
    11 LYL4       43 GROUP        1 Z    LYL  0     **** LYL Z 18
    12 GLL5       16 GROUP        1 Z    GLL  0     **** GLL Z 20
@<TRIPOS>SET

