#    Name: 3kru_FMN_3_ligand
#    Modification time : Mon Mar 24 20:23:35 2014

@<TRIPOS>MOLECULE
3kru_FMN_3_ligand
   50    52     1     0     0
SMALL
NO_CHARGES


@<TRIPOS>ATOM
      1 N1         90.5660    3.7560   60.5220 N.2       1 FMN401      0.0000 
      2 C2         90.9760    2.9920   61.5510 C.2       1 FMN401      0.0000 
      3 O2         92.1070    2.5240   61.5380 O.2       1 FMN401      0.0000 
      4 N3         90.1600    2.7430   62.5930 N.am      1 FMN401      0.0000 
      5 C4         88.9130    3.2360   62.6240 C.2       1 FMN401      0.0000 
      6 O4         88.2400    2.9290   63.6170 O.2       1 FMN401      0.0000 
      7 C4A        88.4560    4.0610   61.5710 C.2       1 FMN401      0.0000 
      8 N5         87.2220    4.6460   61.5460 N.2       1 FMN401      0.0000 
      9 C5A        86.7770    5.1620   60.3820 C.ar      1 FMN401      0.0000 
     10 C6         85.4240    5.4620   60.2580 C.ar      1 FMN401      0.0000 
     11 C7         84.9060    5.9530   59.0760 C.ar      1 FMN401      0.0000 
     12 C7M        83.4300    6.2470   59.0660 C.3       1 FMN401      0.0000 
     13 C8         85.7380    6.1470   57.9820 C.ar      1 FMN401      0.0000 
     14 C8M        85.1970    6.6800   56.6700 C.3       1 FMN401      0.0000 
     15 C9         87.0880    5.8290   58.0850 C.ar      1 FMN401      0.0000 
     16 C9A        87.6370    5.3230   59.2810 C.ar      1 FMN401      0.0000 
     17 N10        88.9580    5.0130   59.4230 N.pl3     1 FMN401      0.0000 
     18 C10        89.3280    4.3040   60.5080 C.2       1 FMN401      0.0000 
     19 C1'        89.8340    4.8730   58.2360 C.3       1 FMN401      0.0000 
     20 C2'        89.4760    3.6800   57.3140 C.3       1 FMN401      0.0000 
     21 O2'        89.6630    2.4270   57.9940 O.3       1 FMN401      0.0000 
     22 C3'        90.3370    3.6300   56.0510 C.3       1 FMN401      0.0000 
     23 O3'        91.7240    3.4990   56.4530 O.3       1 FMN401      0.0000 
     24 C4'        90.1610    4.9010   55.1960 C.3       1 FMN401      0.0000 
     25 O4'        88.7700    5.2320   55.0670 O.3       1 FMN401      0.0000 
     26 C5'        90.7590    4.8100   53.7840 C.3       1 FMN401      0.0000 
     27 O5'        90.2070    3.7000   53.1000 O.3       1 FMN401      0.0000 
     28 P          88.9640    3.8020   52.0860 P.3       1 FMN401      0.0000 
     29 O1P        87.7310    4.2560   52.8430 O.co2     1 FMN401      0.0000 
     30 O2P        89.3670    4.8220   51.0530 O.co2     1 FMN401      0.0000 
     31 O3P        88.8030    2.4200   51.5420 O.co2     1 FMN401      0.0000 
     32 H          90.5068    2.1549   63.3905 H         1 FMN401      0.0000 
     33 H          84.7966    5.3124   61.0713 H         1 FMN401      0.0000 
     34 H          87.7114    5.9641   57.2688 H         1 FMN401      0.0000 
     35 H          90.8886    4.7493   58.5497 H         1 FMN401      0.0000 
     36 H          89.7983    5.7935   57.6219 H         1 FMN401      0.0000 
     37 H          88.4421    3.7870   57.0057 H         1 FMN401      0.0000 
     38 H          90.0330    2.7800   55.4648 H         1 FMN401      0.0000 
     39 H          90.6780    5.7234   55.7134 H         1 FMN401      0.0000 
     40 H          91.8476    4.7294   53.8943 H         1 FMN401      0.0000 
     41 H          90.5443    5.7585   53.2760 H         1 FMN401      0.0000 
     42 H          83.1827    6.9300   59.7533 H         1 FMN401      0.0000 
     43 H          83.1275    6.5995   58.1804 H         1 FMN401      0.0000 
     44 H          82.8871    5.4292   59.2568 H         1 FMN401      0.0000 
     45 H          85.9146    6.7626   55.9785 H         1 FMN401      0.0000 
     46 H          84.4907    6.0830   56.2896 H         1 FMN401      0.0000 
     47 H          84.7880    7.5862   56.7777 H         1 FMN401      0.0000 
     48 H          89.0379    2.4601   58.7739 H         1 FMN401      0.0000 
     49 H          92.1109    4.4153   56.3498 H         1 FMN401      0.0000 
     50 H          88.3891    4.5223   54.4744 H         1 FMN401      0.0000 
@<TRIPOS>BOND
     1    2    1 1    
     2   18    1 2    
     3    3    2 2    
     4    4    2 am   
     5    5    4 am   
     6   32    4 1    
     7    6    5 2    
     8    7    5 1    
     9    8    7 2    
    10   18    7 1    
    11    9    8 1    
    12   10    9 ar   
    13   16    9 ar   
    14   11   10 ar   
    15   33   10 1    
    16   12   11 1    
    17   13   11 ar   
    18   42   12 1    
    19   43   12 1    
    20   44   12 1    
    21   14   13 1    
    22   15   13 ar   
    23   45   14 1    
    24   46   14 1    
    25   47   14 1    
    26   16   15 ar   
    27   34   15 1    
    28   17   16 1    
    29   18   17 1    
    30   19   17 1    
    31   20   19 1    
    32   35   19 1    
    33   36   19 1    
    34   21   20 1    
    35   22   20 1    
    36   37   20 1    
    37   48   21 1    
    38   23   22 1    
    39   24   22 1    
    40   38   22 1    
    41   49   23 1    
    42   25   24 1    
    43   26   24 1    
    44   39   24 1    
    45   50   25 1    
    46   27   26 1    
    47   40   26 1    
    48   41   26 1    
    49   28   27 1    
    50   29   28 ar   
    51   30   28 ar   
    52   31   28 ar   
@<TRIPOS>SUBSTRUCTURE
     1 FMN401      1 GROUP   
@<TRIPOS>SET

