#    Name: 1hsz_NAD_1_INTS_M
#    Modification time : Tue Mar 25 05:46:06 2014

@<TRIPOS>MOLECULE
1hsz_NAD_1_INTS_M
  120     0    12     0     0
SMALL
NO_CHARGES


@<TRIPOS>ATOM
      1 NZ          2.1555  -14.7875  -20.7185 N.4       3 LYC4        0.0000 
      2 NZ          3.0870  -14.0170  -19.7520 N.4      11 LYL4        0.0000 
      3 NZ          0.5090  -14.4570  -21.8850 N.4       7 LYP4        0.0000 
      4 N           1.9855  -13.6670  -20.5315 N.am      2 SEC2        0.0000 
      5 N           3.0870  -14.0170  -19.7520 N.am     10 SEL2        0.0000 
      6 N           0.8840  -13.3170  -21.3110 N.am      6 SEP2        0.0000 
      7 N           2.1555  -14.7875  -20.7185 N.am      2 SEC2        0.0000 
      8 N           1.2240  -15.5580  -21.6850 N.am      6 SEP2        0.0000 
      9 CA          4.8935  -15.1750  -14.1780 C.3       4 GLC5        0.0000 
     10 CA          4.3370  -15.5600  -15.9050 C.3      12 GLL5        0.0000 
     11 CA          5.4500  -14.7900  -12.4510 C.3       8 GLP5        0.0000 
     12 N           6.7165  -17.5675  -17.7285 N.am      2 SEC2        0.0000 
     13 N           5.7900  -17.3680  -16.6450 N.am     10 SEL2        0.0000 
     14 N           7.6430  -17.7670  -18.8120 N.am      6 SEP2        0.0000 
     15 O           6.0705  -17.7600  -15.4065 O.2       1 ALC1        0.0000 
     16 O           5.7900  -17.3680  -16.6450 O.2       9 ALL1        0.0000 
     17 O           6.3510  -18.1520  -14.1680 O.2       5 ALP1        0.0000 
     18 O           4.4270  -19.4645  -15.3255 O.2       1 ALC1        0.0000 
     19 O           3.8270  -19.0320  -16.4350 O.2       9 ALL1        0.0000 
     20 O           5.0270  -19.8970  -14.2160 O.2       5 ALP1        0.0000 
     21 CA          4.3275  -16.0075  -13.6690 C.3       4 GLC5        0.0000 
     22 CA          3.2050  -17.2250  -14.8870 C.3      12 GLL5        0.0000 
     23 CA          1.7045  -15.7090  -14.4490 C.3       4 GLC5        0.0000 
     24 CA          0.2040  -14.1930  -14.0110 C.3       8 GLP5        0.0000 
     25 CA         -0.8210  -17.3690  -10.5515 C.3       4 GLC5        0.0000 
     26 CA         -0.5540  -18.6510  -12.1840 C.3      12 GLL5        0.0000 
     27 CA         -1.0880  -16.0870   -8.9190 C.3       8 GLP5        0.0000 
     28 CA          3.4995  -19.3110  -11.1665 C.3       4 GLC5        0.0000 
     29 CA          1.5850  -18.7080  -11.0740 C.3      12 GLL5        0.0000 
     30 CA          5.4140  -19.9140  -11.2590 C.3       8 GLP5        0.0000 
     31 CA          1.2005  -20.5400  -11.2600 C.3       4 GLC5        0.0000 
     32 CA          0.8160  -22.3720  -11.4460 C.3       8 GLP5        0.0000 
     33 CA          1.5925  -16.8650  -11.2250 C.3       4 GLC5        0.0000 
     34 CA          1.6000  -15.0220  -11.3760 C.3       8 GLP5        0.0000 
     35 CA          0.2485  -17.3975   -9.9965 C.3       4 GLC5        0.0000 
     36 N           3.0010  -19.8830  -12.1695 N.am      2 SEC2        0.0000 
     37 N           2.2660  -18.3150  -12.2070 N.am     10 SEL2        0.0000 
     38 N           3.7360  -21.4510  -12.1320 N.am      6 SEP2        0.0000 
     39 CA          1.4160  -19.9335  -13.5920 C.3       4 GLC5        0.0000 
     40 CA          1.4650  -18.1070  -13.3130 C.3      12 GLL5        0.0000 
     41 CA          1.3670  -21.7600  -13.8710 C.3       8 GLP5        0.0000 
     42 NZ          6.4180   -9.7110  -20.7760 N.4       3 LYC4        0.0000 
     43 NZ          5.2360   -9.8820  -20.1040 N.4      11 LYL4        0.0000 
     44 NZ          8.2660   -8.4850  -21.8950 N.4       7 LYP4        0.0000 
     45 N           4.2860   -9.4855  -21.3380 N.am      2 SEC2        0.0000 
     46 N           5.2360   -9.8820  -20.1040 N.am     10 SEL2        0.0000 
     47 N           3.3360   -9.0890  -22.5720 N.am      6 SEP2        0.0000 
     48 N           6.4180   -9.7110  -20.7760 N.am      2 SEC2        0.0000 
     49 N           7.6000   -9.5400  -21.4480 N.am      6 SEP2        0.0000 
     50 N           7.7240  -10.1940  -17.7620 N.am      2 SEC2        0.0000 
     51 N           6.3990  -10.6760  -18.0970 N.am     10 SEL2        0.0000 
     52 N           9.0490   -9.7120  -17.4270 N.am      6 SEP2        0.0000 
     53 CA          2.7225  -10.1665  -18.8445 C.3       4 GLC5        0.0000 
     54 CA          3.4160   -9.9690  -16.7820 C.3      12 GLL5        0.0000 
     55 CA          2.0290  -10.3640  -20.9070 C.3       8 GLP5        0.0000 
     56 CA          5.2495   -8.8430  -17.2675 C.3       4 GLC5        0.0000 
     57 CA          7.0830   -7.7170  -17.7530 C.3       8 GLP5        0.0000 
     58 CA          4.7205   -9.5540  -15.0250 C.3       4 GLC5        0.0000 
     59 CA          6.0250   -9.1390  -13.2680 C.3       8 GLP5        0.0000 
     60 CA          1.0315   -9.8435  -18.9505 C.3       4 GLC5        0.0000 
     61 CA          1.3590   -8.6950  -17.4260 C.3      12 GLL5        0.0000 
     62 CA          0.7040  -10.9920  -20.4750 C.3       8 GLP5        0.0000 
     63 N          -0.8575   -8.8715  -17.8890 N.am      2 SEC2        0.0000 
     64 N           0.1010   -8.6930  -16.7590 N.am     10 SEL2        0.0000 
     65 N          -1.8160   -9.0500  -19.0190 N.am      6 SEP2        0.0000 
     66 N          -0.3630   -7.5155  -15.8080 N.am      2 SEC2        0.0000 
     67 N          -0.8270   -6.3380  -14.8570 N.am      6 SEP2        0.0000 
     68 O           0.0480   -9.8670  -16.1615 O.2       1 ALC1        0.0000 
     69 O           0.1010   -8.6930  -16.7590 O.2       9 ALL1        0.0000 
     70 O          -0.0050  -11.0410  -15.5640 O.2       5 ALP1        0.0000 
     71 CA          1.8415   -8.8265  -19.4415 C.3       4 GLC5        0.0000 
     72 CA          1.6540   -7.2890  -17.9760 C.3      12 GLL5        0.0000 
     73 CA          1.2695   -6.1160  -19.7825 C.3       4 GLC5        0.0000 
     74 CA          0.8850   -4.9430  -21.5890 C.3       8 GLP5        0.0000 
     75 N           0.7935   -5.9005  -19.2540 N.am      2 SEC2        0.0000 
     76 N           0.4070   -6.6660  -18.3150 N.am     10 SEL2        0.0000 
     77 N           1.1800   -5.1350  -20.1930 N.am      6 SEP2        0.0000 
     78 CA          1.5825   -6.8960  -15.0705 C.3       4 GLC5        0.0000 
     79 CA          2.3030   -6.5530  -16.7590 C.3      12 GLL5        0.0000 
     80 CA          0.8620   -7.2390  -13.3820 C.3       8 GLP5        0.0000 
     81 CA          4.1400   -4.7615  -14.4490 C.3       4 GLC5        0.0000 
     82 CA          3.0640   -4.3070  -16.2580 C.3      12 GLL5        0.0000 
     83 CA          5.2160   -5.2160  -12.6400 C.3       8 GLP5        0.0000 
     84 CA          1.0960   -4.2135  -16.5180 C.3       4 GLC5        0.0000 
     85 CA         -0.8720   -4.1200  -16.7780 C.3       8 GLP5        0.0000 
     86 N           5.1235    0.0365  -15.6035 N.am      2 SEC2        0.0000 
     87 N           4.2000   -0.9960  -16.0310 N.am     10 SEL2        0.0000 
     88 N           6.0470    1.0690  -15.1760 N.am      6 SEP2        0.0000 
     89 O           2.7975   -3.4945  -13.9815 O.2       1 ALC1        0.0000 
     90 O           3.2260   -2.0550  -14.4230 O.2       9 ALL1        0.0000 
     91 O           2.3690   -4.9340  -13.5400 O.2       5 ALP1        0.0000 
     92 O           3.2850   -1.2435  -13.2035 O.2       1 ALC1        0.0000 
     93 O           3.3440   -0.4320  -11.9840 O.2       5 ALP1        0.0000 
     94 CA          6.0995  -14.3957  -17.0450 C.3       4 GLC5        0.0000 
     95 CA          3.9850  -14.2950  -16.6890 C.3      12 GLL5        0.0000 
     96 CA          8.0380  -13.8640  -17.7930 C.3       8 GLP5        0.0000 
     97 CA         -0.1438  -20.1330  -13.5735 C.3       4 GLC5        0.0000 
     98 CA          0.1110  -18.2550  -13.3240 C.3      12 GLL5        0.0000 
     99 CA         -0.0660  -21.8130  -14.3930 C.3       8 GLP5        0.0000 
    100 CA         -1.7822  -17.1725  -12.9155 C.3       4 GLC5        0.0000 
    101 CA         -3.3430  -15.8920  -13.0770 C.3       8 GLP5        0.0000 
    102 CA          1.1109  -16.6510  -12.2048 C.3       4 GLC5        0.0000 
    103 CA          2.1505  -10.6802  -15.1982 C.3       4 GLC5        0.0000 
    104 CA          1.3580  -11.9530  -13.8190 C.3       8 GLP5        0.0000 
    105 CA          1.3883   -8.0048  -15.1408 C.3       4 GLC5        0.0000 
    106 CA          2.4700   -8.8460  -16.3730 C.3      12 GLL5        0.0000 
    107 CA         -0.3197   -7.9775  -18.7445 C.3       4 GLC5        0.0000 
    108 CA         -2.1460   -7.9630  -19.7880 C.3       8 GLP5        0.0000 
    109 CA          0.5533   -5.5205  -17.0727 C.3       4 GLC5        0.0000 
    110 CA          5.1895   -3.4225  -15.7192 C.3       4 GLC5        0.0000 
    111 CA          6.9480   -3.0820  -15.0730 C.3       8 GLP5        0.0000 
    112 CA          5.7420   -3.2713  -19.3017 C.3       4 GLC5        0.0000 
    113 CA          4.6980   -3.1970  -17.5020 C.3      12 GLL5        0.0000 
    114 CA          6.7020   -2.8290  -20.7080 C.3       8 GLP5        0.0000 
    115 CA          5.8650   -3.3978  -16.4843 C.3       4 GLC5        0.0000 
    116 CA          4.8660   -4.2300  -18.2890 C.3      12 GLL5        0.0000 
    117 CA          4.5995   -5.5455  -19.9285 C.3       4 GLC5        0.0000 
    118 CA          4.7280   -6.3030  -21.7000 C.3       8 GLP5        0.0000 
    119 CA          5.7770   -6.2525  -17.9550 C.3       4 GLC5        0.0000 
    120 CA          4.0760   -5.3460  -18.0250 C.3      12 GLL5        0.0000 
@<TRIPOS>BOND
@<TRIPOS>SUBSTRUCTURE
     1 ALC1       15 GROUP        1 X    ALC  0     ROOT ALC X 1
     2 SEC2        4 GROUP        1 X    SEC  0     **** SEC X 2
     3 LYC4        1 GROUP        1 X    LYC  0     **** LYC X 4
     4 GLC5        9 GROUP        1 X    GLC  0     **** GLC X 6
     5 ALP1       17 GROUP        1 Y    ALP  0     ROOT ALP Y 8
     6 SEP2        6 GROUP        1 Y    SEP  0     **** SEP Y 9
     7 LYP4        3 GROUP        1 Y    LYP  0     **** LYP Y 11
     8 GLP5       11 GROUP        1 Y    GLP  0     **** GLP Y 13
     9 ALL1       16 GROUP        1 Z    ALL  0     ROOT ALL Z 15
    10 SEL2        5 GROUP        1 Z    SEL  0     **** SEL Z 16
    11 LYL4        2 GROUP        1 Z    LYL  0     **** LYL Z 18
    12 GLL5       10 GROUP        1 Z    GLL  0     **** GLL Z 20
@<TRIPOS>SET

