#    Name: 1hsz_NAD_1_ligand
#    Modification time : Tue Mar 25 05:46:06 2014

@<TRIPOS>MOLECULE
1hsz_NAD_1_ligand
   70    74     1     0     0
SMALL
NO_CHARGES


@<TRIPOS>ATOM
      1 PA          4.3360  -13.3940  -19.2220 P.3       1 NAD1377     0.0000 
      2 O1A         3.0870  -14.0170  -19.7520 O.co2     1 NAD1377     0.0000 
      3 O2A         5.3830  -13.5110  -20.2360 O.co2     1 NAD1377     0.0000 
      4 O5B         4.8630  -14.1870  -17.8980 O.3       1 NAD1377     0.0000 
      5 C5B         3.9850  -14.2950  -16.6890 C.3       1 NAD1377     0.0000 
      6 C4B         4.3370  -15.5600  -15.9050 C.3       1 NAD1377     0.0000 
      7 O4B         3.2910  -15.8170  -14.9510 O.3       1 NAD1377     0.0000 
      8 C3B         4.5210  -16.7550  -16.8780 C.3       1 NAD1377     0.0000 
      9 O3B         5.7900  -17.3680  -16.6450 O.3       1 NAD1377     0.0000 
     10 C2B         3.4070  -17.6600  -16.3730 C.3       1 NAD1377     0.0000 
     11 O2B         3.8270  -19.0320  -16.4350 O.3       1 NAD1377     0.0000 
     12 C1B         3.2050  -17.2250  -14.8870 C.3       1 NAD1377     0.0000 
     13 N9A         1.8770  -17.5800  -14.5060 N.pl3     1 NAD1377     0.0000 
     14 C8A         0.7040  -17.4350  -15.2410 C.2       1 NAD1377     0.0000 
     15 N7A        -0.4210  -17.8510  -14.5320 N.2       1 NAD1377     0.0000 
     16 C5A         0.1110  -18.2550  -13.3240 C.ar      1 NAD1377     0.0000 
     17 C6A        -0.5540  -18.6510  -12.1840 C.ar      1 NAD1377     0.0000 
     18 N6A        -1.8700  -18.8620  -12.1430 N.pl3     1 NAD1377     0.0000 
     19 N1A         0.2050  -18.8660  -11.0560 N.ar      1 NAD1377     0.0000 
     20 C2A         1.5850  -18.7080  -11.0740 C.ar      1 NAD1377     0.0000 
     21 N3A         2.2660  -18.3150  -12.2070 N.ar      1 NAD1377     0.0000 
     22 C4A         1.4650  -18.1070  -13.3130 C.ar      1 NAD1377     0.0000 
     23 O3          4.0450  -11.8320  -18.8420 O.3       1 NAD1377     0.0000 
     24 PN          5.0780  -10.6150  -18.8010 P.3       1 NAD1377     0.0000 
     25 O1N         5.2360   -9.8820  -20.1040 O.co2     1 NAD1377     0.0000 
     26 O2N         6.3990  -10.6760  -18.0970 O.co2     1 NAD1377     0.0000 
     27 O5D         4.1610   -9.5420  -17.9550 O.3       1 NAD1377     0.0000 
     28 C5D         3.4160   -9.9690  -16.7820 C.3       1 NAD1377     0.0000 
     29 C4D         2.4700   -8.8460  -16.3730 C.3       1 NAD1377     0.0000 
     30 O4D         3.1680   -7.6040  -16.2890 O.3       1 NAD1377     0.0000 
     31 C3D         1.3590   -8.6950  -17.4260 C.3       1 NAD1377     0.0000 
     32 O3D         0.1010   -8.6930  -16.7590 O.3       1 NAD1377     0.0000 
     33 C2D         1.6540   -7.2890  -17.9760 C.3       1 NAD1377     0.0000 
     34 O2D         0.4070   -6.6660  -18.3150 O.3       1 NAD1377     0.0000 
     35 C1D         2.3030   -6.5530  -16.7590 C.3       1 NAD1377     0.0000 
     36 N1N         3.1840   -5.3800  -17.0110 N.pl3     1 NAD1377     0.0000 
     37 C2N         3.0640   -4.3070  -16.2580 C.ar      1 NAD1377     0.0000 
     38 C3N         3.7980   -3.2190  -16.4730 C.ar      1 NAD1377     0.0000 
     39 C7N         3.7070   -2.0820  -15.6570 C.2       1 NAD1377     0.0000 
     40 O7N         4.2000   -0.9960  -16.0310 O.2       1 NAD1377     0.0000 
     41 N7N         3.2260   -2.0550  -14.4230 N.am      1 NAD1377     0.0000 
     42 C4N         4.6980   -3.1970  -17.5020 C.ar      1 NAD1377     0.0000 
     43 C5N         4.8660   -4.2300  -18.2890 C.ar      1 NAD1377     0.0000 
     44 C6N         4.0760   -5.3460  -18.0250 C.ar      1 NAD1377     0.0000 
     45 H           2.9408  -14.3465  -16.9886 H         1 NAD1377     0.0000 
     46 H           4.1283  -13.4308  -16.0444 H         1 NAD1377     0.0000 
     47 H           5.2820  -15.3891  -15.4086 H         1 NAD1377     0.0000 
     48 H           4.3218  -16.4456  -17.8298 H         1 NAD1377     0.0000 
     49 H           2.5249  -17.4545  -16.8983 H         1 NAD1377     0.0000 
     50 H           3.9465  -17.6603  -14.3183 H         1 NAD1377     0.0000 
     51 H           0.6722  -17.0822  -16.1496 H         1 NAD1377     0.0000 
     52 H          -2.2490  -19.1053  -11.2502 H         1 NAD1377     0.0000 
     53 H          -2.3595  -18.7579  -13.0088 H         1 NAD1377     0.0000 
     54 H           2.1223  -18.8945  -10.1959 H         1 NAD1377     0.0000 
     55 H           4.0818  -10.1780  -15.9468 H         1 NAD1377     0.0000 
     56 H           2.8233  -10.8570  -16.9933 H         1 NAD1377     0.0000 
     57 H           2.0057   -9.1034  -15.4410 H         1 NAD1377     0.0000 
     58 H           1.4852   -9.3927  -18.1631 H         1 NAD1377     0.0000 
     59 H           2.3412   -7.3525  -18.7417 H         1 NAD1377     0.0000 
     60 H           1.5588   -6.3694  -16.0386 H         1 NAD1377     0.0000 
     61 H           2.3661   -4.3041  -15.4582 H         1 NAD1377     0.0000 
     62 H           3.1843   -1.1562  -13.9866 H         1 NAD1377     0.0000 
     63 H           2.9482   -2.9358  -14.0397 H         1 NAD1377     0.0000 
     64 H           5.2596   -2.3131  -17.6449 H         1 NAD1377     0.0000 
     65 H           5.5274   -4.2563  -19.0628 H         1 NAD1377     0.0000 
     66 H           4.1913   -6.1853  -18.6487 H         1 NAD1377     0.0000 
     67 H           5.7848  -17.6130  -15.6755 H         1 NAD1377     0.0000 
     68 H           4.2121  -19.2257  -15.5327 H         1 NAD1377     0.0000 
     69 H          -0.1833   -9.6515  -16.7401 H         1 NAD1377     0.0000 
     70 H          -0.2698   -7.1023  -17.7220 H         1 NAD1377     0.0000 
@<TRIPOS>BOND
     1    2    1 ar   
     2    3    1 ar   
     3    4    1 1    
     4   23    1 1    
     5    5    4 1    
     6    6    5 1    
     7   45    5 1    
     8   46    5 1    
     9    7    6 1    
    10    8    6 1    
    11   47    6 1    
    12   12    7 1    
    13    9    8 1    
    14   10    8 1    
    15   48    8 1    
    16   67    9 1    
    17   11   10 1    
    18   12   10 1    
    19   49   10 1    
    20   68   11 1    
    21   13   12 1    
    22   50   12 1    
    23   14   13 1    
    24   22   13 1    
    25   15   14 2    
    26   51   14 1    
    27   16   15 1    
    28   17   16 ar   
    29   22   16 ar   
    30   18   17 1    
    31   19   17 ar   
    32   52   18 1    
    33   53   18 1    
    34   20   19 ar   
    35   21   20 ar   
    36   54   20 1    
    37   22   21 ar   
    38   24   23 1    
    39   25   24 ar   
    40   26   24 ar   
    41   27   24 1    
    42   28   27 1    
    43   29   28 1    
    44   55   28 1    
    45   56   28 1    
    46   30   29 1    
    47   31   29 1    
    48   57   29 1    
    49   35   30 1    
    50   32   31 1    
    51   33   31 1    
    52   58   31 1    
    53   69   32 1    
    54   34   33 1    
    55   35   33 1    
    56   59   33 1    
    57   70   34 1    
    58   36   35 1    
    59   60   35 1    
    60   37   36 ar   
    61   44   36 ar   
    62   38   37 ar   
    63   61   37 1    
    64   39   38 1    
    65   42   38 ar   
    66   40   39 2    
    67   41   39 am   
    68   62   41 1    
    69   63   41 1    
    70   43   42 ar   
    71   64   42 1    
    72   44   43 ar   
    73   65   43 1    
    74   66   44 1    
@<TRIPOS>SUBSTRUCTURE
     1 NAD1377     1 GROUP   
@<TRIPOS>SET

