#    Name: 1mcz_TDP_9_INTS_M
#    Modification time : Tue Mar 25 11:36:52 2014

@<TRIPOS>MOLECULE
1mcz_TDP_9_INTS_M
   83     0    12     0     0
SMALL
NO_CHARGES


@<TRIPOS>ATOM
      1 CA         13.1830   56.0250   96.9455 C.3       4 GLC5        0.0000 
      2 CA         12.9360   54.3660   96.3150 C.3      12 GLL5        0.0000 
      3 CA         13.4300   57.6840   97.5760 C.3       8 GLP5        0.0000 
      4 CA         12.6740   52.3310   95.5795 C.3       4 GLC5        0.0000 
      5 CA         12.4120   50.2960   94.8440 C.3       8 GLP5        0.0000 
      6 CA         13.2005   53.9935   94.2015 C.3       4 GLC5        0.0000 
      7 CA         13.4650   53.6210   92.0880 C.3       8 GLP5        0.0000 
      8 N          13.6325   52.7710   98.4675 N.am      2 SEC2        0.0000 
      9 N          14.7460   53.1990   97.4230 N.am     10 SEL2        0.0000 
     10 N          12.5190   52.3430   99.5120 N.am      6 SEP2        0.0000 
     11 CA         15.3755   53.4185   99.3345 C.3       4 GLC5        0.0000 
     12 CA         16.0840   53.0370   97.7910 C.3      12 GLL5        0.0000 
     13 CA         14.6670   53.8000  100.8780 C.3       8 GLP5        0.0000 
     14 O          15.5750   50.9685   98.9180 O.2       1 ALC1        0.0000 
     15 O          16.3550   51.9810   98.5180 O.2       9 ALL1        0.0000 
     16 O          14.7950   49.9560   99.3180 O.2       5 ALP1        0.0000 
     17 CA         16.3690   54.4590   99.2105 C.3       4 GLC5        0.0000 
     18 CA         17.0800   53.9880   97.3810 C.3      12 GLL5        0.0000 
     19 CA         15.6580   54.9300  101.0400 C.3       8 GLP5        0.0000 
     20 CA         17.3330   54.1575   94.9995 C.3       4 GLC5        0.0000 
     21 CA         16.6240   55.0280   96.6210 C.3      12 GLL5        0.0000 
     22 CA         18.0420   53.2870   93.3780 C.3       8 GLP5        0.0000 
     23 CA         19.9660   53.8640   96.7050 C.3       4 GLC5        0.0000 
     24 CA         18.5490   53.8570   97.7490 C.3      12 GLL5        0.0000 
     25 CA         21.3830   53.8710   95.6610 C.3       8 GLP5        0.0000 
     26 CA         18.1955   52.6485   96.4695 C.3       4 GLC5        0.0000 
     27 CA         17.8420   51.4400   95.1900 C.3       8 GLP5        0.0000 
     28 CA         18.3425   52.9745  103.0480 C.3       4 GLC5        0.0000 
     29 CA         19.3420   53.5230  101.6290 C.3      12 GLL5        0.0000 
     30 CA         17.3430   52.4260  104.4670 C.3       8 GLP5        0.0000 
     31 CA         20.8320   53.2565  102.9400 C.3       4 GLC5        0.0000 
     32 CA         22.3220   52.9900  104.2510 C.3       8 GLP5        0.0000 
     33 CA         19.1055   58.1780  100.4790 C.3       4 GLC5        0.0000 
     34 CA         18.8210   56.7080   99.2540 C.3      12 GLL5        0.0000 
     35 CA         19.3900   59.6480  101.7040 C.3       8 GLP5        0.0000 
     36 Zn         19.1720   58.4240  107.0960 Zn        3 ZIC7        0.0000 
     37 Zn         18.7570   57.1210  106.8520 Zn       11 ZIL7        0.0000 
     38 Zn         19.5870   59.7270  107.3400 Zn        7 ZIP7        0.0000 
     39 Zn         18.6860   59.3770  106.5100 Zn        3 ZIC7        0.0000 
     40 Zn         17.7850   59.0270  105.6800 Zn       11 ZIL7        0.0000 
     41 N          16.9090   59.9140  105.5360 N.am      2 SEC2        0.0000 
     42 N          17.7850   59.0270  105.6800 N.am     10 SEL2        0.0000 
     43 N          16.0330   60.8010  105.3920 N.am      6 SEP2        0.0000 
     44 N          15.6065   57.7825  104.9190 N.am      2 SEC2        0.0000 
     45 N          16.5740   56.8410  105.7470 N.am     10 SEL2        0.0000 
     46 N          14.6390   58.7240  104.0910 N.am      6 SEP2        0.0000 
     47 N          15.6120   56.2830  104.9350 N.am      2 SEC2        0.0000 
     48 N          14.6500   55.7250  104.1230 N.am      6 SEP2        0.0000 
     49 Zn         20.3530   58.5610  107.4475 Zn        3 ZIC7        0.0000 
     50 Zn         21.1190   57.3950  107.5550 Zn       11 ZIL7        0.0000 
     51 N          21.6585   56.0670  108.4445 N.am      2 SEC2        0.0000 
     52 N          21.1190   57.3950  107.5550 N.am     10 SEL2        0.0000 
     53 N          22.1980   54.7390  109.3340 N.am      6 SEP2        0.0000 
     54 N          21.5120   58.3415  108.7435 N.am      2 SEC2        0.0000 
     55 N          21.9050   59.2880  109.9320 N.am      6 SEP2        0.0000 
     56 N          19.4215   54.5660  106.5020 N.am      2 SEC2        0.0000 
     57 N          19.7950   55.1700  107.8490 N.am     10 SEL2        0.0000 
     58 N          19.0480   53.9620  105.1550 N.am      6 SEP2        0.0000 
     59 N          20.1450   53.9580  107.9015 N.am      2 SEC2        0.0000 
     60 N          20.4950   52.7460  107.9540 N.am      6 SEP2        0.0000 
     61 N          20.9965   54.9545  108.5915 N.am      2 SEC2        0.0000 
     62 N          21.9490   55.5015  105.4135 N.am      2 SEC2        0.0000 
     63 N          20.6150   55.9490  105.6760 N.am     10 SEL2        0.0000 
     64 N          23.2830   55.0540  105.1510 N.am      6 SEP2        0.0000 
     65 CA         13.4685   54.3462   98.5565 C.3       4 GLC5        0.0000 
     66 CA         14.3780   54.2430   96.6790 C.3      12 GLL5        0.0000 
     67 CA         13.2800   54.3880  100.6160 C.3       8 GLP5        0.0000 
     68 CA         17.2120   52.4763   96.3880 C.3       4 GLC5        0.0000 
     69 CA         17.4200   54.1310  100.9365 C.3       4 GLC5        0.0000 
     70 CA         19.0220   53.1410  100.0370 C.3      12 GLL5        0.0000 
     71 CA         21.1145   53.7170  100.0720 C.3       4 GLC5        0.0000 
     72 CA         23.0470   54.1020   99.3110 C.3       8 GLP5        0.0000 
     73 CA         21.1358   55.6095  100.8003 C.3       4 GLC5        0.0000 
     74 CA         19.2480   55.1920  101.2580 C.3      12 GLL5        0.0000 
     75 CA         22.9190   55.5340   99.7970 C.3       8 GLP5        0.0000 
     76 CA         20.6782   56.2345   99.1187 C.3       4 GLC5        0.0000 
     77 CA         18.9680   55.3780   99.9010 C.3      12 GLL5        0.0000 
     78 CA         22.4620   56.4260   98.6600 C.3       8 GLP5        0.0000 
     79 CA         17.3113   55.4633  100.4784 C.3       4 GLC5        0.0000 
     80 CA         17.2515   55.6685  101.8878 C.3       4 GLC5        0.0000 
     81 CA         19.4570   56.1780  102.3490 C.3      12 GLL5        0.0000 
     82 CA         19.1175   58.0275  102.2198 C.3       4 GLC5        0.0000 
     83 CA         18.2330   56.6360  103.1220 C.3      12 GLL5        0.0000 
@<TRIPOS>BOND
@<TRIPOS>SUBSTRUCTURE
     1 ALC1       14 GROUP        1 X    ALC  0     ROOT ALC X 1
     2 SEC2        8 GROUP        1 X    SEC  0     **** SEC X 2
     3 ZIC7       36 GROUP        1 X    ZIC  0     **** ZIC X 5
     4 GLC5        1 GROUP        1 X    GLC  0     **** GLC X 6
     5 ALP1       16 GROUP        1 Y    ALP  0     ROOT ALP Y 8
     6 SEP2       10 GROUP        1 Y    SEP  0     **** SEP Y 9
     7 ZIP7       38 GROUP        1 Y    ZIP  0     **** ZIP Y 12
     8 GLP5        3 GROUP        1 Y    GLP  0     **** GLP Y 13
     9 ALL1       15 GROUP        1 Z    ALL  0     ROOT ALL Z 15
    10 SEL2        9 GROUP        1 Z    SEL  0     **** SEL Z 16
    11 ZIL7       37 GROUP        1 Z    ZIL  0     **** ZIL Z 19
    12 GLL5        2 GROUP        1 Z    GLL  0     **** GLL Z 20
@<TRIPOS>SET

