#    Name: 1mcz_TDP_9_ligand
#    Modification time : Tue Mar 25 11:36:53 2014

@<TRIPOS>MOLECULE
1mcz_TDP_9_ligand
   42    43     1     0     0
SMALL
NO_CHARGES


@<TRIPOS>ATOM
      1 N1'        15.3040   55.1890   96.2560 N.ar      1 TDP533      0.0000 
      2 C2'        14.3780   54.2430   96.6790 C.ar      1 TDP533      0.0000 
      3 C2A        12.9360   54.3660   96.3150 C.3       1 TDP533      0.0000 
      4 N3'        14.7460   53.1990   97.4230 N.ar      1 TDP533      0.0000 
      5 C4'        16.0840   53.0370   97.7910 C.ar      1 TDP533      0.0000 
      6 N4'        16.3550   51.9810   98.5180 N.pl3     1 TDP533      0.0000 
      7 C5'        17.0800   53.9880   97.3810 C.ar      1 TDP533      0.0000 
      8 C6'        16.6240   55.0280   96.6210 C.ar      1 TDP533      0.0000 
      9 C35        18.5490   53.8570   97.7490 C.3       1 TDP533      0.0000 
     10 N3         18.8430   54.1560   99.2230 N.pl3     1 TDP533      0.0000 
     11 C2         19.0220   53.1410  100.0370 C.2       1 TDP533      0.0000 
     12 S1         19.3420   53.5230  101.6290 S.3       1 TDP533      0.0000 
     13 C5         19.2480   55.1920  101.2580 C.2       1 TDP533      0.0000 
     14 C4         18.9680   55.3780   99.9010 C.2       1 TDP533      0.0000 
     15 C4A        18.8210   56.7080   99.2540 C.3       1 TDP533      0.0000 
     16 C5A        19.4570   56.1780  102.3490 C.3       1 TDP533      0.0000 
     17 C5B        18.2330   56.6360  103.1220 C.3       1 TDP533      0.0000 
     18 O5G        18.5970   57.0320  104.4160 O.3       1 TDP533      0.0000 
     19 P1         17.8370   57.5890  105.6700 P.3       1 TDP533      0.0000 
     20 O11        18.7570   57.1210  106.8520 O.3       1 TDP533      0.0000 
     21 O12        17.7850   59.0270  105.6800 O.co2     1 TDP533      0.0000 
     22 O13        16.5740   56.8410  105.7470 O.co2     1 TDP533      0.0000 
     23 P2         20.1410   56.3320  107.0640 P.3       1 TDP533      0.0000 
     24 O21        21.1190   57.3950  107.5550 O.co2     1 TDP533      0.0000 
     25 O22        19.7950   55.1700  107.8490 O.co2     1 TDP533      0.0000 
     26 O23        20.6150   55.9490  105.6760 O.co2     1 TDP533      0.0000 
     27 H          17.3105   51.8677   98.7903 H         1 TDP533      0.0000 
     28 H          15.5815   51.3851   98.7339 H         1 TDP533      0.0000 
     29 H          17.3210   55.7556   96.2905 H         1 TDP533      0.0000 
     30 H          19.1418   54.5434   97.1241 H         1 TDP533      0.0000 
     31 H          18.8900   52.8349   97.5209 H         1 TDP533      0.0000 
     32 H          19.0039   52.1732   99.8882 H         1 TDP533      0.0000 
     33 H          19.9654   57.0895  101.9326 H         1 TDP533      0.0000 
     34 H          20.1978   55.7643  103.0857 H         1 TDP533      0.0000 
     35 H          17.5135   55.8006  103.1287 H         1 TDP533      0.0000 
     36 H          17.7678   57.4562  102.5505 H         1 TDP533      0.0000 
     37 H          12.8009   54.3563   95.3242 H         1 TDP533      0.0000 
     38 H          12.3925   53.6162   96.6923 H         1 TDP533      0.0000 
     39 H          12.5380   55.2174   96.6567 H         1 TDP533      0.0000 
     40 H          18.9497   57.4547   99.9066 H         1 TDP533      0.0000 
     41 H          19.4888   56.8405   98.5215 H         1 TDP533      0.0000 
     42 H          17.9143   56.8258   98.8489 H         1 TDP533      0.0000 
@<TRIPOS>BOND
     1    2    1 ar   
     2    8    1 ar   
     3    3    2 1    
     4    4    2 ar   
     5   37    3 1    
     6   38    3 1    
     7   39    3 1    
     8    5    4 ar   
     9    6    5 1    
    10    7    5 ar   
    11   27    6 1    
    12   28    6 1    
    13    8    7 ar   
    14    9    7 1    
    15   29    8 1    
    16   10    9 1    
    17   30    9 1    
    18   31    9 1    
    19   11   10 2    
    20   14   10 1    
    21   12   11 1    
    22   32   11 1    
    23   13   12 1    
    24   14   13 2    
    25   16   13 1    
    26   15   14 1    
    27   40   15 1    
    28   41   15 1    
    29   42   15 1    
    30   17   16 1    
    31   33   16 1    
    32   34   16 1    
    33   18   17 1    
    34   35   17 1    
    35   36   17 1    
    36   19   18 1    
    37   20   19 1    
    38   21   19 ar   
    39   22   19 ar   
    40   23   20 1    
    41   24   23 ar   
    42   25   23 ar   
    43   26   23 ar   
@<TRIPOS>SUBSTRUCTURE
     1 TDP533      1 GROUP   
@<TRIPOS>SET

