#    Name: 3q0w_LL5_1_INTS_M
#    Modification time : Tue Mar 25 08:46:14 2014

@<TRIPOS>MOLECULE
3q0w_LL5_1_INTS_M
   47     0     3     0     0
SMALL
NO_CHARGES


@<TRIPOS>ATOM
      1 CA         39.0555   62.7625   13.4160 C.3       1 GLC5        0.0000 
      2 CA         38.8230   60.7610   13.5750 C.3       3 GLL5        0.0000 
      3 CA         39.2880   64.7640   13.2570 C.3       2 GLP5        0.0000 
      4 CA         38.1950   62.0190   14.7845 C.3       1 GLC5        0.0000 
      5 CA         37.5670   63.2770   15.9940 C.3       2 GLP5        0.0000 
      6 CA         40.1640   61.1285   14.8075 C.3       1 GLC5        0.0000 
      7 CA         41.5050   61.4960   16.0400 C.3       2 GLP5        0.0000 
      8 CA         36.7600   58.3970   11.6010 C.3       1 GLC5        0.0000 
      9 CA         36.4860   59.7590   13.3010 C.3       3 GLL5        0.0000 
     10 CA         37.0340   57.0350    9.9010 C.3       2 GLP5        0.0000 
     11 CA         33.1910   63.0890   15.1230 C.3       1 GLC5        0.0000 
     12 CA         34.5360   61.8890   13.9370 C.3       3 GLL5        0.0000 
     13 CA         31.8460   64.2890   16.3090 C.3       2 GLP5        0.0000 
     14 CA         34.9610   62.9500   15.5165 C.3       1 GLC5        0.0000 
     15 CA         35.3860   64.0110   17.0960 C.3       2 GLP5        0.0000 
     16 CA         36.0595   64.6840   12.9355 C.3       1 GLC5        0.0000 
     17 CA         34.7500   63.2270   13.2020 C.3       3 GLL5        0.0000 
     18 CA         37.3690   66.1410   12.6690 C.3       2 GLP5        0.0000 
     19 CA         36.1585   63.2520   14.5980 C.3       1 GLC5        0.0000 
     20 CA         32.5975   59.0245   12.1500 C.3       1 GLC5        0.0000 
     21 CA         33.0940   61.1420   12.0420 C.3       3 GLL5        0.0000 
     22 CA         32.1010   56.9070   12.2580 C.3       2 GLP5        0.0000 
     23 CA         32.5615   63.9375    9.8475 C.3       1 GLC5        0.0000 
     24 CA         33.1800   62.5400   11.3850 C.3       3 GLL5        0.0000 
     25 CA         31.9430   65.3350    8.3100 C.3       2 GLP5        0.0000 
     26 CA         31.4540   67.3465   11.8630 C.3       1 GLC5        0.0000 
     27 CA         33.3530   68.3990   11.7140 C.3       3 GLL5        0.0000 
     28 CA         29.5550   66.2940   12.0120 C.3       2 GLP5        0.0000 
     29 CA         31.0875   68.4950   13.2850 C.3       1 GLC5        0.0000 
     30 CA         33.0600   68.9680   12.8620 C.3       3 GLL5        0.0000 
     31 CA         29.1150   68.0220   13.7080 C.3       2 GLP5        0.0000 
     32 CA         31.6760   71.4870   14.0200 C.3       1 GLC5        0.0000 
     33 CA         33.0070   70.3370   12.6880 C.3       3 GLL5        0.0000 
     34 CA         30.3450   72.6370   15.3520 C.3       2 GLP5        0.0000 
     35 CA         34.5160   69.2950    8.8980 C.3       1 GLC5        0.0000 
     36 CA         33.5500   69.5880   10.4970 C.3       3 GLL5        0.0000 
     37 CA         35.4820   69.0020    7.2990 C.3       2 GLP5        0.0000 
     38 CA         36.9813   60.3360   10.4990 C.3       1 GLC5        0.0000 
     39 CA         37.1230   61.6890   11.8180 C.3       3 GLL5        0.0000 
     40 CA         36.5730   59.5810    8.8010 C.3       2 GLP5        0.0000 
     41 CA         38.4172   62.7895   12.0505 C.3       1 GLC5        0.0000 
     42 CA         39.4450   64.4880   11.9040 C.3       2 GLP5        0.0000 
     43 CA         37.4783   62.1840   14.0955 C.3       1 GLC5        0.0000 
     44 CA         33.0630   64.4425   14.2218 C.3       1 GLC5        0.0000 
     45 CA         32.0140   65.4620   15.5990 C.3       2 GLP5        0.0000 
     46 CA         31.5690   62.2220   10.4288 C.3       1 GLC5        0.0000 
     47 CA         30.0010   62.6030    9.1440 C.3       2 GLP5        0.0000 
@<TRIPOS>BOND
@<TRIPOS>SUBSTRUCTURE
     1 GLC5        1 GROUP        1 X    GLC  0     ROOT GLC X 6
     2 GLP5        3 GROUP        1 Y    GLP  0     ROOT GLP Y 13
     3 GLL5        2 GROUP        1 Z    GLL  0     ROOT GLL Z 20
@<TRIPOS>SET

