#    Name: 3q0w_LL5_1_ligand
#    Modification time : Tue Mar 25 08:46:14 2014

@<TRIPOS>MOLECULE
3q0w_LL5_1_ligand
   46    48     1     0     0
SMALL
NO_CHARGES


@<TRIPOS>ATOM
      1 C22        37.1230   61.6890   11.8180 C.3       1 LL5217      0.0000 
      2 C20        37.6560   60.4930   12.5760 C.3       1 LL5217      0.0000 
      3 C21        38.8230   60.7610   13.5750 C.3       1 LL5217      0.0000 
      4 C19        36.4860   59.7590   13.3010 C.3       1 LL5217      0.0000 
      5 N33        36.8900   58.3190   13.2540 N.4       1 LL5217      0.0000 
      6 C7         35.1770   59.9690   12.5150 C.2       1 LL5217      0.0000 
      7 O32        34.8540   59.2720   11.5290 O.2       1 LL5217      0.0000 
      8 N1         34.3060   60.8940   12.8560 N.am      1 LL5217      0.0000 
      9 C2         34.5360   61.8890   13.9370 C.3       1 LL5217      0.0000 
     10 C3         34.7500   63.2270   13.2020 C.3       1 LL5217      0.0000 
     11 C6         33.0940   61.1420   12.0420 C.3       1 LL5217      0.0000 
     12 C5         33.1800   62.5400   11.3850 C.3       1 LL5217      0.0000 
     13 C4         33.4740   63.6190   12.4870 C.3       1 LL5217      0.0000 
     14 C14        33.6480   64.9660   11.8070 C.2       1 LL5217      0.0000 
     15 N23        33.2880   66.0720   12.3340 N.2       1 LL5217      0.0000 
     16 O26        34.1940   65.1370   10.6210 O.3       1 LL5217      0.0000 
     17 N25        34.2020   66.6000   10.4210 N.2       1 LL5217      0.0000 
     18 C24        33.5820   67.0790   11.4760 C.2       1 LL5217      0.0000 
     19 C27        33.3530   68.3990   11.7140 C.2       1 LL5217      0.0000 
     20 C31        33.0600   68.9680   12.8620 C.2       1 LL5217      0.0000 
     21 C30        33.0070   70.3370   12.6880 C.2       1 LL5217      0.0000 
     22 C29        33.2250   70.9030   11.4540 C.2       1 LL5217      0.0000 
     23 S28        33.5500   69.5880   10.4970 S.3       1 LL5217      0.0000 
     24 H          38.0382   59.7548   11.8286 H         1 LL5217      0.0000 
     25 H          36.4136   60.1041   14.2727 H         1 LL5217      0.0000 
     26 H          35.4189   61.6558   14.4899 H         1 LL5217      0.0000 
     27 H          33.6777   61.9759   14.5658 H         1 LL5217      0.0000 
     28 H          35.5532   63.1080   12.4855 H         1 LL5217      0.0000 
     29 H          35.0150   63.9862   13.9274 H         1 LL5217      0.0000 
     30 H          32.2000   61.1133   12.6614 H         1 LL5217      0.0000 
     31 H          33.0017   60.4010   11.2508 H         1 LL5217      0.0000 
     32 H          32.2415   62.7757   10.9137 H         1 LL5217      0.0000 
     33 H          33.9821   62.5529   10.6674 H         1 LL5217      0.0000 
     34 H          32.6621   63.6417   13.1569 H         1 LL5217      0.0000 
     35 H          32.8999   68.5311   13.7147 H         1 LL5217      0.0000 
     36 H          32.7990   70.9465   13.5039 H         1 LL5217      0.0000 
     37 H          33.2325   71.6975   11.0946 H         1 LL5217      0.0000 
     38 H          37.8321   62.1222   11.2617 H         1 LL5217      0.0000 
     39 H          36.3793   61.4354   11.1994 H         1 LL5217      0.0000 
     40 H          36.7651   62.3901   12.4347 H         1 LL5217      0.0000 
     41 H          39.1194   59.9231   14.0333 H         1 LL5217      0.0000 
     42 H          39.6248   61.1432   13.1156 H         1 LL5217      0.0000 
     43 H          38.5586   61.4083   14.2899 H         1 LL5217      0.0000 
     44 H          37.8303   58.1867   13.5675 H         1 LL5217      0.0000 
     45 H          36.3054   57.7502   13.8325 H         1 LL5217      0.0000 
     46 H          36.8352   57.9479   12.3270 H         1 LL5217      0.0000 
@<TRIPOS>BOND
     1    2    1 1    
     2   38    1 1    
     3   39    1 1    
     4   40    1 1    
     5    3    2 1    
     6    4    2 1    
     7   24    2 1    
     8   41    3 1    
     9   42    3 1    
    10   43    3 1    
    11    5    4 1    
    12    6    4 1    
    13   25    4 1    
    14   44    5 1    
    15   45    5 1    
    16   46    5 1    
    17    7    6 2    
    18    8    6 am   
    19    9    8 1    
    20   11    8 1    
    21   10    9 1    
    22   26    9 1    
    23   27    9 1    
    24   13   10 1    
    25   28   10 1    
    26   29   10 1    
    27   12   11 1    
    28   30   11 1    
    29   31   11 1    
    30   13   12 1    
    31   32   12 1    
    32   33   12 1    
    33   14   13 1    
    34   34   13 1    
    35   15   14 2    
    36   16   14 1    
    37   18   15 1    
    38   17   16 1    
    39   18   17 2    
    40   19   18 1    
    41   20   19 2    
    42   23   19 1    
    43   21   20 1    
    44   35   20 1    
    45   22   21 2    
    46   36   21 1    
    47   23   22 1    
    48   37   22 1    
@<TRIPOS>SUBSTRUCTURE
     1 LL5217      1 GROUP   
@<TRIPOS>SET

