#    Name: 3f6x_IHH_1_INTS_M
#    Modification time : Tue Mar 25 03:18:24 2014

@<TRIPOS>MOLECULE
3f6x_IHH_1_INTS_M
   53     0     9     0     0
SMALL
NO_CHARGES


@<TRIPOS>ATOM
      1 CA         -8.6525   -5.9070   10.5385 C.3       3 GLC5        0.0000 
      2 CA         -7.3620   -4.3920   10.0040 C.3       9 GLL5        0.0000 
      3 CA         -9.9430   -7.4220   11.0730 C.3       6 GLP5        0.0000 
      4 CA         -6.1990   -2.9795   11.2835 C.3       3 GLC5        0.0000 
      5 CA         -5.0360   -1.5670   12.5630 C.3       6 GLP5        0.0000 
      6 CA         -4.4430   -4.3020   10.5175 C.3       3 GLC5        0.0000 
      7 CA         -5.8760   -5.3350   11.5430 C.3       9 GLL5        0.0000 
      8 CA         -3.0100   -3.2690    9.4920 C.3       6 GLP5        0.0000 
      9 CA         -5.9105   -8.8830    7.4545 C.3       3 GLC5        0.0000 
     10 CA         -4.0220   -8.7660    7.2740 C.3       9 GLL5        0.0000 
     11 CA         -7.7990   -9.0000    7.6350 C.3       6 GLP5        0.0000 
     12 CA         -4.7640   -9.8605    5.8765 C.3       3 GLC5        0.0000 
     13 CA         -5.5060  -10.9550    4.4790 C.3       6 GLP5        0.0000 
     14 CA         -0.6465   -8.4620    8.0465 C.3       3 GLC5        0.0000 
     15 CA         -2.8010   -8.3280    8.0860 C.3       9 GLL5        0.0000 
     16 CA          1.5080   -8.5960    8.0070 C.3       6 GLP5        0.0000 
     17 O          -1.4175   -9.0545   10.7875 O.2       1 ALC1        0.0000 
     18 O          -2.3630   -7.9430   10.5510 O.2       7 ALL1        0.0000 
     19 O          -0.4720  -10.1660   11.0240 O.2       4 ALP1        0.0000 
     20 N          -2.0880   -7.2815   12.5860 N.am      2 SEC2        0.0000 
     21 N          -2.8840   -7.3470   11.4940 N.am      8 SEL2        0.0000 
     22 N          -1.2920   -7.2160   13.6780 N.am      5 SEP2        0.0000 
     23 O          -3.9960   -5.5770   13.0890 O.2       1 ALC1        0.0000 
     24 O          -4.7700   -6.0090   11.8670 O.2       7 ALL1        0.0000 
     25 O          -3.2220   -5.1450   14.3110 O.2       4 ALP1        0.0000 
     26 CA         -1.9200   -5.2285    4.4120 C.3       3 GLC5        0.0000 
     27 CA         -3.9490   -5.5720    3.8920 C.3       9 GLL5        0.0000 
     28 CA          0.1090   -4.8850    4.9320 C.3       6 GLP5        0.0000 
     29 CA         -8.6440   -5.5542   14.1507 C.3       3 GLC5        0.0000 
     30 CA         -6.9940   -4.3000   14.9010 C.3       9 GLL5        0.0000 
     31 CA         -9.7420   -7.2010   13.5570 C.3       6 GLP5        0.0000 
     32 CA         -6.2910   -2.7372   13.6537 C.3       3 GLC5        0.0000 
     33 CA         -8.0980   -3.5150   14.5880 C.3       9 GLL5        0.0000 
     34 CA         -8.9103   -5.4220   13.1583 C.3       3 GLC5        0.0000 
     35 CA         -8.4560   -3.3380   13.2570 C.3       9 GLL5        0.0000 
     36 CA         -6.5572   -2.6050   12.6613 C.3       3 GLC5        0.0000 
     37 CA         -7.7010   -3.9480   12.2620 C.3       9 GLL5        0.0000 
     38 CA         -7.0201   -6.6549   12.3139 C.3       3 GLC5        0.0000 
     39 CA         -6.5910   -4.7250   12.5690 C.3       9 GLL5        0.0000 
     40 CA         -7.8950   -8.2350   12.2390 C.3       6 GLP5        0.0000 
     41 CA         -5.5906   -3.3209   12.4759 C.3       3 GLC5        0.0000 
     42 CA         -2.2592   -6.4187    7.9470 C.3       3 GLC5        0.0000 
     43 CA         -1.4840   -4.9290    8.4040 C.3       6 GLP5        0.0000 
     44 CA         -3.7218   -9.7610    9.1800 C.3       3 GLC5        0.0000 
     45 CA         -4.0320  -10.9750   10.6800 C.3       6 GLP5        0.0000 
     46 CA         -3.8183   -9.1497   10.1450 C.3       3 GLC5        0.0000 
     47 CA         -3.0920   -7.7210    9.4610 C.3       9 GLL5        0.0000 
     48 CA         -2.5442   -6.1267    9.0070 C.3       3 GLC5        0.0000 
     49 CA         -4.2278   -4.0390    8.2705 C.3       3 GLC5        0.0000 
     50 CA         -5.8010   -4.7740    7.6460 C.3       9 GLL5        0.0000 
     51 CA         -3.3595   -4.8898    2.4060 C.3       3 GLC5        0.0000 
     52 CA         -4.8850   -4.4430    3.9540 C.3       9 GLL5        0.0000 
     53 CA         -2.3020   -4.7720    0.8890 C.3       6 GLP5        0.0000 
@<TRIPOS>BOND
@<TRIPOS>SUBSTRUCTURE
     1 ALC1       17 GROUP        1 X    ALC  0     ROOT ALC X 1
     2 SEC2       20 GROUP        1 X    SEC  0     **** SEC X 2
     3 GLC5        1 GROUP        1 X    GLC  0     **** GLC X 6
     4 ALP1       19 GROUP        1 Y    ALP  0     ROOT ALP Y 8
     5 SEP2       22 GROUP        1 Y    SEP  0     **** SEP Y 9
     6 GLP5        3 GROUP        1 Y    GLP  0     **** GLP Y 13
     7 ALL1       18 GROUP        1 Z    ALL  0     ROOT ALL Z 15
     8 SEL2       21 GROUP        1 Z    SEL  0     **** SEL Z 16
     9 GLL5        2 GROUP        1 Z    GLL  0     **** GLL Z 20
@<TRIPOS>SET

