#    Name: 3f6x_IHH_1_ligand
#    Modification time : Tue Mar 25 03:18:24 2014

@<TRIPOS>MOLECULE
3f6x_IHH_1_ligand
   48    52     1     0     0
SMALL
NO_CHARGES


@<TRIPOS>ATOM
      1 C1         -6.9940   -4.3000   14.9010 C.ar      1 IHH1        0.0000 
      2 C2         -8.0980   -3.5150   14.5880 C.ar      1 IHH1        0.0000 
      3 C3         -8.4560   -3.3380   13.2570 C.ar      1 IHH1        0.0000 
      4 C4         -6.2380   -4.9040   13.9000 C.ar      1 IHH1        0.0000 
      5 C5         -6.5910   -4.7250   12.5690 C.ar      1 IHH1        0.0000 
      6 C6         -7.7010   -3.9480   12.2620 C.ar      1 IHH1        0.0000 
      7 C8         -7.3620   -4.3920   10.0040 C.ar      1 IHH1        0.0000 
      8 C10        -5.8760   -5.3350   11.5430 C.ar      1 IHH1        0.0000 
      9 C12        -7.1130   -4.3160    7.6440 C.ar      1 IHH1        0.0000 
     10 C13        -7.7120   -3.9370    6.4480 C.ar      1 IHH1        0.0000 
     11 C14        -7.0040   -4.0100    5.2540 C.ar      1 IHH1        0.0000 
     12 C15        -5.6870   -4.4560    5.2580 C.ar      1 IHH1        0.0000 
     13 C28        -3.2680   -7.4890    6.8940 C.3       1 IHH1        0.0000 
     14 C29        -4.0220   -8.7660    7.2740 C.3       1 IHH1        0.0000 
     15 C27        -2.8010   -8.3280    8.0860 C.3       1 IHH1        0.0000 
     16 C24        -3.0920   -7.7210    9.4610 C.2       1 IHH1        0.0000 
     17 C23        -4.1170   -6.9280    9.7590 C.2       1 IHH1        0.0000 
     18 N25        -2.3630   -7.9430   10.5510 N.pl3     1 IHH1        0.0000 
     19 N26        -2.8840   -7.3470   11.4940 N.2       1 IHH1        0.0000 
     20 C22        -3.9720   -6.7120   11.0630 C.2       1 IHH1        0.0000 
     21 N21        -4.7700   -6.0090   11.8670 N.pl3     1 IHH1        0.0000 
     22 N9         -6.2810   -5.1460   10.2790 N.ar      1 IHH1        0.0000 
     23 N7         -8.0620   -3.8070   10.9830 N.ar      1 IHH1        0.0000 
     24 N11        -7.7490   -4.0440    8.7800 N.pl3     1 IHH1        0.0000 
     25 C17        -5.8010   -4.7740    7.6460 C.ar      1 IHH1        0.0000 
     26 C16        -5.0900   -4.8440    6.4520 C.ar      1 IHH1        0.0000 
     27 C18        -4.8850   -4.4430    3.9540 C.3       1 IHH1        0.0000 
     28 C19        -3.9490   -5.5720    3.8920 C.1       1 IHH1        0.0000 
     29 N20        -3.2250   -6.4490    3.8540 N.1       1 IHH1        0.0000 
     30 H          -6.7297   -4.4378   15.8918 H         1 IHH1        0.0000 
     31 H          -8.6433   -3.0705   15.3332 H         1 IHH1        0.0000 
     32 H          -9.2676   -2.7642   13.0115 H         1 IHH1        0.0000 
     33 H          -5.4242   -5.4784   14.1463 H         1 IHH1        0.0000 
     34 H          -8.6862   -3.6001    6.4467 H         1 IHH1        0.0000 
     35 H          -7.4520   -3.7355    4.3717 H         1 IHH1        0.0000 
     36 H          -3.7582   -6.7581    7.2367 H         1 IHH1        0.0000 
     37 H          -2.7072   -7.6980    6.1634 H         1 IHH1        0.0000 
     38 H          -3.7404   -9.4474    6.6838 H         1 IHH1        0.0000 
     39 H          -4.7913   -8.5075    7.7571 H         1 IHH1        0.0000 
     40 H          -2.0706   -8.8361    7.8134 H         1 IHH1        0.0000 
     41 H          -4.7865   -6.5978    9.1833 H         1 IHH1        0.0000 
     42 H          -1.5440   -8.5051   10.5443 H         1 IHH1        0.0000 
     43 H          -4.4818   -5.9802   12.9302 H         1 IHH1        0.0000 
     44 H          -8.6804   -3.4796    8.6999 H         1 IHH1        0.0000 
     45 H          -5.3563   -5.0604    8.5266 H         1 IHH1        0.0000 
     46 H          -4.1181   -5.1845    6.4534 H         1 IHH1        0.0000 
     47 H          -4.3462   -3.4889    3.8931 H         1 IHH1        0.0000 
     48 H          -5.5931   -4.4799    3.1164 H         1 IHH1        0.0000 
@<TRIPOS>BOND
     1    2    1 ar   
     2    4    1 ar   
     3   30    1 1    
     4    3    2 ar   
     5   31    2 1    
     6    6    3 ar   
     7   32    3 1    
     8    5    4 ar   
     9   33    4 1    
    10    6    5 ar   
    11    8    5 ar   
    12   23    6 ar   
    13   22    7 ar   
    14   23    7 ar   
    15   24    7 1    
    16   21    8 1    
    17   22    8 ar   
    18   10    9 ar   
    19   24    9 1    
    20   25    9 ar   
    21   11   10 ar   
    22   34   10 1    
    23   12   11 ar   
    24   35   11 1    
    25   26   12 ar   
    26   27   12 1    
    27   14   13 1    
    28   15   13 1    
    29   36   13 1    
    30   37   13 1    
    31   15   14 1    
    32   38   14 1    
    33   39   14 1    
    34   16   15 1    
    35   40   15 1    
    36   17   16 2    
    37   18   16 1    
    38   20   17 1    
    39   41   17 1    
    40   19   18 1    
    41   42   18 1    
    42   20   19 2    
    43   21   20 1    
    44   43   21 1    
    45   44   24 1    
    46   26   25 ar   
    47   45   25 1    
    48   46   26 1    
    49   28   27 1    
    50   47   27 1    
    51   48   27 1    
    52   29   28 3    
@<TRIPOS>SUBSTRUCTURE
     1 IHH1        1 GROUP   
@<TRIPOS>SET

