#    Name: 1oxo_IK2_1_INTS_M
#    Modification time : Mon Mar 24 20:44:45 2014

@<TRIPOS>MOLECULE
1oxo_IK2_1_INTS_M
   61     0     9     0     0
SMALL
NO_CHARGES


@<TRIPOS>ATOM
      1 CA          6.8620   -3.9235   10.7210 C.3       3 GLC5        0.0000 
      2 CA          7.2060   -2.3790    9.3370 C.3       9 GLL5        0.0000 
      3 CA          6.5180   -5.4680   12.1050 C.3       6 GLP5        0.0000 
      4 CA          6.6615   -4.2315    8.7670 C.3       3 GLC5        0.0000 
      5 CA          6.1170   -6.0840    8.1970 C.3       6 GLP5        0.0000 
      6 CA          8.5420   -3.0250    7.9555 C.3       3 GLC5        0.0000 
      7 CA          9.8780   -3.6710    6.5740 C.3       6 GLP5        0.0000 
      8 CA          7.5945   -0.9555    7.8800 C.3       3 GLC5        0.0000 
      9 CA          7.9830    0.4680    6.4230 C.3       6 GLP5        0.0000 
     10 N          10.0420   -0.2655    8.0815 N.am      1 SEC2        0.0000 
     11 N           9.8320   -1.1660    9.0180 N.am      7 SEL2        0.0000 
     12 N          10.2520    0.6350    7.1450 N.am      4 SEP2        0.0000 
     13 CA         11.2875   -0.5720   12.4860 C.3       3 GLC5        0.0000 
     14 CA         11.0300    0.6430   11.0960 C.3       9 GLL5        0.0000 
     15 CA         11.5450   -1.7870   13.8760 C.3       6 GLP5        0.0000 
     16 CA         12.6640   -0.2350   12.9990 C.3       3 GLC5        0.0000 
     17 CA         13.7830    1.3170   12.1220 C.3       9 GLL5        0.0000 
     18 CA         14.0105    3.2980   12.1360 C.3       3 GLC5        0.0000 
     19 CA         14.2380    5.2790   12.1500 C.3       6 GLP5        0.0000 
     20 N          13.7665   -1.8635   11.7390 N.am      1 SEC2        0.0000 
     21 N          14.9120   -0.8000   11.5450 N.am      7 SEL2        0.0000 
     22 N          12.6210   -2.9270   11.9330 N.am      4 SEP2        0.0000 
     23 CA          6.8300   -1.1385   13.9330 C.3       3 GLC5        0.0000 
     24 CA          7.6750   -0.3450   12.3940 C.3       9 GLL5        0.0000 
     25 CA          5.9850   -1.9320   15.4720 C.3       6 GLP5        0.0000 
     26 CA          7.8110    2.2250   14.3785 C.3       3 GLC5        0.0000 
     27 CA          9.4640    1.1550   13.3790 C.3       9 GLL5        0.0000 
     28 CA          6.1580    3.2950   15.3780 C.3       6 GLP5        0.0000 
     29 CA          8.8745    1.1580   15.5480 C.3       3 GLC5        0.0000 
     30 CA          8.2850    1.1610   17.7170 C.3       6 GLP5        0.0000 
     31 CA          9.9310   -0.3290   14.0200 C.3       3 GLC5        0.0000 
     32 CA         10.3980   -1.8130   14.6610 C.3       6 GLP5        0.0000 
     33 NZ         11.0095    3.9930   16.2985 N.4       2 LYC4        0.0000 
     34 NZ         10.3840    3.0760   15.3340 N.4       8 LYL4        0.0000 
     35 NZ         11.9440    6.1780   17.0140 N.4       5 LYP4        0.0000 
     36 N           9.0925    2.6265   16.0460 N.am      1 SEC2        0.0000 
     37 N          10.3840    3.0760   15.3340 N.am      7 SEL2        0.0000 
     38 N           7.8010    2.1770   16.7580 N.am      4 SEP2        0.0000 
     39 N          10.4435    2.0890   16.0030 N.am      1 SEC2        0.0000 
     40 N          10.5030    1.1020   16.6720 N.am      4 SEP2        0.0000 
     41 N          11.0095    3.9930   16.2985 N.am      1 SEC2        0.0000 
     42 N          11.6350    4.9100   17.2630 N.am      4 SEP2        0.0000 
     43 N           8.8970    5.7820   14.5105 N.am      1 SEC2        0.0000 
     44 N           9.0240    4.5530   13.9070 N.am      7 SEL2        0.0000 
     45 N           8.7700    7.0110   15.1140 N.am      4 SEP2        0.0000 
     46 N           7.9230    4.5690   14.7970 N.am      1 SEC2        0.0000 
     47 N           6.8220    4.5850   15.6870 N.am      4 SEP2        0.0000 
     48 N           8.1770    5.0820   12.8925 N.am      1 SEC2        0.0000 
     49 N           7.3300    5.6110   11.8780 N.am      4 SEP2        0.0000 
     50 N          11.7150    5.5115   14.6105 N.am      1 SEC2        0.0000 
     51 N          11.3990    4.3740   13.4520 N.am      7 SEL2        0.0000 
     52 N          12.0310    6.6490   15.7690 N.am      4 SEP2        0.0000 
     53 N          12.2480    4.5960   12.5060 N.am      1 SEC2        0.0000 
     54 N          13.0970    4.8180   11.5600 N.am      4 SEP2        0.0000 
     55 CA          6.8632   -0.0615    9.5843 C.3       3 GLC5        0.0000 
     56 CA          7.9210   -1.4430   10.2900 C.3       9 GLL5        0.0000 
     57 CA          6.1630    1.7880    9.3550 C.3       6 GLP5        0.0000 
     58 CA          7.8127    0.6763   10.0033 C.3       3 GLC5        0.0000 
     59 CA          9.2120   -0.8370   10.1590 C.3       9 GLL5        0.0000 
     60 CA          7.2198    0.8623   10.8523 C.3       3 GLC5        0.0000 
     61 CA          8.8780    0.2180   12.3050 C.3       9 GLL5        0.0000 
@<TRIPOS>BOND
@<TRIPOS>SUBSTRUCTURE
     1 SEC2       10 GROUP        1 X    SEC  0     ROOT SEC X 2
     2 LYC4       33 GROUP        1 X    LYC  0     **** LYC X 4
     3 GLC5        1 GROUP        1 X    GLC  0     **** GLC X 6
     4 SEP2       12 GROUP        1 Y    SEP  0     ROOT SEP Y 9
     5 LYP4       35 GROUP        1 Y    LYP  0     **** LYP Y 11
     6 GLP5        3 GROUP        1 Y    GLP  0     **** GLP Y 13
     7 SEL2       11 GROUP        1 Z    SEL  0     ROOT SEL Z 16
     8 LYL4       34 GROUP        1 Z    LYL  0     **** LYL Z 18
     9 GLL5        2 GROUP        1 Z    GLL  0     **** GLL Z 20
@<TRIPOS>SET

