#    Name: 1oxo_IK2_1_ligand
#    Modification time : Mon Mar 24 20:44:45 2014

@<TRIPOS>MOLECULE
1oxo_IK2_1_ligand
   32    32     1     0     0
SMALL
NO_CHARGES


@<TRIPOS>ATOM
      1 N1          7.2250   -1.1400   11.4270 N.ar      1 IK2411      0.0000 
      2 C2          7.9210   -1.4430   10.2900 C.ar      1 IK2411      0.0000 
      3 C2A         7.2060   -2.3790    9.3370 C.3       1 IK2411      0.0000 
      4 C3          9.2120   -0.8370   10.1590 C.ar      1 IK2411      0.0000 
      5 O3          9.8320   -1.1660    9.0180 O.3       1 IK2411      0.0000 
      6 C4          9.7130   -0.0340   11.1440 C.ar      1 IK2411      0.0000 
      7 C4A        11.0300    0.6430   11.0960 C.3       1 IK2411      0.0000 
      8 N4A        12.1750    0.3730   10.6940 N.4       1 IK2411      0.0000 
      9 OX         13.2240    1.3460   10.8230 O.3       1 IK2411      0.0000 
     10 C1'        13.7830    1.3170   12.1220 C.3       1 IK2411      0.0000 
     11 C2'        14.9140    0.2660   12.2870 C.2       1 IK2411      0.0000 
     12 O1'        14.9120   -0.8000   11.5450 O.co2     1 IK2411      0.0000 
     13 O2'        15.8380    0.4630   13.1540 O.co2     1 IK2411      0.0000 
     14 C5          8.8780    0.2180   12.3050 C.ar      1 IK2411      0.0000 
     15 C6          7.6750   -0.3450   12.3940 C.ar      1 IK2411      0.0000 
     16 C5A         9.4640    1.1550   13.3790 C.3       1 IK2411      0.0000 
     17 O4P         9.9720    2.4080   12.9750 O.3       1 IK2411      0.0000 
     18 P          10.2530    3.6540   13.9640 P.3       1 IK2411      0.0000 
     19 O1P        10.3840    3.0760   15.3340 O.co2     1 IK2411      0.0000 
     20 O2P         9.0240    4.5530   13.9070 O.co2     1 IK2411      0.0000 
     21 O3P        11.3990    4.3740   13.4520 O.co2     1 IK2411      0.0000 
     22 H          11.1039    1.1018   12.2564 H         1 IK2411      0.0000 
     23 H          10.7026    1.7697   10.6648 H         1 IK2411      0.0000 
     24 H          13.0214    1.0866   12.8983 H         1 IK2411      0.0000 
     25 H          14.2186    2.2983   12.4101 H         1 IK2411      0.0000 
     26 H           7.0742   -0.1590   13.2381 H         1 IK2411      0.0000 
     27 H          10.2539    0.5508   13.9267 H         1 IK2411      0.0000 
     28 H           8.6550    1.2763   14.1662 H         1 IK2411      0.0000 
     29 H           7.7527   -2.5670    8.5210 H         1 IK2411      0.0000 
     30 H           7.0039   -3.2604    9.7639 H         1 IK2411      0.0000 
     31 H           6.3356   -1.9979    9.0252 H         1 IK2411      0.0000 
     32 H          10.4400   -1.9214    9.2625 H         1 IK2411      0.0000 
@<TRIPOS>BOND
     1    2    1 ar   
     2   15    1 ar   
     3    3    2 1    
     4    4    2 ar   
     5   29    3 1    
     6   30    3 1    
     7   31    3 1    
     8    5    4 1    
     9    6    4 ar   
    10   32    5 1    
    11    7    6 1    
    12   14    6 ar   
    13    8    7 1    
    14   22    7 1    
    15   23    7 1    
    16    9    8 1    
    17   10    9 1    
    18   11   10 1    
    19   24   10 1    
    20   25   10 1    
    21   12   11 ar   
    22   13   11 ar   
    23   15   14 ar   
    24   16   14 1    
    25   26   15 1    
    26   17   16 1    
    27   27   16 1    
    28   28   16 1    
    29   18   17 1    
    30   19   18 ar   
    31   20   18 ar   
    32   21   18 ar   
@<TRIPOS>SUBSTRUCTURE
     1 IK2411      1 GROUP   
@<TRIPOS>SET

