#    Name: 1hyh_NAD_1_INTS_M
#    Modification time : Tue Mar 25 06:33:08 2014

@<TRIPOS>MOLECULE
1hyh_NAD_1_INTS_M
  100     0     9     0     0
SMALL
NO_CHARGES


@<TRIPOS>ATOM
      1 N           6.5720   28.8305    7.8530 N.am      2 SEC2        0.0000 
      2 N           5.2270   28.1930    8.0430 N.am      8 SEL2        0.0000 
      3 N           7.9170   29.4680    7.6630 N.am      5 SEP2        0.0000 
      4 N           3.5475   25.0955    5.9710 N.am      2 SEC2        0.0000 
      5 N           4.0830   26.5950    6.4220 N.am      8 SEL2        0.0000 
      6 N           3.0120   23.5960    5.5200 N.am      5 SEP2        0.0000 
      7 CA          6.3580   26.5700   11.2210 C.3       3 GLC5        0.0000 
      8 CA          4.5380   26.1260   10.1730 C.3       9 GLL5        0.0000 
      9 CA          8.1780   27.0140   12.2690 C.3       6 GLP5        0.0000 
     10 CA          2.9525   23.9515   12.0460 C.3       3 GLC5        0.0000 
     11 CA          3.2570   25.6510   10.8940 C.3       9 GLL5        0.0000 
     12 CA          2.6480   22.2520   13.1980 C.3       6 GLP5        0.0000 
     13 O           0.0645   26.1490   12.1530 O.2       1 ALC1        0.0000 
     14 O           0.8680   26.2620   10.6180 O.2       7 ALL1        0.0000 
     15 O          -0.7390   26.0360   13.6880 O.2       4 ALP1        0.0000 
     16 O           0.3565   25.3165   11.5275 O.2       1 ALC1        0.0000 
     17 O          -0.1550   24.3710   12.4370 O.2       4 ALP1        0.0000 
     18 O           0.1220   26.8940   13.2150 O.2       1 ALC1        0.0000 
     19 O           0.9830   27.7520   12.7420 O.2       7 ALL1        0.0000 
     20 CA          2.6570   24.1735   13.1320 C.3       3 GLC5        0.0000 
     21 CA          2.6660   26.0950   13.0660 C.3       9 GLL5        0.0000 
     22 CA          4.5110   24.9820   13.2500 C.3       3 GLC5        0.0000 
     23 CA          6.3560   23.8690   13.4340 C.3       6 GLP5        0.0000 
     24 CA          5.0555   24.8520   17.6020 C.3       3 GLC5        0.0000 
     25 CA          3.5930   26.2130   17.9240 C.3       9 GLL5        0.0000 
     26 CA          6.5180   23.4910   17.2800 C.3       6 GLP5        0.0000 
     27 CA          4.8740   27.8495   18.5525 C.3       3 GLC5        0.0000 
     28 CA          6.1550   29.4860   19.1810 C.3       6 GLP5        0.0000 
     29 CA          4.5525   25.0720   19.3965 C.3       3 GLC5        0.0000 
     30 CA          5.5120   23.9310   20.8690 C.3       6 GLP5        0.0000 
     31 CA          2.9190   22.6635   17.3915 C.3       3 GLC5        0.0000 
     32 CA          2.1610   24.4590   17.1460 C.3       9 GLL5        0.0000 
     33 CA          3.6770   20.8680   17.6370 C.3       6 GLP5        0.0000 
     34 CA          0.4830   24.1030   16.3770 C.3       3 GLC5        0.0000 
     35 CA         -1.1950   23.7470   15.6080 C.3       6 GLP5        0.0000 
     36 CA          1.1010   26.2615   17.2510 C.3       3 GLC5        0.0000 
     37 CA          0.0410   28.0640   17.3560 C.3       6 GLP5        0.0000 
     38 CA          4.3395   23.9750   17.2130 C.3       3 GLC5        0.0000 
     39 N           0.6745   25.3845   16.1720 N.am      2 SEC2        0.0000 
     40 N           2.1810   24.7990   15.8330 N.am      8 SEL2        0.0000 
     41 N          -0.8320   25.9700   16.5110 N.am      5 SEP2        0.0000 
     42 CA          2.8030   24.0790   14.3765 C.3       3 GLC5        0.0000 
     43 CA          2.9580   25.9060   15.5550 C.3       9 GLL5        0.0000 
     44 N           5.7540   25.5890    4.2850 N.am      2 SEC2        0.0000 
     45 N           7.0630   25.1240    5.2400 N.am      8 SEL2        0.0000 
     46 N           4.4450   26.0540    3.3300 N.am      5 SEP2        0.0000 
     47 N           5.2600   22.6020    6.0920 N.am      2 SEC2        0.0000 
     48 N           5.6550   23.7800    6.7760 N.am      8 SEL2        0.0000 
     49 N           4.8650   21.4240    5.4080 N.am      5 SEP2        0.0000 
     50 CA          7.8495   22.6585    7.2185 C.3       3 GLC5        0.0000 
     51 CA          7.9550   24.0340    8.8240 C.3       9 GLL5        0.0000 
     52 CA          7.7440   21.2830    5.6130 C.3       6 GLP5        0.0000 
     53 CA         10.5395   23.1610   10.9460 C.3       3 GLC5        0.0000 
     54 CA          9.3100   23.9250    9.3910 C.3       9 GLL5        0.0000 
     55 CA         11.7690   22.3970   12.5010 C.3       6 GLP5        0.0000 
     56 N          12.2480   24.5670   10.9145 N.am      2 SEC2        0.0000 
     57 N          11.0250   25.2230   10.3070 N.am      8 SEL2        0.0000 
     58 N          13.4710   23.9110   11.5220 N.am      5 SEP2        0.0000 
     59 O          11.7440   26.5640    9.7835 O.2       1 ALC1        0.0000 
     60 O          11.0250   25.2230   10.3070 O.2       7 ALL1        0.0000 
     61 O          12.4630   27.9050    9.2600 O.2       4 ALP1        0.0000 
     62 O          10.8865   26.4830   10.4600 O.2       1 ALC1        0.0000 
     63 O          10.7480   27.7430   10.6130 O.2       4 ALP1        0.0000 
     64 CA         10.5260   26.1185    6.2140 C.3       3 GLC5        0.0000 
     65 CA         11.0910   24.8550    7.9250 C.3       9 GLL5        0.0000 
     66 CA          9.9610   27.3820    4.5030 C.3       6 GLP5        0.0000 
     67 N          13.6835   24.7485    7.8690 N.am      2 SEC2        0.0000 
     68 N          12.3310   25.4500    8.0840 N.am      8 SEL2        0.0000 
     69 N          15.0360   24.0470    7.6540 N.am      5 SEP2        0.0000 
     70 O          12.3970   26.6775    8.6720 O.2       1 ALC1        0.0000 
     71 O          12.3310   25.4500    8.0840 O.2       7 ALL1        0.0000 
     72 CA         11.0565   21.3400    8.6865 C.3       3 GLC5        0.0000 
     73 CA         11.3110   23.3500    8.2740 C.3       9 GLL5        0.0000 
     74 CA         10.8020   19.3300    9.0990 C.3       6 GLP5        0.0000 
     75 CA         11.5400   22.8735   10.3875 C.3       3 GLC5        0.0000 
     76 CA         12.7180   19.1595    6.1915 C.3       3 GLC5        0.0000 
     77 CA         13.3710   20.9500    6.4130 C.3       9 GLL5        0.0000 
     78 CA         12.0650   17.3690    5.9700 C.3       6 GLP5        0.0000 
     79 O          13.9450   20.3610    9.3945 O.2       1 ALC1        0.0000 
     80 O          14.8250   19.9710    8.1920 O.2       7 ALL1        0.0000 
     81 O          13.0650   20.7510   10.5970 O.2       4 ALP1        0.0000 
     82 CA         14.0180   19.6960    4.0255 C.3       3 GLC5        0.0000 
     83 CA         12.9200   20.9790    5.1170 C.3       9 GLL5        0.0000 
     84 CA         15.1160   18.4130    2.9340 C.3       6 GLP5        0.0000 
     85 CA          5.1267   24.8788   11.9838 C.3       3 GLC5        0.0000 
     86 CA          2.4646   25.0906    9.1946 C.3       3 GLC5        0.0000 
     87 CA          1.8840   23.8500    7.6740 C.3       6 GLP5        0.0000 
     88 CA          4.6753   25.1737   15.4805 C.3       3 GLC5        0.0000 
     89 CA          3.6670   26.6090   16.5290 C.3       9 GLL5        0.0000 
     90 CA          6.0380   24.0900   14.9190 C.3       6 GLP5        0.0000 
     91 CA          1.6675   27.1112   16.8734 C.3       3 GLC5        0.0000 
     92 CA          8.9688   25.7810   10.7767 C.3       3 GLC5        0.0000 
     93 CA         13.0905   24.5192    8.9922 C.3       3 GLC5        0.0000 
     94 CA         14.9800   24.9360    9.8850 C.3       6 GLP5        0.0000 
     95 CA         11.9633   20.3250    8.0183 C.3       3 GLC5        0.0000 
     96 CA         12.8780   21.6900    7.4620 C.3       9 GLL5        0.0000 
     97 CA         11.4158   19.9435    4.7360 C.3       3 GLC5        0.0000 
     98 CA         10.4330   18.4420    4.4750 C.3       6 GLP5        0.0000 
     99 CA          9.6745   21.7900    5.4960 C.3       3 GLC5        0.0000 
    100 CA         11.8770   21.9110    4.8770 C.3       9 GLL5        0.0000 
@<TRIPOS>BOND
@<TRIPOS>SUBSTRUCTURE
     1 ALC1       13 GROUP        1 X    ALC  0     ROOT ALC X 1
     2 SEC2        1 GROUP        1 X    SEC  0     **** SEC X 2
     3 GLC5        7 GROUP        1 X    GLC  0     **** GLC X 6
     4 ALP1       15 GROUP        1 Y    ALP  0     ROOT ALP Y 8
     5 SEP2        3 GROUP        1 Y    SEP  0     **** SEP Y 9
     6 GLP5        9 GROUP        1 Y    GLP  0     **** GLP Y 13
     7 ALL1       14 GROUP        1 Z    ALL  0     ROOT ALL Z 15
     8 SEL2        2 GROUP        1 Z    SEL  0     **** SEL Z 16
     9 GLL5        8 GROUP        1 Z    GLL  0     **** GLL Z 20
@<TRIPOS>SET

