#    Name: 1hyh_NAD_1_ligand
#    Modification time : Tue Mar 25 06:33:08 2014

@<TRIPOS>MOLECULE
1hyh_NAD_1_ligand
   70    74     1     0     0
SMALL
NO_CHARGES


@<TRIPOS>ATOM
      1 PA          4.9030   26.8250    7.6280 P.3       1 NAD330      0.0000 
      2 O1A         5.2270   28.1930    8.0430 O.co2     1 NAD330      0.0000 
      3 O2A         4.0830   26.5950    6.4220 O.co2     1 NAD330      0.0000 
      4 O5B         4.1810   26.0160    8.7840 O.3       1 NAD330      0.0000 
      5 C5B         4.5380   26.1260   10.1730 C.3       1 NAD330      0.0000 
      6 C4B         3.2570   25.6510   10.8940 C.3       1 NAD330      0.0000 
      7 O4B         3.6960   25.5770   12.3070 O.3       1 NAD330      0.0000 
      8 C3B         2.1930   26.7740   10.8970 C.3       1 NAD330      0.0000 
      9 O3B         0.8680   26.2620   10.6180 O.3       1 NAD330      0.0000 
     10 C2B         2.2190   27.3860   12.2810 C.3       1 NAD330      0.0000 
     11 O2B         0.9830   27.7520   12.7420 O.3       1 NAD330      0.0000 
     12 C1B         2.6660   26.0950   13.0660 C.3       1 NAD330      0.0000 
     13 N9A         3.2150   26.5080   14.3190 N.pl3     1 NAD330      0.0000 
     14 C8A         4.0470   27.5300   14.6710 C.2       1 NAD330      0.0000 
     15 N7A         4.3350   27.6380   15.9540 N.2       1 NAD330      0.0000 
     16 C5A         3.6670   26.6090   16.5290 C.ar      1 NAD330      0.0000 
     17 C6A         3.5930   26.2130   17.9240 C.ar      1 NAD330      0.0000 
     18 N6A         4.2020   26.8240   18.9200 N.pl3     1 NAD330      0.0000 
     19 N1A         2.8270   25.1300   18.1110 N.ar      1 NAD330      0.0000 
     20 C2A         2.1610   24.4590   17.1460 C.ar      1 NAD330      0.0000 
     21 N3A         2.1810   24.7990   15.8330 N.ar      1 NAD330      0.0000 
     22 C4A         2.9580   25.9060   15.5550 C.ar      1 NAD330      0.0000 
     23 O3          6.2960   26.0710    7.5040 O.3       1 NAD330      0.0000 
     24 PN          6.7190   24.7850    6.6630 P.3       1 NAD330      0.0000 
     25 O1N         7.0630   25.1240    5.2400 O.co2     1 NAD330      0.0000 
     26 O2N         5.6550   23.7800    6.7760 O.co2     1 NAD330      0.0000 
     27 O5D         8.0320   24.2700    7.4070 O.3       1 NAD330      0.0000 
     28 C5D         7.9550   24.0340    8.8240 C.3       1 NAD330      0.0000 
     29 C4D         9.3100   23.9250    9.3910 C.3       1 NAD330      0.0000 
     30 O4D         9.9890   22.8780    8.5060 O.3       1 NAD330      0.0000 
     31 C3D        10.2090   25.1710    9.1780 C.3       1 NAD330      0.0000 
     32 O3D        11.0250   25.2230   10.3070 O.3       1 NAD330      0.0000 
     33 C2D        11.0910   24.8550    7.9250 C.3       1 NAD330      0.0000 
     34 O2D        12.3310   25.4500    8.0840 O.3       1 NAD330      0.0000 
     35 C1D        11.3110   23.3500    8.2740 C.3       1 NAD330      0.0000 
     36 N1N        11.8490   22.5480    7.1160 N.pl3     1 NAD330      0.0000 
     37 C2N        12.8780   21.6900    7.4620 C.ar      1 NAD330      0.0000 
     38 C3N        13.3710   20.9500    6.4130 C.ar      1 NAD330      0.0000 
     39 C7N        14.5320   19.9770    6.8550 C.2       1 NAD330      0.0000 
     40 O7N        15.0560   19.2600    6.0090 O.2       1 NAD330      0.0000 
     41 N7N        14.8250   19.9710    8.1920 N.am      1 NAD330      0.0000 
     42 C4N        12.9200   20.9790    5.1170 C.ar      1 NAD330      0.0000 
     43 C5N        11.8770   21.9110    4.8770 C.ar      1 NAD330      0.0000 
     44 C6N        11.3330   22.6830    5.8810 C.ar      1 NAD330      0.0000 
     45 H           4.7272   27.1332   10.4656 H         1 NAD330      0.0000 
     46 H           5.3317   25.4676   10.4422 H         1 NAD330      0.0000 
     47 H           2.9131   24.7832   10.5437 H         1 NAD330      0.0000 
     48 H           2.4955   27.5182   10.1919 H         1 NAD330      0.0000 
     49 H           2.9987   28.0569   12.3533 H         1 NAD330      0.0000 
     50 H           1.8411   25.4754   13.1526 H         1 NAD330      0.0000 
     51 H           4.4158   28.1660   13.9626 H         1 NAD330      0.0000 
     52 H           4.7093   27.6527   18.6836 H         1 NAD330      0.0000 
     53 H           4.1014   26.4034   19.8216 H         1 NAD330      0.0000 
     54 H           1.5823   23.6078   17.4323 H         1 NAD330      0.0000 
     55 H           7.3987   23.1066    9.0330 H         1 NAD330      0.0000 
     56 H           7.4170   24.8542    9.3251 H         1 NAD330      0.0000 
     57 H           9.3415   23.6055   10.3655 H         1 NAD330      0.0000 
     58 H           9.6234   25.9918    9.0022 H         1 NAD330      0.0000 
     59 H          10.5736   24.9381    7.1002 H         1 NAD330      0.0000 
     60 H          11.9097   23.2737    9.1180 H         1 NAD330      0.0000 
     61 H          13.2268   21.6181    8.3880 H         1 NAD330      0.0000 
     62 H          14.2553   20.5554    8.7699 H         1 NAD330      0.0000 
     63 H          15.5830   19.3828    8.4737 H         1 NAD330      0.0000 
     64 H          13.2768   20.4074    4.3933 H         1 NAD330      0.0000 
     65 H          11.5217   22.0022    3.9015 H         1 NAD330      0.0000 
     66 H          10.5681   23.3278    5.6790 H         1 NAD330      0.0000 
     67 H           0.6861   25.6034   11.3482 H         1 NAD330      0.0000 
     68 H           0.5565   26.8993   13.0436 H         1 NAD330      0.0000 
     69 H          11.0529   26.1896   10.5617 H         1 NAD330      0.0000 
     70 H          12.1405   26.3358    8.5072 H         1 NAD330      0.0000 
@<TRIPOS>BOND
     1    2    1 ar   
     2    3    1 ar   
     3    4    1 1    
     4   23    1 1    
     5    5    4 1    
     6    6    5 1    
     7   45    5 1    
     8   46    5 1    
     9    7    6 1    
    10    8    6 1    
    11   47    6 1    
    12   12    7 1    
    13    9    8 1    
    14   10    8 1    
    15   48    8 1    
    16   67    9 1    
    17   11   10 1    
    18   12   10 1    
    19   49   10 1    
    20   68   11 1    
    21   13   12 1    
    22   50   12 1    
    23   14   13 1    
    24   22   13 1    
    25   15   14 2    
    26   51   14 1    
    27   16   15 1    
    28   17   16 ar   
    29   22   16 ar   
    30   18   17 1    
    31   19   17 ar   
    32   52   18 1    
    33   53   18 1    
    34   20   19 ar   
    35   21   20 ar   
    36   54   20 1    
    37   22   21 ar   
    38   24   23 1    
    39   25   24 ar   
    40   26   24 ar   
    41   27   24 1    
    42   28   27 1    
    43   29   28 1    
    44   55   28 1    
    45   56   28 1    
    46   30   29 1    
    47   31   29 1    
    48   57   29 1    
    49   35   30 1    
    50   32   31 1    
    51   33   31 1    
    52   58   31 1    
    53   69   32 1    
    54   34   33 1    
    55   35   33 1    
    56   59   33 1    
    57   70   34 1    
    58   36   35 1    
    59   60   35 1    
    60   37   36 ar   
    61   44   36 ar   
    62   38   37 ar   
    63   61   37 1    
    64   39   38 1    
    65   42   38 ar   
    66   40   39 2    
    67   41   39 am   
    68   62   41 1    
    69   63   41 1    
    70   43   42 ar   
    71   64   42 1    
    72   44   43 ar   
    73   65   43 1    
    74   66   44 1    
@<TRIPOS>SUBSTRUCTURE
     1 NAD330      1 GROUP   
@<TRIPOS>SET

