#    Name: 2rge_GNP_1_INTS_M
#    Modification time : Mon Mar 24 23:53:33 2014

@<TRIPOS>MOLECULE
2rge_GNP_1_INTS_M
   75     0    15     0     0
SMALL
NO_CHARGES


@<TRIPOS>ATOM
      1 Zn        -11.4325   67.2555  -67.0315 Zn        4 ZIC7        0.0000 
      2 Zn        -11.1400   66.3360  -66.4940 Zn       14 ZIL7        0.0000 
      3 Zn        -11.7250   68.1750  -67.5690 Zn        9 ZIP7        0.0000 
      4 N         -11.1380   66.9985  -65.1580 N.am      2 SEC2        0.0000 
      5 N         -11.1400   66.3360  -66.4940 N.am     12 SEL2        0.0000 
      6 N         -11.1360   67.6610  -63.8220 N.am      7 SEP2        0.0000 
      7 NZ        -11.3680   63.8460  -68.5770 N.4       3 LYC4        0.0000 
      8 NZ        -10.8660   64.2100  -67.3860 N.4      13 LYL4        0.0000 
      9 NZ        -11.8700   63.4820  -69.7680 N.4       8 LYP4        0.0000 
     10 N         -11.3680   63.8460  -68.5770 N.am      2 SEC2        0.0000 
     11 N         -10.8660   64.2100  -67.3860 N.am     12 SEL2        0.0000 
     12 N         -11.8700   63.4820  -69.7680 N.am      7 SEP2        0.0000 
     13 N         -11.7250   63.2280  -66.8410 N.am      2 SEC2        0.0000 
     14 N         -12.5840   62.2460  -66.2960 N.am      7 SEP2        0.0000 
     15 NZ        -11.0030   64.5030  -70.1615 N.4       3 LYC4        0.0000 
     16 NZ        -10.1360   65.5240  -70.5550 N.4      13 LYL4        0.0000 
     17 N          -9.4190   65.7950  -71.8830 N.am      2 SEC2        0.0000 
     18 N         -10.1360   65.5240  -70.5550 N.am     12 SEL2        0.0000 
     19 N          -8.7020   66.0660  -73.2110 N.am      7 SEP2        0.0000 
     20 N         -10.7360   66.2805  -71.6820 N.am      2 SEC2        0.0000 
     21 N         -11.3360   67.0370  -72.8090 N.am      7 SEP2        0.0000 
     22 N         -11.0030   64.5030  -70.1615 N.am      2 SEC2        0.0000 
     23 Zn        -11.2520   67.8935  -68.5190 Zn        4 ZIC7        0.0000 
     24 Zn        -10.7790   67.6120  -69.4690 Zn       14 ZIL7        0.0000 
     25 N         -11.6095   68.3945  -70.3495 N.am      2 SEC2        0.0000 
     26 N         -10.7790   67.6120  -69.4690 N.am     12 SEL2        0.0000 
     27 N         -12.4400   69.1770  -71.2300 N.am      7 SEP2        0.0000 
     28 N          -8.6040   66.6940  -71.7285 N.am      2 SEC2        0.0000 
     29 N          -8.5060   67.3220  -70.2460 N.am     12 SEL2        0.0000 
     30 N         -10.0800   70.5090  -71.7180 N.am      2 SEC2        0.0000 
     31 N          -9.1350   69.6400  -71.1360 N.am     12 SEL2        0.0000 
     32 N         -11.0250   71.3780  -72.3000 N.am      7 SEP2        0.0000 
     33 CA         -6.0665   66.3130  -70.2125 C.3       5 GLC5        0.0000 
     34 CA         -5.6420   68.2490  -70.4390 C.3      15 GLL5        0.0000 
     35 CA         -6.4910   64.3770  -69.9860 C.3      10 GLP5        0.0000 
     36 N          -4.0235   67.2745  -73.1770 N.am      2 SEC2        0.0000 
     37 N          -4.3130   68.6430  -72.4250 N.am     12 SEL2        0.0000 
     38 N          -3.7340   65.9060  -73.9290 N.am      7 SEP2        0.0000 
     39 CA         -3.8850   69.9725  -68.8880 C.3       5 GLC5        0.0000 
     40 CA         -4.2360   70.3750  -70.7890 C.3      15 GLL5        0.0000 
     41 CA         -3.5340   69.5700  -66.9870 C.3      10 GLP5        0.0000 
     42 O          -2.5805   72.1155  -70.4145 O.2       1 ALC1        0.0000 
     43 O          -2.8860   70.7650  -70.4540 O.2      11 ALL1        0.0000 
     44 O          -2.2750   73.4660  -70.3750 O.2       6 ALP1        0.0000 
     45 O          -4.9715   73.2110  -72.2225 O.2       1 ALC1        0.0000 
     46 O          -4.1260   72.1880  -72.4620 O.2      11 ALL1        0.0000 
     47 O          -5.8170   74.2340  -71.9830 O.2       6 ALP1        0.0000 
     48 CA         -4.4695   68.0180  -74.0630 C.3       5 GLC5        0.0000 
     49 CA         -4.2030   69.8930  -73.1090 C.3      15 GLL5        0.0000 
     50 CA         -4.7360   66.1430  -75.0170 C.3      10 GLP5        0.0000 
     51 N          -7.6980   68.5550  -76.4135 N.am      2 SEC2        0.0000 
     52 N          -6.8580   69.6100  -75.6410 N.am     12 SEL2        0.0000 
     53 N          -8.5380   67.5000  -77.1860 N.am      7 SEP2        0.0000 
     54 CA         -5.4115   68.1230  -76.9590 C.3       5 GLC5        0.0000 
     55 CA         -5.7130   69.8420  -76.4270 C.3      15 GLL5        0.0000 
     56 CA         -5.1100   66.4040  -77.4910 C.3      10 GLP5        0.0000 
     57 CA         -7.4530   70.9305  -76.8345 C.3       5 GLC5        0.0000 
     58 CA         -9.1930   72.0190  -77.2420 C.3      10 GLP5        0.0000 
     59 N          -7.4705   70.6765  -79.1340 N.am      2 SEC2        0.0000 
     60 N          -6.4100   69.8580  -78.7460 N.am     12 SEL2        0.0000 
     61 N          -8.5310   71.4950  -79.5220 N.am      7 SEP2        0.0000 
     62 O          -4.0200   70.2130  -79.6015 O.2       1 ALC1        0.0000 
     63 O          -4.2180   70.1910  -78.2380 O.2      11 ALL1        0.0000 
     64 O          -3.8220   70.2350  -80.9650 O.2       6 ALP1        0.0000 
     65 O          -1.8740   70.8175  -79.2835 O.2       1 ALC1        0.0000 
     66 O          -1.9260   70.5480  -77.8800 O.2      11 ALL1        0.0000 
     67 O          -1.8220   71.0870  -80.6870 O.2       6 ALP1        0.0000 
     68 CA         -4.6630   68.0620  -75.3155 C.3       5 GLC5        0.0000 
     69 CA         -4.5900   69.9810  -75.6140 C.3      15 GLL5        0.0000 
     70 CA         -4.5245   68.3515  -68.8442 C.3       5 GLC5        0.0000 
     71 CA         -4.3460   68.8530  -70.9960 C.3      15 GLL5        0.0000 
     72 CA         -4.0550   68.1520  -66.9710 C.3      10 GLP5        0.0000 
     73 CA         -4.4078   72.0135  -73.9840 C.3       5 GLC5        0.0000 
     74 CA         -4.7100   70.9370  -72.1130 C.3      15 GLL5        0.0000 
     75 CA         -4.3590   73.6120  -75.3570 C.3      10 GLP5        0.0000 
@<TRIPOS>BOND
@<TRIPOS>SUBSTRUCTURE
     1 ALC1       42 GROUP        1 X    ALC  0     ROOT ALC X 1
     2 SEC2        4 GROUP        1 X    SEC  0     **** SEC X 2
     3 LYC4        7 GROUP        1 X    LYC  0     **** LYC X 4
     4 ZIC7        1 GROUP        1 X    ZIC  0     **** ZIC X 5
     5 GLC5       33 GROUP        1 X    GLC  0     **** GLC X 6
     6 ALP1       44 GROUP        1 Y    ALP  0     ROOT ALP Y 8
     7 SEP2        6 GROUP        1 Y    SEP  0     **** SEP Y 9
     8 LYP4        9 GROUP        1 Y    LYP  0     **** LYP Y 11
     9 ZIP7        3 GROUP        1 Y    ZIP  0     **** ZIP Y 12
    10 GLP5       35 GROUP        1 Y    GLP  0     **** GLP Y 13
    11 ALL1       43 GROUP        1 Z    ALL  0     ROOT ALL Z 15
    12 SEL2        5 GROUP        1 Z    SEL  0     **** SEL Z 16
    13 LYL4        8 GROUP        1 Z    LYL  0     **** LYL Z 18
    14 ZIL7        2 GROUP        1 Z    ZIL  0     **** ZIL Z 19
    15 GLL5       34 GROUP        1 Z    GLL  0     **** GLL Z 20
@<TRIPOS>SET

