#    Name: 2rge_GNP_1_ligand
#    Modification time : Mon Mar 24 23:53:33 2014

@<TRIPOS>MOLECULE
2rge_GNP_1_ligand
   44    46     1     0     0
SMALL
NO_CHARGES


@<TRIPOS>ATOM
      1 PG        -10.0820   65.4520  -66.9180 P.3       1 GNP528      0.0000 
      2 O1G        -9.2380   65.0410  -65.7790 O.co2     1 GNP528      0.0000 
      3 O2G       -11.1400   66.3360  -66.4940 O.co2     1 GNP528      0.0000 
      4 O3G       -10.8660   64.2100  -67.3860 O.co2     1 GNP528      0.0000 
      5 N3B        -9.1680   65.9970  -68.1590 N.4       1 GNP528      0.0000 
      6 PB         -9.7610   66.5800  -69.5950 P.3       1 GNP528      0.0000 
      7 O1B       -10.1360   65.5240  -70.5550 O.co2     1 GNP528      0.0000 
      8 O2B       -10.7790   67.6120  -69.4690 O.co2     1 GNP528      0.0000 
      9 O3A        -8.5060   67.3220  -70.2460 O.3       1 GNP528      0.0000 
     10 PA         -8.1680   68.9230  -70.2560 P.3       1 GNP528      0.0000 
     11 O1A        -9.1350   69.6400  -71.1360 O.co2     1 GNP528      0.0000 
     12 O2A        -7.9560   69.4140  -68.8730 O.co2     1 GNP528      0.0000 
     13 O5'        -6.7940   68.8920  -71.0470 O.3       1 GNP528      0.0000 
     14 C5'        -5.6420   68.2490  -70.4390 C.3       1 GNP528      0.0000 
     15 C4'        -4.3460   68.8530  -70.9960 C.3       1 GNP528      0.0000 
     16 O4'        -4.3130   68.6430  -72.4250 O.3       1 GNP528      0.0000 
     17 C3'        -4.2360   70.3750  -70.7890 C.3       1 GNP528      0.0000 
     18 O3'        -2.8860   70.7650  -70.4540 O.3       1 GNP528      0.0000 
     19 C2'        -4.7100   70.9370  -72.1130 C.3       1 GNP528      0.0000 
     20 O2'        -4.1260   72.1880  -72.4620 O.3       1 GNP528      0.0000 
     21 C1'        -4.2030   69.8930  -73.1090 C.3       1 GNP528      0.0000 
     22 N9         -5.0370   69.8290  -74.3220 N.pl3     1 GNP528      0.0000 
     23 C8         -6.4030   69.6150  -74.4340 C.2       1 GNP528      0.0000 
     24 N7         -6.8580   69.6100  -75.6410 N.2       1 GNP528      0.0000 
     25 C5         -5.7130   69.8420  -76.4270 C.2       1 GNP528      0.0000 
     26 C6         -5.5490   69.9500  -77.8660 C.2       1 GNP528      0.0000 
     27 O6         -6.4100   69.8580  -78.7460 O.2       1 GNP528      0.0000 
     28 N1         -4.2180   70.1910  -78.2380 N.am      1 GNP528      0.0000 
     29 C2         -3.1430   70.3170  -77.3580 C.2       1 GNP528      0.0000 
     30 N2         -1.9260   70.5480  -77.8800 N.pl3     1 GNP528      0.0000 
     31 N3         -3.2950   70.2110  -76.0150 N.2       1 GNP528      0.0000 
     32 C4         -4.5900   69.9810  -75.6140 C.2       1 GNP528      0.0000 
     33 H          -5.6309   67.1754  -70.6481 H         1 GNP528      0.0000 
     34 H          -5.6386   68.3856  -69.3538 H         1 GNP528      0.0000 
     35 H          -3.5040   68.3835  -70.5325 H         1 GNP528      0.0000 
     36 H          -4.9492   70.6415  -70.0362 H         1 GNP528      0.0000 
     37 H          -5.7630   70.9210  -72.1475 H         1 GNP528      0.0000 
     38 H          -3.1916   70.1089  -73.3437 H         1 GNP528      0.0000 
     39 H          -6.9603   69.4778  -73.5984 H         1 GNP528      0.0000 
     40 H          -4.0148   70.2850  -79.2783 H         1 GNP528      0.0000 
     41 H          -1.8689   70.5518  -78.8784 H         1 GNP528      0.0000 
     42 H          -1.1863   70.6955  -77.2234 H         1 GNP528      0.0000 
     43 H          -2.7242   71.6063  -70.9698 H         1 GNP528      0.0000 
     44 H          -4.8356   72.8666  -72.2723 H         1 GNP528      0.0000 
@<TRIPOS>BOND
     1    2    1 ar   
     2    3    1 ar   
     3    4    1 ar   
     4    5    1 1    
     5    6    5 1    
     6    7    6 ar   
     7    8    6 ar   
     8    9    6 1    
     9   10    9 1    
    10   11   10 ar   
    11   12   10 ar   
    12   13   10 1    
    13   14   13 1    
    14   15   14 1    
    15   33   14 1    
    16   34   14 1    
    17   16   15 1    
    18   17   15 1    
    19   35   15 1    
    20   21   16 1    
    21   18   17 1    
    22   19   17 1    
    23   36   17 1    
    24   43   18 1    
    25   20   19 1    
    26   21   19 1    
    27   37   19 1    
    28   44   20 1    
    29   22   21 1    
    30   38   21 1    
    31   23   22 1    
    32   32   22 1    
    33   24   23 2    
    34   39   23 1    
    35   25   24 1    
    36   26   25 1    
    37   32   25 2    
    38   27   26 2    
    39   28   26 am   
    40   29   28 1    
    41   40   28 1    
    42   30   29 1    
    43   31   29 2    
    44   41   30 1    
    45   42   30 1    
    46   32   31 1    
@<TRIPOS>SUBSTRUCTURE
     1 GNP528      1 GROUP   
@<TRIPOS>SET

