#    Name: 4kx8_VAL_VAL_ASP_L2O_1_INTS_M
#    Modification time : Tue Mar 25 09:11:49 2014

@<TRIPOS>MOLECULE
4kx8_VAL_VAL_ASP_L2O_1_INTS_M
   79     0    18     0     0
SMALL
NO_CHARGES


@<TRIPOS>ATOM
      1 O         -13.2630   36.9835   42.2160 O.2       1 ALC1        0.0000 
      2 O         -12.7530   37.6790   40.8670 O.2      13 ALL1        0.0000 
      3 O         -13.7730   36.2880   43.5650 O.2       7 ALP1        0.0000 
      4 N         -16.4205   38.1925   41.3130 N.am      2 SEC2        0.0000 
      5 N         -15.1860   38.6390   41.0200 N.am     14 SEL2        0.0000 
      6 N         -17.6550   37.7460   41.6060 N.am      8 SEP2        0.0000 
      7 N         -15.5830   37.1310   41.5715 N.am      2 SEC2        0.0000 
      8 N         -15.9800   35.6230   42.1230 N.am      8 SEP2        0.0000 
      9 CA        -14.0875   35.7115   36.6710 C.3       6 GLC5        0.0000 
     10 CA        -14.2150   37.8170   37.4410 C.3      18 GLL5        0.0000 
     11 CA        -13.9600   33.6060   35.9010 C.3      12 GLP5        0.0000 
     12 CA        -10.4480   36.2515   38.8505 C.3       6 GLC5        0.0000 
     13 CA        -12.2980   36.5420   38.2130 C.3      18 GLL5        0.0000 
     14 CA         -8.5980   35.9610   39.4880 C.3      12 GLP5        0.0000 
     15 CA        -16.2665   40.8945   41.9920 C.3       6 GLC5        0.0000 
     16 CA        -15.6730   41.1410   39.9890 C.3      18 GLL5        0.0000 
     17 CA        -16.8600   40.6480   43.9950 C.3      12 GLP5        0.0000 
     18 CA        -15.9815   44.7875   41.3950 C.3       6 GLC5        0.0000 
     19 CA        -16.4550   43.5270   39.6980 C.3      18 GLL5        0.0000 
     20 CA        -15.5080   46.0480   43.0920 C.3      12 GLP5        0.0000 
     21 CA        -12.7700   44.3150   41.4660 C.3       6 GLC5        0.0000 
     22 CA        -14.0570   43.0460   40.1340 C.3      18 GLL5        0.0000 
     23 CA        -11.4830   45.5840   42.7980 C.3      12 GLP5        0.0000 
     24 CA        -11.9125   42.5065   40.0185 C.3       6 GLC5        0.0000 
     25 CA         -9.7680   41.9670   39.9030 C.3      12 GLP5        0.0000 
     26 CA        -14.7825   44.5470   41.6130 C.3       6 GLC5        0.0000 
     27 CA        -20.5485   37.1155   38.7685 C.3       6 GLC5        0.0000 
     28 CA        -19.0560   38.4560   37.9430 C.3      18 GLL5        0.0000 
     29 CA        -22.0410   35.7750   39.5940 C.3      12 GLP5        0.0000 
     30 NZ        -17.0565   37.1200   36.1240 N.4       4 LYC4        0.0000 
     31 NZ        -17.6300   36.9350   37.0800 N.4      16 LYL4        0.0000 
     32 NZ        -16.0060   36.5920   34.1670 N.4      10 LYP4        0.0000 
     33 N         -17.7285   35.8055   37.6080 N.am      2 SEC2        0.0000 
     34 N         -17.6300   36.9350   37.0800 N.am     14 SEL2        0.0000 
     35 N         -17.8270   34.6760   38.1360 N.am      8 SEP2        0.0000 
     36 N         -17.0565   37.1200   36.1240 N.am      2 SEC2        0.0000 
     37 N         -16.4830   37.3050   35.1680 N.am      8 SEP2        0.0000 
     38 N         -18.7545   35.7860   37.2330 N.am      2 SEC2        0.0000 
     39 N         -19.6820   36.8960   36.3300 N.am     14 SEL2        0.0000 
     40 N         -18.0825   37.1005   35.7490 N.am      2 SEC2        0.0000 
     41 OD1       -10.1035   39.3330   46.0415 O.co2     3 ASC3        0.0000 
     42 OD1       -10.2760   39.0610   44.8090 O.co2    15 ASL3        0.0000 
     43 OD1        -9.9310   39.6050   47.2740 O.co2     9 ASP3        0.0000 
     44 OD1        -9.8040   37.6930   45.2095 O.co2     3 ASC3        0.0000 
     45 OD1        -9.3320   36.3250   45.6100 O.co2     9 ASP3        0.0000 
     46 OD1        -8.8390   38.1365   45.4775 O.co2     3 ASC3        0.0000 
     47 OD1        -7.4020   37.2120   46.1460 O.co2     9 ASP3        0.0000 
     48 OD1        -9.0220   39.8255   44.1895 O.co2     3 ASC3        0.0000 
     49 OD1        -7.7680   40.5900   43.5700 O.co2     9 ASP3        0.0000 
     50 O         -10.1035   39.3330   46.0415 O.2       1 ALC1        0.0000 
     51 O         -10.2760   39.0610   44.8090 O.2      13 ALL1        0.0000 
     52 O          -9.9310   39.6050   47.2740 O.2       7 ALP1        0.0000 
     53 O          -9.8040   37.6930   45.2095 O.2       1 ALC1        0.0000 
     54 O          -9.3320   36.3250   45.6100 O.2       7 ALP1        0.0000 
     55 O          -9.0220   39.8255   44.1895 O.2       1 ALC1        0.0000 
     56 O          -7.7680   40.5900   43.5700 O.2       7 ALP1        0.0000 
     57 CA        -12.7570   40.6040   47.7140 C.3       6 GLC5        0.0000 
     58 CA        -14.0210   40.5960   46.1470 C.3      18 GLL5        0.0000 
     59 CA        -11.4930   40.6120   49.2810 C.3      12 GLP5        0.0000 
     60 CA        -15.4405   40.6220   45.0710 C.3       6 GLC5        0.0000 
     61 CA        -12.8920   38.8130   46.8695 C.3       6 GLC5        0.0000 
     62 CA        -11.7630   37.0300   47.5920 C.3      12 GLP5        0.0000 
     63 Zn         -9.2450   37.7615   42.0275 Zn        5 ZIC7        0.0000 
     64 Zn        -10.0520   37.4670   42.5490 Zn       17 ZIL7        0.0000 
     65 Zn         -8.4380   38.0560   41.5060 Zn       11 ZIP7        0.0000 
     66 O         -10.0085   36.0525   42.6370 O.2       1 ALC1        0.0000 
     67 O         -10.0520   37.4670   42.5490 O.2      13 ALL1        0.0000 
     68 O          -9.9650   34.6380   42.7250 O.2       7 ALP1        0.0000 
     69 CA        -13.2603   34.8930   38.3438 C.3       6 GLC5        0.0000 
     70 CA        -13.5820   32.9100   38.2580 C.3      12 GLP5        0.0000 
     71 CA        -18.0855   37.8310   39.2325 C.3       6 GLC5        0.0000 
     72 CA        -18.1300   39.5720   37.6550 C.3      18 GLL5        0.0000 
     73 CA        -17.5780   36.6480   40.6660 C.3      12 GLP5        0.0000 
     74 CA        -11.9228   38.1322   45.8397 C.3       6 GLC5        0.0000 
     75 CA        -12.8040   39.2980   44.3780 C.3      18 GLL5        0.0000 
     76 CA        -11.7735   42.5042   44.2408 C.3       6 GLC5        0.0000 
     77 CA        -13.6720   41.6060   43.8810 C.3      18 GLL5        0.0000 
     78 CA        -10.1840   43.8540   44.0670 C.3      12 GLP5        0.0000 
     79 CA        -15.0802   40.7256   44.1335 C.3       6 GLC5        0.0000 
@<TRIPOS>BOND
@<TRIPOS>SUBSTRUCTURE
     1 ALC1        1 GROUP        1 X    ALC  0     ROOT ALC X 1
     2 SEC2        4 GROUP        1 X    SEC  0     **** SEC X 2
     3 ASC3       41 GROUP        1 X    ASC  0     **** ASC X 3
     4 LYC4       30 GROUP        1 X    LYC  0     **** LYC X 4
     5 ZIC7       63 GROUP        1 X    ZIC  0     **** ZIC X 5
     6 GLC5        9 GROUP        1 X    GLC  0     **** GLC X 6
     7 ALP1        3 GROUP        1 Y    ALP  0     ROOT ALP Y 8
     8 SEP2        6 GROUP        1 Y    SEP  0     **** SEP Y 9
     9 ASP3       43 GROUP        1 Y    ASP  0     **** ASP Y 10
    10 LYP4       32 GROUP        1 Y    LYP  0     **** LYP Y 11
    11 ZIP7       65 GROUP        1 Y    ZIP  0     **** ZIP Y 12
    12 GLP5       11 GROUP        1 Y    GLP  0     **** GLP Y 13
    13 ALL1        2 GROUP        1 Z    ALL  0     ROOT ALL Z 15
    14 SEL2        5 GROUP        1 Z    SEL  0     **** SEL Z 16
    15 ASL3       42 GROUP        1 Z    ASL  0     **** ASL Z 17
    16 LYL4       31 GROUP        1 Z    LYL  0     **** LYL Z 18
    17 ZIL7       64 GROUP        1 Z    ZIL  0     **** ZIL Z 19
    18 GLL5       10 GROUP        1 Z    GLL  0     **** GLL Z 20
@<TRIPOS>SET

