#    Name: 4kx8_VAL_VAL_ASP_L2O_1_ligand
#    Modification time : Tue Mar 25 09:11:49 2014

@<TRIPOS>MOLECULE
4kx8_VAL_VAL_ASP_L2O_1_ligand
   70    69     4     0     0
SMALL
NO_CHARGES


@<TRIPOS>ATOM
      1 N         -12.7530   37.6790   40.8670 N.am      1 VAL2        0.0000
      2 CA        -13.2620   38.2810   39.6770 C.3       1 VAL2        0.0000
      3 C         -14.4740   39.0570   40.1270 C.2       1 VAL2        0.0000
      4 O         -15.1860   38.6390   41.0200 O.2       1 VAL2        0.0000
      5 CB        -13.5790   37.2100   38.6460 C.3       1 VAL2        0.0000
      6 CG1       -14.2150   37.8170   37.4410 C.3       1 VAL2        0.0000
      7 CG2       -12.2980   36.5420   38.2130 C.3       1 VAL2        0.0000
      8 HNCA      -13.0124   36.8339   41.2060 H         1 VAL2        0.0000
      9 HA        -12.5439   38.9705   39.2724 H         1 VAL2        0.0000
     10 HB        -14.2278   36.4814   39.0762 H         1 VAL2        0.0000
     11 H         -13.6174   38.4897   37.0047 H         1 VAL2        0.0000
     12 H         -14.4344   37.1282   36.7501 H         1 VAL2        0.0000
     13 H         -15.0682   38.2865   37.6681 H         1 VAL2        0.0000
     14 HG21      -11.6594   37.1935   37.8035 H         1 VAL2        0.0000
     15 HG22      -11.8251   36.1120   38.9820 H         1 VAL2        0.0000
     16 HG23      -12.4632   35.8270   37.5336 H         1 VAL2        0.0000
     17 N         -14.6570   40.2270   39.5540 N.am      2 VAL3        0.0000
     18 CA        -15.6730   41.1410   39.9890 C.3       2 VAL3        0.0000
     19 C         -17.0550   40.7460   39.5070 C.2       2 VAL3        0.0000
     20 O         -18.0140   41.2800   39.9350 O.2       2 VAL3        0.0000
     21 CB        -15.3240   42.5480   39.4830 C.3       2 VAL3        0.0000
     22 CG1       -16.4550   43.5270   39.6980 C.3       2 VAL3        0.0000
     23 CG2       -14.0570   43.0460   40.1340 C.3       2 VAL3        0.0000
     24 HNCA      -14.0659   40.5490   38.7478 H         2 VAL3        0.0000
     25 HA        -15.6953   41.1969   41.0792 H         2 VAL3        0.0000
     26 HB        -15.1384   42.4715   38.4026 H         2 VAL3        0.0000
     27 H         -16.6899   43.6164   40.6659 H         2 VAL3        0.0000
     28 H         -16.2225   44.4416   39.3671 H         2 VAL3        0.0000
     29 H         -17.2865   43.2448   39.2195 H         2 VAL3        0.0000
     30 HG21      -13.2789   42.4497   39.9366 H         2 VAL3        0.0000
     31 HG22      -13.8119   43.9622   39.8170 H         2 VAL3        0.0000
     32 HG23      -14.1447   43.0938   41.1290 H         2 VAL3        0.0000
     33 N         -17.1100   39.7720   38.6430 N.am      3 ASP4        0.0000
     34 CA        -18.1300   39.5720   37.6550 C.3       3 ASP4        0.0000
     35 C         -18.8790   40.7060   37.0560 C.2       3 ASP4        0.0000
     36 O         -18.7170   40.7390   35.7980 O.2       3 ASP4        0.0000
     37 CB        -19.0560   38.4560   37.9430 C.3       3 ASP4        0.0000
     38 CG        -18.7930   37.3470   37.0640 C.2       3 ASP4        0.0000
     39 OD1       -17.6300   36.9350   37.0800 O.co2     3 ASP4        0.0000
     40 OD2       -19.6820   36.8960   36.3300 O.co2     3 ASP4        0.0000
     41 OXT       -19.5740   41.4730   37.7720 O.2       3 ASP4        0.0000
     42 HNCA      -16.3368   39.0171   38.6289 H         3 ASP4        0.0000
     43 HA        -17.5373   39.1280   36.6967 H         3 ASP4        0.0000
     44 HB2       -20.0934   38.8090   37.8235 H         3 ASP4        0.0000
     45 HB3       -18.9384   38.1533   38.9964 H         3 ASP4        0.0000
     46 N         -10.2760   39.0610   44.8090 N.4       4 L2O1        0.0000
     47 C1        -11.3610   39.1710   43.7970 C.3       4 L2O1        0.0000
     48 C2        -12.8040   39.2980   44.3780 C.3       4 L2O1        0.0000
     49 C3        -13.0540   40.7030   44.9480 C.3       4 L2O1        0.0000
     50 C4        -13.6720   41.6060   43.8810 C.3       4 L2O1        0.0000
     51 C5        -14.0210   40.5960   46.1470 C.3       4 L2O1        0.0000
     52 C6        -11.3590   37.9890   42.8200 C.3       4 L2O1        0.0000
     53 O1        -10.0520   37.4670   42.5490 O.3       4 L2O1        0.0000
     54 C         -11.7760   38.5400   41.4960 C.2       4 L2O1        0.0000
     55 O         -10.9480   39.2600   40.9020 O.co2     4 L2O1        0.0000
     56 H         -11.1992   40.0772   43.1794 H         4 L2O1        0.0000
     57 H         -12.9262   38.5597   45.1652 H         4 L2O1        0.0000
     58 H         -13.5161   39.0967   43.5829 H         4 L2O1        0.0000
     59 H         -12.1339   41.1186   45.2828 H         4 L2O1        0.0000
     60 H         -12.0431   37.2595   43.1188 H         4 L2O1        0.0000
     61 H         -10.5092   39.5373   45.6568 H         4 L2O1        0.0000
     62 H         -10.0880   38.1088   45.0500 H         4 L2O1        0.0000
     63 H          -9.4182   39.4545   44.4782 H         4 L2O1        0.0000
     64 H         -13.0766   41.6991   43.0830 H         4 L2O1        0.0000
     65 H         -14.5470   41.2492   43.5539 H         4 L2O1        0.0000
     66 H         -13.8429   42.5280   44.2283 H         4 L2O1        0.0000
     67 H         -13.6484   40.0196   46.8743 H         4 L2O1        0.0000
     68 H         -14.2122   41.4906   46.5509 H         4 L2O1        0.0000
     69 H         -14.9001   40.2006   45.8810 H         4 L2O1        0.0000
     70 H         -10.1405   36.4772   42.6608 H         4 L2O1        0.0000
@<TRIPOS>BOND
     1    2    1 1
     2    8    1 1
     3    3    2 1
     4    5    2 1
     5    9    2 1
     6    4    3 2
     7    6    5 1
     8    7    5 1
     9   10    5 1
    10   11    6 1
    11   12    6 1
    12   13    6 1
    13   14    7 1
    14   15    7 1
    15   16    7 1
    16   18   17 1
    17   24   17 1
    18   19   18 1
    19   21   18 1
    20   25   18 1
    21   20   19 2
    22   22   21 1
    23   23   21 1
    24   26   21 1
    25   27   22 1
    26   28   22 1
    27   29   22 1
    28   30   23 1
    29   31   23 1
    30   32   23 1
    31   34   33 1
    32   42   33 1
    33   35   34 1
    34   37   34 1
    35   43   34 1
    36   36   35 2
    37   41   35 2
    38   38   37 1
    39   44   37 1
    40   45   37 1
    41   39   38 ar
    42   40   38 ar
    43   47   46 1
    44   61   46 1
    45   62   46 1
    46   63   46 1
    47   48   47 1
    48   52   47 1
    49   56   47 1
    50   49   48 1
    51   57   48 1
    52   58   48 1
    53   50   49 1
    54   51   49 1
    55   59   49 1
    56   64   50 1
    57   65   50 1
    58   66   50 1
    59   67   51 1
    60   68   51 1
    61   69   51 1
    62   53   52 1
    63   54   52 1
    64   60   52 1
    65   70   53 1
    66   55   54 ar
    67   54    1 1 
    68   17    3 am
    69   33   19 am
@<TRIPOS>SUBSTRUCTURE
     1 VAL2        1 RESIDUE
     2 VAL3       17 RESIDUE
     3 ASP4       33 RESIDUE
     4 L2O1       46 GROUP
@<TRIPOS>SET

