#    Name: 1qjx_W02_1_INTS_M
#    Modification time : Mon Mar 24 23:35:28 2014

@<TRIPOS>MOLECULE
1qjx_W02_1_INTS_M
   62     0     3     0     0
SMALL
NO_CHARGES


@<TRIPOS>ATOM
      1 CA        128.9475 -123.4130   14.8065 C.3       1 GLC5        0.0000 
      2 CA        127.1140 -123.7540   13.8990 C.3       3 GLL5        0.0000 
      3 CA        130.7810 -123.0720   15.7140 C.3       2 GLP5        0.0000 
      4 CA        125.9760 -122.3230   13.4070 C.3       1 GLC5        0.0000 
      5 CA        124.8380 -120.8920   12.9150 C.3       2 GLP5        0.0000 
      6 CA        125.8980 -123.1910   15.5095 C.3       1 GLC5        0.0000 
      7 CA        124.6820 -122.6280   17.1200 C.3       2 GLP5        0.0000 
      8 CA        130.5685 -121.8565    8.9880 C.3       1 GLC5        0.0000 
      9 CA        130.9710 -122.8610   10.7460 C.3       3 GLL5        0.0000 
     10 CA        130.1660 -120.8520    7.2300 C.3       2 GLP5        0.0000 
     11 CA        132.7175 -123.4920   13.3185 C.3       1 GLC5        0.0000 
     12 CA        132.3750 -122.9740   11.2840 C.3       3 GLL5        0.0000 
     13 CA        133.0600 -124.0100   15.3530 C.3       2 GLP5        0.0000 
     14 CA        133.4160 -121.6045   12.6900 C.3       1 GLC5        0.0000 
     15 CA        134.4570 -120.2350   14.0960 C.3       2 GLP5        0.0000 
     16 CA        134.9685 -121.0865   10.4195 C.3       1 GLC5        0.0000 
     17 CA        133.3790 -122.4880   10.2680 C.3       3 GLL5        0.0000 
     18 CA        136.5580 -119.6850   10.5710 C.3       2 GLP5        0.0000 
     19 CA        133.9925 -121.0825    8.9540 C.3       1 GLC5        0.0000 
     20 CA        134.6060 -119.6770    7.6400 C.3       2 GLP5        0.0000 
     21 CA        136.5680 -124.3560   12.3095 C.3       1 GLC5        0.0000 
     22 CA        136.5240 -124.0340   10.3820 C.3       3 GLL5        0.0000 
     23 CA        136.6120 -124.6780   14.2370 C.3       2 GLP5        0.0000 
     24 CA        136.7365 -126.1230   10.8490 C.3       1 GLC5        0.0000 
     25 CA        136.9490 -128.2120   11.3160 C.3       2 GLP5        0.0000 
     26 CA        138.4065 -124.0120   11.2855 C.3       1 GLC5        0.0000 
     27 CA        140.2890 -123.9900   12.1890 C.3       2 GLP5        0.0000 
     28 CA        135.9325 -123.4625    4.2505 C.3       1 GLC5        0.0000 
     29 CA        135.4480 -122.9230    6.3320 C.3       3 GLL5        0.0000 
     30 CA        136.4170 -124.0020    2.1690 C.3       2 GLP5        0.0000 
     31 CA        133.1270 -124.0840    5.3730 C.3       1 GLC5        0.0000 
     32 CA        133.0090 -122.9810    6.8590 C.3       3 GLL5        0.0000 
     33 CA        133.2450 -125.1870    3.8870 C.3       2 GLP5        0.0000 
     34 CA        131.5875 -121.9165    7.0445 C.3       1 GLC5        0.0000 
     35 CA        137.8825 -122.8515    2.4195 C.3       1 GLC5        0.0000 
     36 CA        139.3480 -121.7010    2.6700 C.3       3 GLL5        0.0000 
     37 CA        138.4985 -120.8945    1.0550 C.3       1 GLC5        0.0000 
     38 CA        137.6490 -120.0880   -0.5600 C.3       2 GLP5        0.0000 
     39 CA        140.5470 -121.9645    0.9270 C.3       1 GLC5        0.0000 
     40 CA        141.7460 -122.2280   -0.8160 C.3       2 GLP5        0.0000 
     41 CA        141.0270 -120.7750    2.8470 C.3       1 GLC5        0.0000 
     42 CA        142.7060 -119.8490    3.0240 C.3       2 GLP5        0.0000 
     43 CA        139.5095 -120.9670    4.6925 C.3       1 GLC5        0.0000 
     44 CA        139.6710 -120.2330    6.7150 C.3       2 GLP5        0.0000 
     45 CA        130.1372 -123.0572   13.8920 C.3       1 GLC5        0.0000 
     46 CA        130.0150 -123.3180   11.7510 C.3       3 GLL5        0.0000 
     47 CA        129.3466 -123.0724    9.9155 C.3       1 GLC5        0.0000 
     48 CA        128.4610 -123.1930    8.4230 C.3       2 GLP5        0.0000 
     49 CA        133.1770 -124.6975   10.3225 C.3       1 GLC5        0.0000 
     50 CA        133.4770 -126.6640    9.8690 C.3       2 GLP5        0.0000 
     51 CA        135.0337 -121.6227    8.2220 C.3       1 GLC5        0.0000 
     52 CA        134.7750 -123.4840    8.6450 C.3       3 GLL5        0.0000 
     53 CA        134.7349 -125.2326    9.7310 C.3       1 GLC5        0.0000 
     54 CA        137.2933 -122.0369    9.7729 C.3       1 GLC5        0.0000 
     55 CA        136.1480 -123.6530    8.9630 C.3       3 GLL5        0.0000 
     56 CA        137.8330 -120.4190   10.7100 C.3       2 GLP5        0.0000 
     57 CA        135.3685 -121.3425    7.0723 C.3       1 GLC5        0.0000 
     58 CA        136.8140 -123.0930    6.6770 C.3       3 GLL5        0.0000 
     59 CA        134.1685 -121.3642    7.3598 C.3       1 GLC5        0.0000 
     60 CA        134.4530 -123.1220    7.3000 C.3       3 GLL5        0.0000 
     61 CA        134.1929 -124.9514    6.8498 C.3       1 GLC5        0.0000 
     62 CA        134.4060 -126.9010    6.8620 C.3       2 GLP5        0.0000 
@<TRIPOS>BOND
@<TRIPOS>SUBSTRUCTURE
     1 GLC5        1 GROUP        1 X    GLC  0     ROOT GLC X 6
     2 GLP5        3 GROUP        1 Y    GLP  0     ROOT GLP Y 13
     3 GLL5        2 GROUP        1 Z    GLL  0     ROOT GLL Z 20
@<TRIPOS>SET

