#    Name: 1qjx_W02_1_ligand
#    Modification time : Mon Mar 24 23:35:28 2014

@<TRIPOS>MOLECULE
1qjx_W02_1_ligand
   45    47     1     0     0
SMALL
NO_CHARGES


@<TRIPOS>ATOM
      1 O1        130.0340 -124.6470   11.9770 O.3       1 W027002     0.0000 
      2 N2        128.9260 -124.9580   12.8150 N.2       1 W027002     0.0000 
      3 C3        128.3240 -123.8180   13.0370 C.2       1 W027002     0.0000 
      4 CM3       127.1140 -123.7540   13.8990 C.3       1 W027002     0.0000 
      5 C4        128.9720 -122.7670   12.3890 C.2       1 W027002     0.0000 
      6 C5        130.0150 -123.3180   11.7510 C.2       1 W027002     0.0000 
      7 C1C       130.9710 -122.8610   10.7460 C.3       1 W027002     0.0000 
      8 C2C       132.3750 -122.9740   11.2840 C.3       1 W027002     0.0000 
      9 C3C       133.3790 -122.4880   10.2680 C.3       1 W027002     0.0000 
     10 O1B       133.8160 -123.6180    9.6190 O.3       1 W027002     0.0000 
     11 C1B       134.7750 -123.4840    8.6450 C.ar      1 W027002     0.0000 
     12 C2B       136.1480 -123.6530    8.9630 C.ar      1 W027002     0.0000 
     13 CM2       136.5240 -124.0340   10.3820 C.3       1 W027002     0.0000 
     14 C3B       137.1710 -123.4660    7.9990 C.ar      1 W027002     0.0000 
     15 C4B       136.8140 -123.0930    6.6770 C.ar      1 W027002     0.0000 
     16 C5B       135.4480 -122.9230    6.3320 C.ar      1 W027002     0.0000 
     17 C6B       134.4530 -123.1220    7.3000 C.ar      1 W027002     0.0000 
     18 CM6       133.0090 -122.9810    6.8590 C.3       1 W027002     0.0000 
     19 N2A       137.8790 -122.8450    5.6660 N.pl3     1 W027002     0.0000 
     20 N1A       139.1000 -123.2280    5.8810 N.2       1 W027002     0.0000 
     21 N3A       137.6850 -122.2330    4.4800 N.2       1 W027002     0.0000 
     22 C4A       138.9170 -122.2630    3.9700 C.2       1 W027002     0.0000 
     23 CM4       139.3480 -121.7010    2.6700 C.3       1 W027002     0.0000 
     24 N5A       139.7900 -122.8720    4.8180 N.2       1 W027002     0.0000 
     25 H         128.7053 -121.8635   12.4144 H         1 W027002     0.0000 
     26 H         130.7799 -121.8169   10.4777 H         1 W027002     0.0000 
     27 H         130.8932 -123.4648    9.8361 H         1 W027002     0.0000 
     28 H         132.5863 -124.0170   11.5329 H         1 W027002     0.0000 
     29 H         132.4641 -122.3783   12.1960 H         1 W027002     0.0000 
     30 H         134.1692 -121.9681   10.8050 H         1 W027002     0.0000 
     31 H         132.8723 -121.7841    9.6115 H         1 W027002     0.0000 
     32 H         138.1432 -123.5967    8.2499 H         1 W027002     0.0000 
     33 H         135.1978 -122.6563    5.3791 H         1 W027002     0.0000 
     34 H         127.3022 -124.0738   14.8276 H         1 W027002     0.0000 
     35 H         126.7618 -122.8213   13.9760 H         1 W027002     0.0000 
     36 H         126.3714 -124.3189   13.5393 H         1 W027002     0.0000 
     37 H         137.5139 -124.1222   10.4930 H         1 W027002     0.0000 
     38 H         136.2145 -123.3516   11.0442 H         1 W027002     0.0000 
     39 H         136.1198 -124.9081   10.6513 H         1 W027002     0.0000 
     40 H         132.9385 -122.7210    5.8960 H         1 W027002     0.0000 
     41 H         132.5017 -123.8356    6.9698 H         1 W027002     0.0000 
     42 H         132.5258 -122.2828    7.3872 H         1 W027002     0.0000 
     43 H         140.3231 -121.8500    2.5059 H         1 W027002     0.0000 
     44 H         138.8553 -122.1152    1.9047 H         1 W027002     0.0000 
     45 H         139.1899 -120.7148    2.6210 H         1 W027002     0.0000 
@<TRIPOS>BOND
     1    2    1 1    
     2    6    1 1    
     3    3    2 2    
     4    4    3 1    
     5    5    3 1    
     6   34    4 1    
     7   35    4 1    
     8   36    4 1    
     9    6    5 2    
    10   25    5 1    
    11    7    6 1    
    12    8    7 1    
    13   26    7 1    
    14   27    7 1    
    15    9    8 1    
    16   28    8 1    
    17   29    8 1    
    18   10    9 1    
    19   30    9 1    
    20   31    9 1    
    21   11   10 1    
    22   12   11 ar   
    23   17   11 ar   
    24   13   12 1    
    25   14   12 ar   
    26   37   13 1    
    27   38   13 1    
    28   39   13 1    
    29   15   14 ar   
    30   32   14 1    
    31   16   15 ar   
    32   19   15 1    
    33   17   16 ar   
    34   33   16 1    
    35   18   17 1    
    36   40   18 1    
    37   41   18 1    
    38   42   18 1    
    39   20   19 1    
    40   21   19 1    
    41   24   20 2    
    42   22   21 2    
    43   23   22 1    
    44   24   22 1    
    45   43   23 1    
    46   44   23 1    
    47   45   23 1    
@<TRIPOS>SUBSTRUCTURE
     1 W027002     1 GROUP   
@<TRIPOS>SET

