#    Name: 1uys_H1L_3_INTS_M
#    Modification time : Tue Mar 25 07:21:58 2014

@<TRIPOS>MOLECULE
1uys_H1L_3_INTS_M
   78     0     6     0     0
SMALL
NO_CHARGES


@<TRIPOS>ATOM
      1 N          48.8465  -42.0605   66.1495 N.am      1 SEC2        0.0000 
      2 N          48.2180  -41.4570   64.9280 N.am      5 SEL2        0.0000 
      3 N          49.4750  -42.6640   67.3710 N.am      3 SEP2        0.0000 
      4 N          48.9480  -42.1185   63.6420 N.am      1 SEC2        0.0000 
      5 N          49.6780  -42.7800   62.3560 N.am      3 SEP2        0.0000 
      6 CA         46.9010  -36.9775   64.9335 C.3       2 GLC5        0.0000 
      7 CA         47.4200  -38.3900   64.1880 C.3       6 GLL5        0.0000 
      8 CA         46.3820  -35.5650   65.6790 C.3       4 GLP5        0.0000 
      9 CA         49.4745  -37.7545   63.8145 C.3       2 GLC5        0.0000 
     10 CA         51.5290  -37.1190   63.4410 C.3       4 GLP5        0.0000 
     11 CA         44.9390  -38.4035   58.7435 C.3       2 GLC5        0.0000 
     12 CA         44.6900  -38.8380   56.7020 C.3       6 GLL5        0.0000 
     13 CA         45.1880  -37.9690   60.7850 C.3       4 GLP5        0.0000 
     14 CA         42.3815  -36.6220   54.4105 C.3       2 GLC5        0.0000 
     15 CA         43.8010  -37.9600   54.4800 C.3       6 GLL5        0.0000 
     16 CA         40.9620  -35.2840   54.3410 C.3       4 GLP5        0.0000 
     17 CA         42.7875  -35.9430   55.2255 C.3       2 GLC5        0.0000 
     18 CA         44.2210  -36.7360   54.7770 C.3       6 GLL5        0.0000 
     19 CA         41.3540  -35.1500   55.6740 C.3       4 GLP5        0.0000 
     20 CA         44.8005  -35.8085   53.0740 C.3       2 GLC5        0.0000 
     21 CA         45.3800  -34.8810   51.3710 C.3       4 GLP5        0.0000 
     22 CA         42.0765  -37.2090   53.4130 C.3       2 GLC5        0.0000 
     23 CA         43.9990  -38.1900   53.1890 C.3       6 GLL5        0.0000 
     24 CA         40.1540  -36.2280   53.6370 C.3       4 GLP5        0.0000 
     25 CA         43.3335  -37.9795   51.4995 C.3       2 GLC5        0.0000 
     26 CA         42.6680  -37.7690   49.8100 C.3       4 GLP5        0.0000 
     27 CA         45.6265  -38.6305   52.2260 C.3       2 GLC5        0.0000 
     28 CA         47.2540  -39.0710   51.2630 C.3       4 GLP5        0.0000 
     29 CA         44.6895  -36.5355   52.2800 C.3       2 GLC5        0.0000 
     30 CA         40.9840  -37.7405   54.4865 C.3       2 GLC5        0.0000 
     31 CA         42.5050  -38.0530   54.7470 C.3       6 GLL5        0.0000 
     32 CA         39.4630  -37.4280   54.2260 C.3       4 GLP5        0.0000 
     33 CA         41.2245  -39.3005   55.4195 C.3       2 GLC5        0.0000 
     34 CA         39.9440  -40.5480   56.0920 C.3       4 GLP5        0.0000 
     35 CA         46.2055  -39.5790   52.9860 C.3       2 GLC5        0.0000 
     36 CA         45.1570  -40.0870   54.7090 C.3       6 GLL5        0.0000 
     37 CA         44.5180  -42.0740   53.9930 C.3       2 GLC5        0.0000 
     38 CA         46.5800  -42.4010   54.7910 C.3       6 GLL5        0.0000 
     39 CA         42.4560  -41.7470   53.1950 C.3       4 GLP5        0.0000 
     40 CA         46.5185  -43.2205   53.3825 C.3       2 GLC5        0.0000 
     41 CA         46.4570  -44.0400   51.9740 C.3       4 GLP5        0.0000 
     42 CA         48.1200  -41.7215   55.0885 C.3       2 GLC5        0.0000 
     43 CA         49.6600  -41.0420   55.3860 C.3       4 GLP5        0.0000 
     44 CA         45.5080  -43.6085   55.5060 C.3       2 GLC5        0.0000 
     45 CA         44.4360  -44.8160   56.2210 C.3       4 GLP5        0.0000 
     46 CA         45.5053  -38.2155   64.0535 C.3       2 GLC5        0.0000 
     47 CA         47.1710  -39.7740   63.5700 C.3       6 GLL5        0.0000 
     48 CA         43.7150  -37.3490   64.2280 C.3       4 GLP5        0.0000 
     49 CA         46.2418  -38.5255   62.3320 C.3       2 GLC5        0.0000 
     50 CA         48.1322  -39.6955   65.7685 C.3       2 GLC5        0.0000 
     51 CA         48.9690  -40.3090   67.6580 C.3       4 GLP5        0.0000 
     52 CA         46.1715  -39.3937   61.0352 C.3       2 GLC5        0.0000 
     53 CA         47.7190  -40.4050   61.3610 C.3       6 GLL5        0.0000 
     54 CA         49.0085  -41.5083   61.5092 C.3       2 GLC5        0.0000 
     55 CA         46.5910  -41.2320   61.2100 C.3       6 GLL5        0.0000 
     56 CA         50.8620  -42.1980   61.7330 C.3       4 GLP5        0.0000 
     57 CA         45.8875  -39.7245   60.0910 C.3       2 GLC5        0.0000 
     58 CA         46.2190  -41.6680   59.9650 C.3       6 GLL5        0.0000 
     59 CA         47.2445  -42.7671   61.5771 C.3       2 GLC5        0.0000 
     60 CA         47.8020  -44.2910   62.5290 C.3       4 GLP5        0.0000 
     61 CA         45.8580  -43.3320   58.4540 C.3       2 GLC5        0.0000 
     62 CA         45.1290  -45.1840   57.5110 C.3       4 GLP5        0.0000 
     63 CA         46.7218  -39.1073   60.2002 C.3       2 GLC5        0.0000 
     64 CA         48.0670  -40.4680   58.9880 C.3       6 GLL5        0.0000 
     65 CA         49.5588  -41.2218   60.6743 C.3       2 GLC5        0.0000 
     66 CA         48.4440  -40.0230   60.2430 C.3       6 GLL5        0.0000 
     67 CA         48.1346  -38.5770   59.9175 C.3       2 GLC5        0.0000 
     68 CA         48.1950  -36.8130   59.9400 C.3       4 GLP5        0.0000 
     69 CA         49.0596  -41.3774   58.3986 C.3       2 GLC5        0.0000 
     70 CA         50.5140  -41.9860   57.5750 C.3       4 GLP5        0.0000 
     71 CA         45.1538  -42.8668   56.2037 C.3       2 GLC5        0.0000 
     72 CA         45.9180  -40.8160   56.8830 C.3       6 GLL5        0.0000 
     73 CA         45.8770  -37.5678   56.0147 C.3       2 GLC5        0.0000 
     74 CA         44.5820  -38.9870   55.3090 C.3       6 GLL5        0.0000 
     75 CA         47.1180  -36.2230   56.0240 C.3       4 GLP5        0.0000 
     76 CA         45.5645  -36.7855   55.3263 C.3       2 GLC5        0.0000 
     77 CA         42.8781  -39.9697   53.7947 C.3       2 GLC5        0.0000 
     78 CA         43.9735  -41.1500   54.1472 C.3       2 GLC5        0.0000 
@<TRIPOS>BOND
@<TRIPOS>SUBSTRUCTURE
     1 SEC2        1 GROUP        1 X    SEC  0     ROOT SEC X 2
     2 GLC5        6 GROUP        1 X    GLC  0     **** GLC X 6
     3 SEP2        3 GROUP        1 Y    SEP  0     ROOT SEP Y 9
     4 GLP5        8 GROUP        1 Y    GLP  0     **** GLP Y 13
     5 SEL2        2 GROUP        1 Z    SEL  0     ROOT SEL Z 16
     6 GLL5        7 GROUP        1 Z    GLL  0     **** GLL Z 20
@<TRIPOS>SET

