#    Name: 1uys_H1L_3_ligand
#    Modification time : Tue Mar 25 07:21:59 2014

@<TRIPOS>MOLECULE
1uys_H1L_3_ligand
   34    35     1     0     0
SMALL
NO_CHARGES


@<TRIPOS>ATOM
      1 O1A        46.1410  -41.0990   65.2740 O.co2     1 H1L3000     0.0000 
      2 C1         47.1750  -40.8340   64.6570 C.2       1 H1L3000     0.0000 
      3 O1B        48.2180  -41.4570   64.9280 O.co2     1 H1L3000     0.0000 
      4 C2         47.1710  -39.7740   63.5700 C.3       1 H1L3000     0.0000 
      5 C2A        47.4200  -38.3900   64.1880 C.3       1 H1L3000     0.0000 
      6 O2         48.1910  -40.0620   62.5970 O.3       1 H1L3000     0.0000 
      7 C3         47.7190  -40.4050   61.3610 C.ar      1 H1L3000     0.0000 
      8 C4         46.5910  -41.2320   61.2100 C.ar      1 H1L3000     0.0000 
      9 C5         46.2190  -41.6680   59.9650 C.ar      1 H1L3000     0.0000 
     10 C6         48.4440  -40.0230   60.2430 C.ar      1 H1L3000     0.0000 
     11 C7         48.0670  -40.4680   58.9880 C.ar      1 H1L3000     0.0000 
     12 C8         46.9550  -41.2920   58.8290 C.ar      1 H1L3000     0.0000 
     13 O8         46.6000  -41.7350   57.6040 O.3       1 H1L3000     0.0000 
     14 C9         45.9180  -40.8160   56.8830 C.ar      1 H1L3000     0.0000 
     15 N9         45.3430  -39.7340   57.4190 N.ar      1 H1L3000     0.0000 
     16 C10        44.6900  -38.8380   56.7020 C.ar      1 H1L3000     0.0000 
     17 C11        44.5820  -38.9870   55.3090 C.ar      1 H1L3000     0.0000 
     18 C12        43.8010  -37.9600   54.4800 C.3       1 H1L3000     0.0000 
     19 F1         44.2210  -36.7360   54.7770 F         1 H1L3000     0.0000 
     20 F2         43.9990  -38.1900   53.1890 F         1 H1L3000     0.0000 
     21 F3         42.5050  -38.0530   54.7470 F         1 H1L3000     0.0000 
     22 C13        45.1570  -40.0870   54.7090 C.ar      1 H1L3000     0.0000 
     23 C14        45.8250  -41.0190   55.4900 C.ar      1 H1L3000     0.0000 
     24 CL1        46.5800  -42.4010   54.7910 Cl        1 H1L3000     0.0000 
     25 H          46.1931  -39.7594   63.1111 H         1 H1L3000     0.0000 
     26 H          46.0542  -41.5014   62.0468 H         1 H1L3000     0.0000 
     27 H          45.3942  -42.2777   59.8452 H         1 H1L3000     0.0000 
     28 H          49.2636  -39.4076   60.3474 H         1 H1L3000     0.0000 
     29 H          48.6142  -40.1880   58.1563 H         1 H1L3000     0.0000 
     30 H          44.2405  -38.0054   57.1343 H         1 H1L3000     0.0000 
     31 H          45.0936  -40.2191   53.6924 H         1 H1L3000     0.0000 
     32 H          48.3008  -38.3468   64.6594 H         1 H1L3000     0.0000 
     33 H          47.4227  -37.6689   63.4952 H         1 H1L3000     0.0000 
     34 H          46.7171  -38.1504   64.8577 H         1 H1L3000     0.0000 
@<TRIPOS>BOND
     1    2    1 ar   
     2    3    2 ar   
     3    4    2 1    
     4    5    4 1    
     5    6    4 1    
     6   25    4 1    
     7   32    5 1    
     8   33    5 1    
     9   34    5 1    
    10    7    6 1    
    11    8    7 ar   
    12   10    7 ar   
    13    9    8 ar   
    14   26    8 1    
    15   12    9 ar   
    16   27    9 1    
    17   11   10 ar   
    18   28   10 1    
    19   12   11 ar   
    20   29   11 1    
    21   13   12 1    
    22   14   13 1    
    23   15   14 ar   
    24   23   14 ar   
    25   16   15 ar   
    26   17   16 ar   
    27   30   16 1    
    28   18   17 1    
    29   22   17 ar   
    30   19   18 1    
    31   20   18 1    
    32   21   18 1    
    33   23   22 ar   
    34   31   22 1    
    35   24   23 1    
@<TRIPOS>SUBSTRUCTURE
     1 H1L3000     1 GROUP   
@<TRIPOS>SET

