#    Name: 3fbs_FAD_2_INTS_M
#    Modification time : Tue Mar 25 03:31:31 2014

@<TRIPOS>MOLECULE
3fbs_FAD_2_INTS_M
  124     0     9     0     0
SMALL
NO_CHARGES


@<TRIPOS>ATOM
      1 N          61.1825   70.0045   11.3565 N.am      2 SEC2        0.0000 
      2 N          60.9570   68.9030   12.3460 N.am      8 SEL2        0.0000 
      3 N          61.4080   71.1060   10.3670 N.am      5 SEP2        0.0000 
      4 N          60.7400   68.5980   15.1305 N.am      2 SEC2        0.0000 
      5 N          59.6450   68.4120   14.0870 N.am      8 SEL2        0.0000 
      6 N          61.8350   68.7840   16.1740 N.am      5 SEP2        0.0000 
      7 CA         55.4910   69.9730   13.1040 C.3       3 GLC5        0.0000 
      8 CA         57.5970   70.4180   13.1360 C.3       9 GLL5        0.0000 
      9 CA         53.3850   69.5280   13.0720 C.3       6 GLP5        0.0000 
     10 CA         56.7995   68.6030   13.4175 C.3       3 GLC5        0.0000 
     11 CA         56.0020   66.7880   13.6990 C.3       6 GLP5        0.0000 
     12 CA         55.6565   72.6005   11.9395 C.3       3 GLC5        0.0000 
     13 CA         57.2710   71.9010   13.1020 C.3       9 GLL5        0.0000 
     14 CA         54.0420   73.3000   10.7770 C.3       6 GLP5        0.0000 
     15 CA         60.0750   72.4925   13.8910 C.3       3 GLC5        0.0000 
     16 CA         57.9950   72.5710   14.2410 C.3       9 GLL5        0.0000 
     17 CA         62.1550   72.4140   13.5410 C.3       6 GLP5        0.0000 
     18 O          57.9125   74.5305   13.1045 O.2       1 ALC1        0.0000 
     19 O          58.6710   73.6890   13.8170 O.2       7 ALL1        0.0000 
     20 O          57.1540   75.3720   12.3920 O.2       4 ALP1        0.0000 
     21 N          58.4645   74.4270   16.3535 N.am      2 SEC2        0.0000 
     22 N          57.1670   73.9690   15.9780 N.am      8 SEL2        0.0000 
     23 N          59.7620   74.8850   16.7290 N.am      5 SEP2        0.0000 
     24 CA         54.8815   73.1980   12.5330 C.3       3 GLC5        0.0000 
     25 CA         55.7210   73.0960   14.2890 C.3       9 GLL5        0.0000 
     26 CA         54.5530   71.3120   13.6805 C.3       3 GLC5        0.0000 
     27 CA         50.9890   75.3345   17.4270 C.3       3 GLC5        0.0000 
     28 CA         51.2680   74.1110   15.7900 C.3       9 GLL5        0.0000 
     29 CA         50.7100   76.5580   19.0640 C.3       6 GLP5        0.0000 
     30 CA         49.4045   75.1635   15.1390 C.3       3 GLC5        0.0000 
     31 CA         47.5410   76.2160   14.4880 C.3       6 GLP5        0.0000 
     32 O          48.9535   74.3590   16.8195 O.2       1 ALC1        0.0000 
     33 O          50.1960   73.5910   16.3120 O.2       7 ALL1        0.0000 
     34 O          47.7110   75.1270   17.3270 O.2       4 ALP1        0.0000 
     35 N          50.1925   76.2940   15.5765 N.am      2 SEC2        0.0000 
     36 N          51.1760   75.3060   15.1710 N.am      8 SEL2        0.0000 
     37 N          49.2090   77.2820   15.9820 N.am      5 SEP2        0.0000 
     38 CA         50.8650   74.6200   13.4230 C.3       3 GLC5        0.0000 
     39 CA         52.2380   75.7410   14.4460 C.3       9 GLL5        0.0000 
     40 CA         49.4920   73.4990   12.4000 C.3       6 GLP5        0.0000 
     41 CA         51.5940   77.5505   13.4435 C.3       3 GLC5        0.0000 
     42 CA         50.9500   79.3600   12.4410 C.3       6 GLP5        0.0000 
     43 CA         53.7005   76.6705   13.3815 C.3       3 GLC5        0.0000 
     44 CA         55.1630   77.6000   12.3170 C.3       6 GLP5        0.0000 
     45 CA         53.7960   76.3205   15.7100 C.3       3 GLC5        0.0000 
     46 CA         55.3540   76.9000   16.9740 C.3       6 GLP5        0.0000 
     47 CA         51.6760   76.9870   15.8100 C.3       3 GLC5        0.0000 
     48 CA         51.1140   78.2330   17.1740 C.3       6 GLP5        0.0000 
     49 N          54.5280   76.1570   14.4895 N.am      2 SEC2        0.0000 
     50 N          53.3720   75.0060   14.3260 N.am      8 SEL2        0.0000 
     51 N          55.6840   77.3080   14.6530 N.am      5 SEP2        0.0000 
     52 CA         53.7500   73.5730   12.8530 C.3       3 GLC5        0.0000 
     53 CA         53.4580   73.8460   14.9290 C.3       9 GLL5        0.0000 
     54 CA         54.4060   75.3730   15.9515 C.3       3 GLC5        0.0000 
     55 N          65.9255   62.8520    8.3165 N.am      2 SEC2        0.0000 
     56 N          67.2210   62.5410    8.8600 N.am      8 SEL2        0.0000 
     57 N          64.6300   63.1630    7.7730 N.am      5 SEP2        0.0000 
     58 O          69.9300   62.6485    9.3710 O.2       1 ALC1        0.0000 
     59 O          68.8890   62.9570   10.2530 O.2       7 ALL1        0.0000 
     60 O          70.9710   62.3400    8.4890 O.2       4 ALP1        0.0000 
     61 N          71.4345   63.8575   10.7375 N.am      2 SEC2        0.0000 
     62 N          70.4180   63.4020   11.7220 N.am      8 SEL2        0.0000 
     63 N          72.4510   64.3130    9.7530 N.am      5 SEP2        0.0000 
     64 CA         68.1605   61.7090   13.4705 C.3       3 GLC5        0.0000 
     65 CA         67.7260   63.4970   14.7250 C.3       9 GLL5        0.0000 
     66 CA         68.5950   59.9210   12.2160 C.3       6 GLP5        0.0000 
     67 CA         69.5255   65.1515   16.4890 C.3       3 GLC5        0.0000 
     68 CA         68.0890   63.7360   16.0180 C.3       9 GLL5        0.0000 
     69 CA         70.9620   66.5670   16.9600 C.3       6 GLP5        0.0000 
     70 CA         66.3755   63.1300   20.1450 C.3       3 GLC5        0.0000 
     71 CA         67.4970   64.0020   18.4150 C.3       9 GLL5        0.0000 
     72 CA         65.2540   62.2580   21.8750 C.3       6 GLP5        0.0000 
     73 CA         68.9185   64.1930   19.8425 C.3       3 GLC5        0.0000 
     74 CA         70.3400   64.3840   21.2700 C.3       6 GLP5        0.0000 
     75 CA         64.8070   62.3810   19.4645 C.3       3 GLC5        0.0000 
     76 CA         64.8120   63.5370   17.8210 C.3       9 GLL5        0.0000 
     77 CA         64.8020   61.2250   21.1080 C.3       6 GLP5        0.0000 
     78 CA         64.2225   62.1100   10.7245 C.3       3 GLC5        0.0000 
     79 CA         64.6370   63.1160   12.6760 C.3       9 GLL5        0.0000 
     80 CA         63.8080   61.1040    8.7730 C.3       6 GLP5        0.0000 
     81 CA         65.2980   65.8510   13.4665 C.3       3 GLC5        0.0000 
     82 CA         64.1400   64.4970   12.2960 C.3       9 GLL5        0.0000 
     83 CA         66.4560   67.2050   14.6370 C.3       6 GLP5        0.0000 
     84 CA         65.0710   65.0990   10.4610 C.3       3 GLC5        0.0000 
     85 CA         66.0020   65.7010    8.6260 C.3       6 GLP5        0.0000 
     86 CA         61.9650   64.1745   13.8900 C.3       3 GLC5        0.0000 
     87 CA         62.6930   64.4670   11.7930 C.3       9 GLL5        0.0000 
     88 CA         61.2370   63.8820   15.9870 C.3       6 GLP5        0.0000 
     89 O          61.0315   62.8385   11.0445 O.2       1 ALC1        0.0000 
     90 O          62.4780   63.4350   10.9140 O.2       7 ALL1        0.0000 
     91 O          59.5850   62.2420   11.1750 O.2       4 ALP1        0.0000 
     92 O          61.2165   63.3220   12.0160 O.2       1 ALC1        0.0000 
     93 O          59.9550   63.2090   13.1180 O.2       4 ALP1        0.0000 
     94 CA         59.2400   64.5010   11.6015 C.3       3 GLC5        0.0000 
     95 CA         60.7430   65.7270   10.7980 C.3       9 GLL5        0.0000 
     96 CA         57.7370   63.2750   12.4050 C.3       6 GLP5        0.0000 
     97 CA         60.4495   65.4760    8.7505 C.3       3 GLC5        0.0000 
     98 CA         60.1560   65.2250    6.7030 C.3       6 GLP5        0.0000 
     99 N          58.8590   68.7975    7.9790 N.am      2 SEC2        0.0000 
    100 N          58.7820   68.5360    9.5160 N.am      8 SEL2        0.0000 
    101 N          58.9360   69.0590    6.4420 N.am      5 SEP2        0.0000 
    102 N          57.4145   65.0555   10.1385 N.am      2 SEC2        0.0000 
    103 N          57.9260   66.4960   10.0650 N.am      8 SEL2        0.0000 
    104 N          56.9030   63.6150   10.2120 N.am      5 SEP2        0.0000 
    105 CA         58.7840   71.4327   11.7355 C.3       3 GLC5        0.0000 
    106 CA         60.1340   71.7060   10.3520 C.3       6 GLP5        0.0000 
    107 CA         58.8473   73.3185   16.2130 C.3       3 GLC5        0.0000 
    108 CA         60.2540   73.9200   17.7020 C.3       6 GLP5        0.0000 
    109 CA         50.6690   73.6223   14.0650 C.3       3 GLC5        0.0000 
    110 CA         52.4240   73.3800   15.6700 C.3       9 GLL5        0.0000 
    111 CA         51.8225   72.0999   14.5252 C.3       3 GLC5        0.0000 
    112 CA         50.9930   70.4040   13.7210 C.3       6 GLP5        0.0000 
    113 CA         67.1818   65.4108   15.0043 C.3       3 GLC5        0.0000 
    114 CA         66.1905   65.5930   16.4530 C.3       3 GLC5        0.0000 
    115 CA         67.1390   63.7500   17.0060 C.3       9 GLL5        0.0000 
    116 CA         65.9060   67.5500   16.0470 C.3       6 GLP5        0.0000 
    117 CA         63.6474   64.2131   16.5639 C.3       3 GLC5        0.0000 
    118 CA         65.8110   63.5220   16.7120 C.3       9 GLL5        0.0000 
    119 CA         61.9140   65.0180   16.7890 C.3       6 GLP5        0.0000 
    120 CA         66.1895   65.2428   14.7763 C.3       3 GLC5        0.0000 
    121 CA         65.4500   63.2870   15.4110 C.3       9 GLL5        0.0000 
    122 CA         62.3200   67.2930   10.0095 C.3       3 GLC5        0.0000 
    123 CA         62.2310   65.7330   11.0940 C.3       9 GLL5        0.0000 
    124 CA         63.1530   68.8560    9.0730 C.3       6 GLP5        0.0000 
@<TRIPOS>BOND
@<TRIPOS>SUBSTRUCTURE
     1 ALC1       18 GROUP        1 X    ALC  0     ROOT ALC X 1
     2 SEC2        1 GROUP        1 X    SEC  0     **** SEC X 2
     3 GLC5        7 GROUP        1 X    GLC  0     **** GLC X 6
     4 ALP1       20 GROUP        1 Y    ALP  0     ROOT ALP Y 8
     5 SEP2        3 GROUP        1 Y    SEP  0     **** SEP Y 9
     6 GLP5        9 GROUP        1 Y    GLP  0     **** GLP Y 13
     7 ALL1       19 GROUP        1 Z    ALL  0     ROOT ALL Z 15
     8 SEL2        2 GROUP        1 Z    SEL  0     **** SEL Z 16
     9 GLL5        8 GROUP        1 Z    GLL  0     **** GLL Z 20
@<TRIPOS>SET

