#    Name: 3fbs_FAD_2_ligand
#    Modification time : Tue Mar 25 03:31:31 2014

@<TRIPOS>MOLECULE
3fbs_FAD_2_ligand
   84    89     1     0     0
SMALL
NO_CHARGES


@<TRIPOS>ATOM
      1 PA         59.6220   68.8390   12.7580 P.3       1 FAD298      0.0000 
      2 O1A        60.9570   68.9030   12.3460 O.co2     1 FAD298      0.0000 
      3 O2A        59.6450   68.4120   14.0870 O.co2     1 FAD298      0.0000 
      4 O5B        58.8660   70.1800   12.6370 O.3       1 FAD298      0.0000 
      5 C5B        57.5970   70.4180   13.1360 C.3       1 FAD298      0.0000 
      6 C4B        57.2710   71.9010   13.1020 C.3       1 FAD298      0.0000 
      7 O4B        55.9060   72.1800   13.2560 O.3       1 FAD298      0.0000 
      8 C3B        57.9950   72.5710   14.2410 C.3       1 FAD298      0.0000 
      9 O3B        58.6710   73.6890   13.8170 O.3       1 FAD298      0.0000 
     10 C2B        56.8860   72.8630   15.2070 C.3       1 FAD298      0.0000 
     11 O2B        57.1670   73.9690   15.9780 O.3       1 FAD298      0.0000 
     12 C1B        55.7210   73.0960   14.2890 C.3       1 FAD298      0.0000 
     13 N9A        54.4420   72.9540   14.9850 N.pl3     1 FAD298      0.0000 
     14 C8A        54.0100   71.9470   15.7520 C.2       1 FAD298      0.0000 
     15 N7A        52.7930   72.2230   16.1320 N.2       1 FAD298      0.0000 
     16 C5A        52.4240   73.3800   15.6700 C.ar      1 FAD298      0.0000 
     17 C6A        51.2680   74.1110   15.7900 C.ar      1 FAD298      0.0000 
     18 N6A        50.1960   73.5910   16.3120 N.pl3     1 FAD298      0.0000 
     19 N1A        51.1760   75.3060   15.1710 N.ar      1 FAD298      0.0000 
     20 C2A        52.2380   75.7410   14.4460 C.ar      1 FAD298      0.0000 
     21 N3A        53.3720   75.0060   14.3260 N.ar      1 FAD298      0.0000 
     22 C4A        53.4580   73.8460   14.9290 C.ar      1 FAD298      0.0000 
     23 N1         66.6630   62.7820   10.9240 N.2       1 FAD298      0.0000 
     24 C2         67.5830   62.7590    9.9620 C.2       1 FAD298      0.0000 
     25 O2         67.2210   62.5410    8.8600 O.2       1 FAD298      0.0000 
     26 N3         68.8890   62.9570   10.2530 N.am      1 FAD298      0.0000 
     27 C4         69.2730   63.2130   11.5080 C.2       1 FAD298      0.0000 
     28 O4         70.4180   63.4020   11.7220 O.2       1 FAD298      0.0000 
     29 C4X        68.3380   63.2400   12.5060 C.2       1 FAD298      0.0000 
     30 N5         68.6840   63.4780   13.7710 N.2       1 FAD298      0.0000 
     31 C5X        67.7260   63.4970   14.7250 C.ar      1 FAD298      0.0000 
     32 C6         68.0890   63.7360   16.0180 C.ar      1 FAD298      0.0000 
     33 C7         67.1390   63.7500   17.0060 C.ar      1 FAD298      0.0000 
     34 C7M        67.4970   64.0020   18.4150 C.3       1 FAD298      0.0000 
     35 C8         65.8110   63.5220   16.7120 C.ar      1 FAD298      0.0000 
     36 C8M        64.8120   63.5370   17.8210 C.3       1 FAD298      0.0000 
     37 C9         65.4500   63.2870   15.4110 C.ar      1 FAD298      0.0000 
     38 C9A        66.3960   63.2740   14.4200 C.ar      1 FAD298      0.0000 
     39 N10        66.0380   63.0300   13.1320 N.pl3     1 FAD298      0.0000 
     40 C10        67.0140   63.0130   12.2000 C.2       1 FAD298      0.0000 
     41 C1'        64.6370   63.1160   12.6760 C.3       1 FAD298      0.0000 
     42 C2'        64.1400   64.4970   12.2960 C.3       1 FAD298      0.0000 
     43 O2'        64.2220   65.3780   13.3520 O.3       1 FAD298      0.0000 
     44 C3'        62.6930   64.4670   11.7930 C.3       1 FAD298      0.0000 
     45 O3'        62.4780   63.4350   10.9140 O.3       1 FAD298      0.0000 
     46 C4'        62.2310   65.7330   11.0940 C.3       1 FAD298      0.0000 
     47 O4'        62.5270   66.8120   11.8810 O.3       1 FAD298      0.0000 
     48 C5'        60.7430   65.7270   10.7980 C.3       1 FAD298      0.0000 
     49 O5'        60.3070   66.8800   10.1950 O.3       1 FAD298      0.0000 
     50 P          58.8930   67.4520   10.3760 P.3       1 FAD298      0.0000 
     51 O1P        58.7820   68.5360    9.5160 O.co2     1 FAD298      0.0000 
     52 O2P        57.9260   66.4960   10.0650 O.co2     1 FAD298      0.0000 
     53 O3P        58.7530   67.9080   11.8510 O.3       1 FAD298      0.0000 
     54 H          57.4838   70.0831   14.1856 H         1 FAD298      0.0000 
     55 H          56.8088   69.8974   12.5577 H         1 FAD298      0.0000 
     56 H          57.6679   72.3167   12.1831 H         1 FAD298      0.0000 
     57 H          58.6265   71.8160   14.6924 H         1 FAD298      0.0000 
     58 H          56.6923   71.9680   15.7603 H         1 FAD298      0.0000 
     59 H          55.8276   74.1183   13.9098 H         1 FAD298      0.0000 
     60 H          54.5292   71.1536   15.9764 H         1 FAD298      0.0000 
     61 H          49.4054   74.1983   16.3898 H         1 FAD298      0.0000 
     62 H          50.2614   72.6319   16.5873 H         1 FAD298      0.0000 
     63 H          52.1798   76.6743   13.9638 H         1 FAD298      0.0000 
     64 H          69.5990   62.9081    9.4853 H         1 FAD298      0.0000 
     65 H          69.0828   63.9074   16.2565 H         1 FAD298      0.0000 
     66 H          64.4535   63.1178   15.1750 H         1 FAD298      0.0000 
     67 H          63.9583   62.7089   13.4677 H         1 FAD298      0.0000 
     68 H          64.4853   62.4390   11.7975 H         1 FAD298      0.0000 
     69 H          64.7528   64.8454   11.4466 H         1 FAD298      0.0000 
     70 H          62.0393   64.3461   12.6823 H         1 FAD298      0.0000 
     71 H          62.7562   65.7873   10.1342 H         1 FAD298      0.0000 
     72 H          60.2228   65.5290   11.7688 H         1 FAD298      0.0000 
     73 H          60.5422   64.8176   10.1776 H         1 FAD298      0.0000 
     74 H          68.1394   63.3191   18.7628 H         1 FAD298      0.0000 
     75 H          67.9272   64.8968   18.5346 H         1 FAD298      0.0000 
     76 H          66.6947   63.9804   19.0116 H         1 FAD298      0.0000 
     77 H          65.0131   62.8422   18.5115 H         1 FAD298      0.0000 
     78 H          64.7917   64.4196   18.2906 H         1 FAD298      0.0000 
     79 H          63.8855   63.3604   17.4887 H         1 FAD298      0.0000 
     80 H          57.9981   74.2173   13.2991 H         1 FAD298      0.0000 
     81 H          56.8722   74.7499   15.4273 H         1 FAD298      0.0000 
     82 H          63.6474   66.1526   13.0878 H         1 FAD298      0.0000 
     83 H          61.5296   63.1576   11.0677 H         1 FAD298      0.0000 
     84 H          61.7190   67.3989   11.8299 H         1 FAD298      0.0000 
@<TRIPOS>BOND
     1    2    1 ar   
     2    3    1 ar   
     3    4    1 1    
     4   53    1 1    
     5    5    4 1    
     6    6    5 1    
     7   54    5 1    
     8   55    5 1    
     9    7    6 1    
    10    8    6 1    
    11   56    6 1    
    12   12    7 1    
    13    9    8 1    
    14   10    8 1    
    15   57    8 1    
    16   80    9 1    
    17   11   10 1    
    18   12   10 1    
    19   58   10 1    
    20   81   11 1    
    21   13   12 1    
    22   59   12 1    
    23   14   13 1    
    24   22   13 1    
    25   15   14 2    
    26   60   14 1    
    27   16   15 1    
    28   17   16 ar   
    29   22   16 ar   
    30   18   17 1    
    31   19   17 ar   
    32   61   18 1    
    33   62   18 1    
    34   20   19 ar   
    35   21   20 ar   
    36   63   20 1    
    37   22   21 ar   
    38   24   23 1    
    39   40   23 2    
    40   25   24 2    
    41   26   24 am   
    42   27   26 am   
    43   64   26 1    
    44   28   27 2    
    45   29   27 1    
    46   30   29 2    
    47   40   29 1    
    48   31   30 1    
    49   32   31 ar   
    50   38   31 ar   
    51   33   32 ar   
    52   65   32 1    
    53   34   33 1    
    54   35   33 ar   
    55   74   34 1    
    56   75   34 1    
    57   76   34 1    
    58   36   35 1    
    59   37   35 ar   
    60   77   36 1    
    61   78   36 1    
    62   79   36 1    
    63   38   37 ar   
    64   66   37 1    
    65   39   38 1    
    66   40   39 1    
    67   41   39 1    
    68   42   41 1    
    69   67   41 1    
    70   68   41 1    
    71   43   42 1    
    72   44   42 1    
    73   69   42 1    
    74   82   43 1    
    75   45   44 1    
    76   46   44 1    
    77   70   44 1    
    78   83   45 1    
    79   47   46 1    
    80   48   46 1    
    81   71   46 1    
    82   84   47 1    
    83   49   48 1    
    84   72   48 1    
    85   73   48 1    
    86   50   49 1    
    87   51   50 ar   
    88   52   50 ar   
    89   53   50 1    
@<TRIPOS>SUBSTRUCTURE
     1 FAD298      1 GROUP   
@<TRIPOS>SET

