#    Name: 2hun_NAD_1_INTS_M
#    Modification time : Tue Mar 25 17:03:01 2014

@<TRIPOS>MOLECULE
2hun_NAD_1_INTS_M
  100     0     9     0     0
SMALL
NO_CHARGES


@<TRIPOS>ATOM
      1 N          23.6135   78.4030   21.1710 N.am      2 SEC2        0.0000 
      2 N          23.0510   78.4070   22.4040 N.am      8 SEL2        0.0000 
      3 N          24.1760   78.3990   19.9380 N.am      5 SEP2        0.0000 
      4 N          21.4055   77.0990   25.8540 N.am      2 SEC2        0.0000 
      5 N          21.8600   77.9250   24.6170 N.am      8 SEL2        0.0000 
      6 N          20.9510   76.2730   27.0910 N.am      5 SEP2        0.0000 
      7 CA         24.9215   72.6385   23.5045 C.3       3 GLC5        0.0000 
      8 CA         24.8770   74.5010   23.2220 C.3       9 GLL5        0.0000 
      9 CA         24.9660   70.7760   23.7870 C.3       6 GLP5        0.0000 
     10 O          26.5150   73.5705   25.4880 O.2       1 ALC1        0.0000 
     11 O          26.1600   74.7510   25.3030 O.2       7 ALL1        0.0000 
     12 O          26.8700   72.3900   25.6730 O.2       4 ALP1        0.0000 
     13 N          29.7645   75.9450   23.9205 N.am      2 SEC2        0.0000 
     14 N          28.5030   75.1760   23.6680 N.am      8 SEL2        0.0000 
     15 N          31.0260   76.7140   24.1730 N.am      5 SEP2        0.0000 
     16 O          28.6710   74.2385   24.5270 O.2       1 ALC1        0.0000 
     17 O          28.5030   75.1760   23.6680 O.2       7 ALL1        0.0000 
     18 O          28.8390   73.3010   25.3860 O.2       4 ALP1        0.0000 
     19 CA         25.9545   72.2540   23.1010 C.3       3 GLC5        0.0000 
     20 CA         26.9430   73.7320   22.4150 C.3       9 GLL5        0.0000 
     21 CA         25.7025   72.3820   21.2280 C.3       3 GLC5        0.0000 
     22 CA         24.4620   71.0320   20.0410 C.3       6 GLP5        0.0000 
     23 N          29.5155   74.8280   18.6950 N.am      2 SEC2        0.0000 
     24 N          28.1680   73.8040   19.0010 N.am      8 SEL2        0.0000 
     25 N          30.8630   75.8520   18.3890 N.am      5 SEP2        0.0000 
     26 CA         31.3835   70.4280   19.3235 C.3       3 GLC5        0.0000 
     27 CA         29.6030   71.7100   18.8680 C.3       9 GLL5        0.0000 
     28 CA         33.1640   69.1460   19.7790 C.3       6 GLP5        0.0000 
     29 CA         29.2165   70.0205   18.0895 C.3       3 GLC5        0.0000 
     30 CA         28.8300   68.3310   17.3110 C.3       6 GLP5        0.0000 
     31 O          31.1310   70.8630   17.4575 O.2       1 ALC1        0.0000 
     32 O          30.0420   71.7680   17.6180 O.2       7 ALL1        0.0000 
     33 O          32.2200   69.9580   17.2970 O.2       4 ALP1        0.0000 
     34 O          29.9400   73.0205   16.7645 O.2       1 ALC1        0.0000 
     35 O          29.8380   74.2730   15.9110 O.2       4 ALP1        0.0000 
     36 N          30.6180   69.2800   19.2930 N.am      2 SEC2        0.0000 
     37 N          30.0010   70.6360   19.6990 N.am      8 SEL2        0.0000 
     38 N          31.2350   67.9240   18.8870 N.am      5 SEP2        0.0000 
     39 CA         29.5515   70.4430   23.0760 C.3       3 GLC5        0.0000 
     40 CA         29.5550   70.5590   21.0270 C.3       9 GLL5        0.0000 
     41 CA         29.5480   70.3270   25.1250 C.3       6 GLP5        0.0000 
     42 CA         30.8465   71.6075   21.5770 C.3       3 GLC5        0.0000 
     43 CA         32.1380   72.6560   22.1270 C.3       6 GLP5        0.0000 
     44 CA         31.3595   69.8525   20.4030 C.3       3 GLC5        0.0000 
     45 CA         28.9465   68.7915   20.2020 C.3       3 GLC5        0.0000 
     46 CA         28.3380   67.0240   19.3770 C.3       6 GLP5        0.0000 
     47 CA         27.6460   70.3780   20.5500 C.3       3 GLC5        0.0000 
     48 CA         25.7370   70.1970   20.0730 C.3       6 GLP5        0.0000 
     49 N          29.8935   71.6160   22.7735 N.am      2 SEC2        0.0000 
     50 N          28.7450   71.4810   21.5640 N.am      8 SEL2        0.0000 
     51 N          31.0420   71.7510   23.9830 N.am      5 SEP2        0.0000 
     52 CA         29.7780   73.1590   21.2425 C.3       3 GLC5        0.0000 
     53 CA         28.3510   72.5170   20.7790 C.3       9 GLL5        0.0000 
     54 CA         31.2050   73.8010   21.7060 C.3       6 GLP5        0.0000 
     55 N          19.0330   75.1785   25.2720 N.am      2 SEC2        0.0000 
     56 N          19.7550   75.5450   24.0240 N.am      8 SEL2        0.0000 
     57 N          18.3110   74.8120   26.5200 N.am      5 SEP2        0.0000 
     58 CA         17.5945   74.3185   22.3140 C.3       3 GLC5        0.0000 
     59 CA         19.5320   73.8700   21.4690 C.3       9 GLL5        0.0000 
     60 CA         15.6570   74.7670   23.1590 C.3       6 GLP5        0.0000 
     61 CA         17.5865   71.8585   19.7335 C.3       3 GLC5        0.0000 
     62 CA         18.9870   73.3480   20.1150 C.3       9 GLL5        0.0000 
     63 CA         16.1860   70.3690   19.3520 C.3       6 GLP5        0.0000 
     64 CA         21.3795   73.8585   17.9060 C.3       3 GLC5        0.0000 
     65 CA         19.7300   73.9410   18.9110 C.3       9 GLL5        0.0000 
     66 CA         23.0290   73.7760   16.9010 C.3       6 GLP5        0.0000 
     67 N          19.9675   72.4955   16.5520 N.am      2 SEC2        0.0000 
     68 N          19.9800   72.8750   17.9580 N.am      8 SEL2        0.0000 
     69 N          19.9550   72.1160   15.1460 N.am      5 SEP2        0.0000 
     70 N          18.6675   76.3080   16.2600 N.am      2 SEC2        0.0000 
     71 N          18.9140   75.1490   16.9460 N.am      8 SEL2        0.0000 
     72 N          18.4210   77.4670   15.5740 N.am      5 SEP2        0.0000 
     73 CA         16.7905   72.3790   19.0490 C.3       3 GLC5        0.0000 
     74 CA         17.3950   74.3890   18.7460 C.3       9 GLL5        0.0000 
     75 N          12.8255   78.8190   22.0250 N.am      2 SEC2        0.0000 
     76 N          14.0620   78.8550   21.4350 N.am      8 SEL2        0.0000 
     77 N          11.5890   78.7830   22.6150 N.am      5 SEP2        0.0000 
     78 CA         24.2752   75.0448   25.2707 C.3       3 GLC5        0.0000 
     79 CA         23.1120   75.2030   26.9440 C.3       6 GLP5        0.0000 
     80 CA         27.4783   75.9335   25.2130 C.3       3 GLC5        0.0000 
     81 CA         26.0000   75.2720   23.9730 C.3       9 GLL5        0.0000 
     82 CA         28.3470   76.6830   26.9150 C.3       6 GLP5        0.0000 
     83 CA         29.1430   74.1075   22.2190 C.3       3 GLC5        0.0000 
     84 CA         27.2190   75.0960   23.0490 C.3       9 GLL5        0.0000 
     85 CA         30.2615   73.1612   19.6728 C.3       3 GLC5        0.0000 
     86 CA         28.7410   72.6870   19.4390 C.3       9 GLL5        0.0000 
     87 CA         31.3510   74.1240   20.1920 C.3       6 GLP5        0.0000 
     88 CA         28.9020   73.0487   17.2062 C.3       3 GLC5        0.0000 
     89 CA         28.6320   73.8990   15.2590 C.3       6 GLP5        0.0000 
     90 CA         27.2492   71.2774   20.0196 C.3       3 GLC5        0.0000 
     91 CA         18.7052   71.9715   21.8060 C.3       3 GLC5        0.0000 
     92 CA         18.1510   70.3340   22.8200 C.3       6 GLP5        0.0000 
     93 CA         15.7007   75.7583   21.6167 C.3       3 GLC5        0.0000 
     94 CA         16.2890   76.3090   20.0150 C.3       9 GLL5        0.0000 
     95 CA         14.8398   75.8023   16.2835 C.3       3 GLC5        0.0000 
     96 CA         14.1620   76.2000   18.1470 C.3       9 GLL5        0.0000 
     97 CA         14.9810   75.8520   14.4910 C.3       6 GLP5        0.0000 
     98 CA         13.4748   74.8750   18.9776 C.3       3 GLC5        0.0000 
     99 CA         15.2350   75.3050   18.0050 C.3       9 GLL5        0.0000 
    100 CA         12.2580   73.7630   19.6160 C.3       6 GLP5        0.0000 
@<TRIPOS>BOND
@<TRIPOS>SUBSTRUCTURE
     1 ALC1       10 GROUP        1 X    ALC  0     ROOT ALC X 1
     2 SEC2        1 GROUP        1 X    SEC  0     **** SEC X 2
     3 GLC5        7 GROUP        1 X    GLC  0     **** GLC X 6
     4 ALP1       12 GROUP        1 Y    ALP  0     ROOT ALP Y 8
     5 SEP2        3 GROUP        1 Y    SEP  0     **** SEP Y 9
     6 GLP5        9 GROUP        1 Y    GLP  0     **** GLP Y 13
     7 ALL1       11 GROUP        1 Z    ALL  0     ROOT ALL Z 15
     8 SEL2        2 GROUP        1 Z    SEL  0     **** SEL Z 16
     9 GLL5        8 GROUP        1 Z    GLL  0     **** GLL Z 20
@<TRIPOS>SET

