#    Name: 2hun_NAD_1_ligand
#    Modification time : Tue Mar 25 17:03:01 2014

@<TRIPOS>MOLECULE
2hun_NAD_1_ligand
   70    74     1     0     0
SMALL
NO_CHARGES


@<TRIPOS>ATOM
      1 PA         22.3420   77.4650   23.2840 P.3       1 NAD801      0.0000 
      2 O1A        23.0510   78.4070   22.4040 O.co2     1 NAD801      0.0000 
      3 O2A        21.8600   77.9250   24.6170 O.co2     1 NAD801      0.0000 
      4 O5B        23.3270   76.2260   23.5410 O.3       1 NAD801      0.0000 
      5 C5B        23.9370   75.4660   22.4870 C.3       1 NAD801      0.0000 
      6 C4B        24.8770   74.5010   23.2220 C.3       1 NAD801      0.0000 
      7 O4B        25.5290   73.6250   22.2820 O.3       1 NAD801      0.0000 
      8 C3B        26.0000   75.2720   23.9730 C.3       1 NAD801      0.0000 
      9 O3B        26.1600   74.7510   25.3030 O.3       1 NAD801      0.0000 
     10 C2B        27.2190   75.0960   23.0490 C.3       1 NAD801      0.0000 
     11 O2B        28.5030   75.1760   23.6680 O.3       1 NAD801      0.0000 
     12 C1B        26.9430   73.7320   22.4150 C.3       1 NAD801      0.0000 
     13 N9A        27.5620   73.5470   21.0840 N.pl3     1 NAD801      0.0000 
     14 C8A        27.4520   74.3290   19.9940 C.2       1 NAD801      0.0000 
     15 N7A        28.1680   73.8040   19.0010 N.2       1 NAD801      0.0000 
     16 C5A        28.7410   72.6870   19.4390 C.ar      1 NAD801      0.0000 
     17 C6A        29.6030   71.7100   18.8680 C.ar      1 NAD801      0.0000 
     18 N6A        30.0420   71.7680   17.6180 N.pl3     1 NAD801      0.0000 
     19 N1A        30.0010   70.6360   19.6990 N.ar      1 NAD801      0.0000 
     20 C2A        29.5550   70.5590   21.0270 C.ar      1 NAD801      0.0000 
     21 N3A        28.7450   71.4810   21.5640 N.ar      1 NAD801      0.0000 
     22 C4A        28.3510   72.5170   20.7790 C.ar      1 NAD801      0.0000 
     23 O3         21.0200   77.1130   22.4750 O.3       1 NAD801      0.0000 
     24 PN         19.7190   76.2460   22.7240 P.3       1 NAD801      0.0000 
     25 O1N        18.6390   77.2660   22.5910 O.co2     1 NAD801      0.0000 
     26 O2N        19.7550   75.5450   24.0240 O.co2     1 NAD801      0.0000 
     27 O5D        19.5990   75.2980   21.4200 O.3       1 NAD801      0.0000 
     28 C5D        19.5320   73.8700   21.4690 C.3       1 NAD801      0.0000 
     29 C4D        18.9870   73.3480   20.1150 C.3       1 NAD801      0.0000 
     30 O4D        17.5910   73.6600   19.9730 O.3       1 NAD801      0.0000 
     31 C3D        19.7300   73.9410   18.9110 C.3       1 NAD801      0.0000 
     32 O3D        19.9800   72.8750   17.9580 O.3       1 NAD801      0.0000 
     33 C2D        18.7330   74.9970   18.3570 C.3       1 NAD801      0.0000 
     34 O2D        18.9140   75.1490   16.9460 O.3       1 NAD801      0.0000 
     35 C1D        17.3950   74.3890   18.7460 C.3       1 NAD801      0.0000 
     36 N1N        16.2980   75.3600   18.9380 N.pl3     1 NAD801      0.0000 
     37 C2N        16.2890   76.3090   20.0150 C.ar      1 NAD801      0.0000 
     38 C3N        15.2000   77.1900   20.1340 C.ar      1 NAD801      0.0000 
     39 C7N        15.1180   78.2300   21.2750 C.2       1 NAD801      0.0000 
     40 O7N        14.0620   78.8550   21.4350 O.2       1 NAD801      0.0000 
     41 N7N        16.1670   78.4190   22.0660 N.am      1 NAD801      0.0000 
     42 C4N        14.1340   77.1380   19.2000 C.ar      1 NAD801      0.0000 
     43 C5N        14.1620   76.2000   18.1470 C.ar      1 NAD801      0.0000 
     44 C6N        15.2350   75.3050   18.0050 C.ar      1 NAD801      0.0000 
     45 H          24.5284   76.0776   21.8354 H         1 NAD801      0.0000 
     46 H          23.2222   74.8847   21.9397 H         1 NAD801      0.0000 
     47 H          24.3205   73.9459   23.9467 H         1 NAD801      0.0000 
     48 H          25.7172   76.3078   23.9504 H         1 NAD801      0.0000 
     49 H          27.0923   75.8255   22.2401 H         1 NAD801      0.0000 
     50 H          27.3025   72.9712   23.0987 H         1 NAD801      0.0000 
     51 H          26.9279   75.1503   19.9467 H         1 NAD801      0.0000 
     52 H          29.7570   72.5668   17.0882 H         1 NAD801      0.0000 
     53 H          30.6184   71.0077   17.3183 H         1 NAD801      0.0000 
     54 H          29.8826   69.7398   21.5978 H         1 NAD801      0.0000 
     55 H          18.8575   73.5163   22.2487 H         1 NAD801      0.0000 
     56 H          20.5117   73.4172   21.6211 H         1 NAD801      0.0000 
     57 H          19.1321   72.2689   20.0917 H         1 NAD801      0.0000 
     58 H          20.5891   74.4252   19.2502 H         1 NAD801      0.0000 
     59 H          18.8823   75.8825   18.9181 H         1 NAD801      0.0000 
     60 H          17.1146   73.6767   17.9619 H         1 NAD801      0.0000 
     61 H          17.0584   76.3326   20.6692 H         1 NAD801      0.0000 
     62 H          16.9777   77.8710   21.8601 H         1 NAD801      0.0000 
     63 H          16.0518   79.0923   22.7963 H         1 NAD801      0.0000 
     64 H          13.3471   77.7817   19.2929 H         1 NAD801      0.0000 
     65 H          13.3834   76.1731   17.4741 H         1 NAD801      0.0000 
     66 H          15.2525   74.6297   17.2493 H         1 NAD801      0.0000 
     67 H          25.9760   73.7715   25.2210 H         1 NAD801      0.0000 
     68 H          28.3788   74.7725   24.5745 H         1 NAD801      0.0000 
     69 H          19.3229   72.1587   18.1929 H         1 NAD801      0.0000 
     70 H          19.6386   74.5026   16.7071 H         1 NAD801      0.0000 
@<TRIPOS>BOND
     1    2    1 ar   
     2    3    1 ar   
     3    4    1 1    
     4   23    1 1    
     5    5    4 1    
     6    6    5 1    
     7   45    5 1    
     8   46    5 1    
     9    7    6 1    
    10    8    6 1    
    11   47    6 1    
    12   12    7 1    
    13    9    8 1    
    14   10    8 1    
    15   48    8 1    
    16   67    9 1    
    17   11   10 1    
    18   12   10 1    
    19   49   10 1    
    20   68   11 1    
    21   13   12 1    
    22   50   12 1    
    23   14   13 1    
    24   22   13 1    
    25   15   14 2    
    26   51   14 1    
    27   16   15 1    
    28   17   16 ar   
    29   22   16 ar   
    30   18   17 1    
    31   19   17 ar   
    32   52   18 1    
    33   53   18 1    
    34   20   19 ar   
    35   21   20 ar   
    36   54   20 1    
    37   22   21 ar   
    38   24   23 1    
    39   25   24 ar   
    40   26   24 ar   
    41   27   24 1    
    42   28   27 1    
    43   29   28 1    
    44   55   28 1    
    45   56   28 1    
    46   30   29 1    
    47   31   29 1    
    48   57   29 1    
    49   35   30 1    
    50   32   31 1    
    51   33   31 1    
    52   58   31 1    
    53   69   32 1    
    54   34   33 1    
    55   35   33 1    
    56   59   33 1    
    57   70   34 1    
    58   36   35 1    
    59   60   35 1    
    60   37   36 ar   
    61   44   36 ar   
    62   38   37 ar   
    63   61   37 1    
    64   39   38 1    
    65   42   38 ar   
    66   40   39 2    
    67   41   39 am   
    68   62   41 1    
    69   63   41 1    
    70   43   42 ar   
    71   64   42 1    
    72   44   43 ar   
    73   65   43 1    
    74   66   44 1    
@<TRIPOS>SUBSTRUCTURE
     1 NAD801      1 GROUP   
@<TRIPOS>SET

