#    Name: 2AX9_1_CAVITY_N1_ALL.mol2
#    Modification time : Tue Mar 11 02:37:40 2014

@<TRIPOS>MOLECULE
2AX9_1_CAVITY_N1_ALL.mol2
   52     0     4     0     0
SMALL
NO_CHARGES


@<TRIPOS>ATOM
      1 N          30.9384    1.3755    3.9744 N.2       2 ALA2        0.0000 
      2 N          30.4508   -0.6733    4.2286 N.2       2 ALA2        0.0000 
      3 N          29.8920    0.4571    3.4162 N.2       2 ALA2        0.0000 
      4 CA         29.3333    1.5875    2.6038 C.3       4 GLY6        0.0000 
      5 CA         28.8457   -0.4613    2.8580 C.3       4 GLY6        0.0000 
      6 CA         28.2869    0.6691    2.0456 C.3       4 GLY6        0.0000 
      7 CA         30.5791    0.6039    5.9175 C.3       4 GLY6        0.0000 
      8 N          30.0203    1.7343    5.1051 N.2       2 ALA2        0.0000 
      9 N          29.4616    2.8647    4.2927 N.2       2 ALA2        0.0000 
     10 N          28.9028    3.9951    3.4803 N.2       2 ALA2        0.0000 
     11 N          28.3440    5.1255    2.6680 N.2       2 ALA2        0.0000 
     12 OG         29.5327   -0.3145    5.3592 O.2       1 SER1        0.0000 
     13 OG         28.9740    0.8159    4.5469 O.2       1 SER1        0.0000 
     14 N          28.4152    1.9463    3.7345 N.2       2 ALA2        0.0000 
     15 CA         27.8564    3.0767    2.9221 C.3       4 GLY6        0.0000 
     16 CA         27.2977    4.2071    2.1097 C.3       4 GLY6        0.0000 
     17 OG         27.9276   -0.1025    3.9886 O.2       1 SER1        0.0000 
     18 CA         27.3688    1.0279    3.1762 C.3       4 GLY6        0.0000 
     19 CA         26.8101    2.1583    2.3639 C.3       4 GLY6        0.0000 
     20 CA         29.1022    2.0930    6.2358 C.3       4 GLY6        0.0000 
     21 CA         28.5435    3.2234    5.4234 C.3       4 GLY6        0.0000 
     22 CA         27.9847    4.3538    4.6110 C.3       4 GLY6        0.0000 
     23 CA         27.4259    5.4842    3.7986 C.3       4 GLY6        0.0000 
     24 CA         26.8672    6.6147    2.9862 C.3       4 GLY6        0.0000 
     25 CA         28.0559    1.1746    5.6775 C.3       4 GLY6        0.0000 
     26 CA         27.4971    2.3050    4.8651 C.3       4 GLY6        0.0000 
     27 CA         26.9383    3.4354    4.0528 C.3       4 GLY6        0.0000 
     28 CZ         26.3796    4.5658    3.2404 C.ar      3 PHE5        0.0000 
     29 CZ         25.8208    5.6962    2.4280 C.ar      3 PHE5        0.0000 
     30 CA         26.4507    1.3866    4.3069 C.3       4 GLY6        0.0000 
     31 CZ         25.8920    2.5170    3.4945 C.ar      3 PHE5        0.0000 
     32 CZ         25.3332    3.6474    2.6821 C.ar      3 PHE5        0.0000 
     33 CA         25.4044    0.4682    3.7487 C.3       4 GLY6        0.0000 
     34 CZ         24.8456    1.5986    2.9363 C.ar      3 PHE5        0.0000 
     35 CA         26.5079    5.8430    4.9293 C.3       4 GLY6        0.0000 
     36 O          25.9491    6.9734    4.1169 O.2       2 ALA2        0.0000 
     37 CA         26.5790    2.6638    5.9958 C.3       4 GLY6        0.0000 
     38 CA         26.0202    3.7942    5.1834 C.3       4 GLY6        0.0000 
     39 CA         25.4615    4.9246    4.3710 C.3       4 GLY6        0.0000 
     40 CZ         24.9027    6.0550    3.5587 C.ar      3 PHE5        0.0000 
     41 CA         24.9739    2.8758    4.6252 C.3       4 GLY6        0.0000 
     42 CZ         24.4151    4.0062    3.8128 C.ar      3 PHE5        0.0000 
     43 CZ         23.8563    5.1366    3.0004 C.ar      3 PHE5        0.0000 
     44 CA         23.9275    1.9574    4.0670 C.3       4 GLY6        0.0000 
     45 CZ         23.3687    3.0878    3.2546 C.ar      3 PHE5        0.0000 
     46 CA         25.1022    4.1529    6.3141 C.3       4 GLY6        0.0000 
     47 CA         24.5434    5.2833    5.5017 C.3       4 GLY6        0.0000 
     48 N          23.9846    6.4137    4.6893 N.2       2 ALA2        0.0000 
     49 CA         24.0558    3.2345    5.7559 C.3       4 GLY6        0.0000 
     50 O          23.4970    4.3649    4.9435 O.2       2 ALA2        0.0000 
     51 CA         22.9383    5.4953    4.1311 C.3       4 GLY6        0.0000 
     52 CA         22.4506    3.4465    4.3852 C.3       4 GLY6        0.0000 
@<TRIPOS>BOND
@<TRIPOS>SUBSTRUCTURE
     1 SER1       12 GROUP   
     2 ALA2        1 GROUP   
     3 PHE5       28 GROUP   
     4 GLY6        4 GROUP   
@<TRIPOS>SET

