#    Name: 2ax9_BHM_1_INTS_M
#    Modification time : Mon Mar 24 19:42:11 2014

@<TRIPOS>MOLECULE
2ax9_BHM_1_INTS_M
   70     0     9     0     0
SMALL
NO_CHARGES


@<TRIPOS>ATOM
      1 CA         30.7185    2.1045    7.9395 C.3       3 GLC5        0.0000 
      2 CA         30.7480    1.5620    6.2840 C.3       9 GLL5        0.0000 
      3 CA         30.6890    2.6470    9.5950 C.3       6 GLP5        0.0000 
      4 N          32.0185    0.7740    3.2245 N.am      2 SEC2        0.0000 
      5 N          30.8330    1.3130    3.2020 N.am      8 SEL2        0.0000 
      6 N          33.2040    0.2350    3.2470 N.am      5 SEP2        0.0000 
      7 CA         30.1745   -1.2910    1.2140 C.3       3 GLC5        0.0000 
      8 CA         29.4750   -0.6770    2.9030 C.3       9 GLL5        0.0000 
      9 CA         30.8740   -1.9050   -0.4750 C.3       6 GLP5        0.0000 
     10 CA         27.7170   -1.2465    2.1430 C.3       3 GLC5        0.0000 
     11 CA         25.9590   -1.8160    1.3830 C.3       6 GLP5        0.0000 
     12 CA         29.1280   -2.5505    2.1815 C.3       3 GLC5        0.0000 
     13 CA         28.7810   -4.4240    1.4600 C.3       6 GLP5        0.0000 
     14 O          29.9885    3.5385    3.1145 O.2       1 ALC1        0.0000 
     15 O          28.7280    2.6800    3.6910 O.2       7 ALL1        0.0000 
     16 O          31.2490    4.3970    2.5380 O.2       4 ALP1        0.0000 
     17 CA         25.9825    2.2715    5.9455 C.3       3 GLC5        0.0000 
     18 CA         26.4540    3.3450    4.0380 C.3       9 GLL5        0.0000 
     19 CA         25.5110    1.1980    7.8530 C.3       6 GLP5        0.0000 
     20 CA         28.7960    6.7865    2.6940 C.3       3 GLC5        0.0000 
     21 CA         28.1540    4.9350    3.4700 C.3       9 GLL5        0.0000 
     22 CA         29.4380    8.6380    1.9180 C.3       6 GLP5        0.0000 
     23 CA         27.8155    7.1155    2.1715 C.3       3 GLC5        0.0000 
     24 CA         27.1930    5.9390    3.5080 C.3       9 GLL5        0.0000 
     25 CA         28.4380    8.2920    0.8350 C.3       6 GLP5        0.0000 
     26 N          26.0900    8.9920    3.7810 N.am      2 SEC2        0.0000 
     27 N          25.5390    8.0010    3.5840 N.am      8 SEL2        0.0000 
     28 N          26.6410    9.9830    3.9780 N.am      5 SEP2        0.0000 
     29 N          24.4965    9.0700    3.2390 N.am      2 SEC2        0.0000 
     30 N          23.4540   10.1390    2.8940 N.am      5 SEP2        0.0000 
     31 CA         26.4110    4.4865    5.8725 C.3       3 GLC5        0.0000 
     32 CA         25.4740    4.3390    4.0700 C.3       9 GLL5        0.0000 
     33 CA         27.3480    4.6340    7.6750 C.3       6 GLP5        0.0000 
     34 CA         24.5615    2.7390    6.6805 C.3       3 GLC5        0.0000 
     35 CA         23.6120    4.2800    5.5080 C.3       9 GLL5        0.0000 
     36 CA         22.0725    4.5530    6.1480 C.3       3 GLC5        0.0000 
     37 CA         20.5330    4.8260    6.7880 C.3       6 GLP5        0.0000 
     38 CA         21.8575    4.6440    5.0925 C.3       3 GLC5        0.0000 
     39 CA         23.1820    4.4620    3.3970 C.3       9 GLL5        0.0000 
     40 CA         21.8705    4.5690    2.2850 C.3       3 GLC5        0.0000 
     41 CA         20.5590    4.6760    1.1730 C.3       6 GLP5        0.0000 
     42 CA         24.6725    1.9035    6.0175 C.3       3 GLC5        0.0000 
     43 CA         23.8340    2.6090    4.1820 C.3       9 GLL5        0.0000 
     44 CA         23.2930    1.1815    4.8765 C.3       3 GLC5        0.0000 
     45 CA         22.7520   -0.2460    5.5710 C.3       6 GLP5        0.0000 
     46 CA         28.7810    0.5300    6.8678 C.3       3 GLC5        0.0000 
     47 CA         30.2680    0.0440    5.1690 C.3       9 GLL5        0.0000 
     48 CA         27.0540    0.2570    8.0090 C.3       6 GLP5        0.0000 
     49 CA         30.8370   -0.9510    6.3747 C.3       3 GLC5        0.0000 
     50 CA         31.1660   -2.7050    7.0230 C.3       6 GLP5        0.0000 
     51 CA         29.9075    1.1907    1.7252 C.3       3 GLC5        0.0000 
     52 CA         29.7970    0.5240    3.7940 C.3       9 GLL5        0.0000 
     53 CA         30.1790    2.4580    0.1020 C.3       6 GLP5        0.0000 
     54 CA         27.9917    3.9223    1.5820 C.3       3 GLC5        0.0000 
     55 CA         27.7870    3.6220    3.7460 C.3       9 GLL5        0.0000 
     56 CA         28.0130    3.5660   -0.4440 C.3       6 GLP5        0.0000 
     57 CA         27.4926    4.4216    5.6780 C.3       3 GLC5        0.0000 
     58 CA         29.2904    5.5894    4.6420 C.3       3 GLC5        0.0000 
     59 CA         30.9990    6.0700    5.7260 C.3       6 GLP5        0.0000 
     60 CA         26.9330    6.1000    5.5557 C.3       3 GLC5        0.0000 
     61 CA         27.3370    6.4020    7.4490 C.3       6 GLP5        0.0000 
     62 CA         24.1950    5.2127    6.3665 C.3       3 GLC5        0.0000 
     63 CA         24.5800    6.3240    7.8340 C.3       6 GLP5        0.0000 
     64 CA         22.5720    2.8410    5.6545 C.3       3 GLC5        0.0000 
     65 CA         24.0080    3.9230    4.2900 C.3       9 GLL5        0.0000 
     66 CA         21.2230    2.4160    7.0730 C.3       6 GLP5        0.0000 
     67 CA         24.0012    3.5814    2.1519 C.3       3 GLC5        0.0000 
     68 CA         24.2880    3.7620    0.2910 C.3       6 GLP5        0.0000 
     69 CA         22.0637    2.6149    3.5729 C.3       3 GLC5        0.0000 
     70 CA         20.4130    1.8290    3.1330 C.3       6 GLP5        0.0000 
@<TRIPOS>BOND
@<TRIPOS>SUBSTRUCTURE
     1 ALC1       14 GROUP        1 X    ALC  0     ROOT ALC X 1
     2 SEC2        4 GROUP        1 X    SEC  0     **** SEC X 2
     3 GLC5        1 GROUP        1 X    GLC  0     **** GLC X 6
     4 ALP1       16 GROUP        1 Y    ALP  0     ROOT ALP Y 8
     5 SEP2        6 GROUP        1 Y    SEP  0     **** SEP Y 9
     6 GLP5        3 GROUP        1 Y    GLP  0     **** GLP Y 13
     7 ALL1       15 GROUP        1 Z    ALL  0     ROOT ALL Z 15
     8 SEL2        5 GROUP        1 Z    SEL  0     **** SEL Z 16
     9 GLL5        2 GROUP        1 Z    GLL  0     **** GLL Z 20
@<TRIPOS>SET

