#    Name: 2ax9_BHM_1_ligand
#    Modification time : Mon Mar 24 19:42:11 2014

@<TRIPOS>MOLECULE
2ax9_BHM_1_ligand
   31    31     1     0     0
SMALL
NO_CHARGES


@<TRIPOS>ATOM
      1 BRAI       30.7480    1.5620    6.2840 Br        1 BHM1        0.0000 
      2 C13        30.2680    0.0440    5.1690 C.3       1 BHM1        0.0000 
      3 C11        29.7970    0.5240    3.7940 C.3       1 BHM1        0.0000 
      4 O11        30.8330    1.3130    3.2020 O.3       1 BHM1        0.0000 
      5 C12        29.4750   -0.6770    2.9030 C.3       1 BHM1        0.0000 
      6 C10        28.5410    1.3860    3.9430 C.2       1 BHM1        0.0000 
      7 O10        27.4770    0.8860    4.3090 O.2       1 BHM1        0.0000 
      8 N09        28.7280    2.6800    3.6910 N.am      1 BHM1        0.0000 
      9 C06        27.7870    3.6220    3.7460 C.ar      1 BHM1        0.0000 
     10 C05        26.4540    3.3450    4.0380 C.ar      1 BHM1        0.0000 
     11 C01        28.1540    4.9350    3.4700 C.ar      1 BHM1        0.0000 
     12 C02        27.1930    5.9390    3.5080 C.ar      1 BHM1        0.0000 
     13 C03        25.8650    5.6570    3.8170 C.ar      1 BHM1        0.0000 
     14 N08        25.0390    6.7030    3.8740 N.pl3     1 BHM1        0.0000 
     15 O02        23.6970    6.6110    4.3290 O.2       1 BHM1        0.0000 
     16 O01        25.5390    8.0010    3.5840 O.2       1 BHM1        0.0000 
     17 C04        25.4740    4.3390    4.0700 C.ar      1 BHM1        0.0000 
     18 C07        24.0080    3.9230    4.2900 C.3       1 BHM1        0.0000 
     19 F01        23.6120    4.2800    5.5080 F         1 BHM1        0.0000 
     20 F02        23.1820    4.4620    3.3970 F         1 BHM1        0.0000 
     21 F03        23.8340    2.6090    4.1820 F         1 BHM1        0.0000 
     22 H          29.5228   -0.3882    5.7790 H         1 BHM1        0.0000 
     23 H          31.1878   -0.4738    5.1788 H         1 BHM1        0.0000 
     24 H          29.7299    2.9941    3.4181 H         1 BHM1        0.0000 
     25 H          26.1759    2.3597    4.2404 H         1 BHM1        0.0000 
     26 H          29.1274    5.1608    3.2399 H         1 BHM1        0.0000 
     27 H          27.4697    6.9170    3.3024 H         1 BHM1        0.0000 
     28 H          30.2742   -1.2621    2.7652 H         1 BHM1        0.0000 
     29 H          28.7567   -1.2501    3.2974 H         1 BHM1        0.0000 
     30 H          29.1596   -0.3936    1.9973 H         1 BHM1        0.0000 
     31 H          30.8690    1.0182    2.2471 H         1 BHM1        0.0000 
@<TRIPOS>BOND
     1    2    1 1    
     2    3    2 1    
     3   22    2 1    
     4   23    2 1    
     5    4    3 1    
     6    5    3 1    
     7    6    3 1    
     8   31    4 1    
     9   28    5 1    
    10   29    5 1    
    11   30    5 1    
    12    7    6 2    
    13    8    6 am   
    14    9    8 1    
    15   24    8 1    
    16   10    9 ar   
    17   11    9 ar   
    18   17   10 ar   
    19   25   10 1    
    20   12   11 ar   
    21   26   11 1    
    22   13   12 ar   
    23   27   12 1    
    24   14   13 1    
    25   17   13 ar   
    26   15   14 2    
    27   16   14 2    
    28   18   17 1    
    29   19   18 1    
    30   20   18 1    
    31   21   18 1    
@<TRIPOS>SUBSTRUCTURE
     1 BHM1        1 GROUP   
@<TRIPOS>SET

