#    Name: 1nks_AMP_2_INTS_M
#    Modification time : Mon Mar 24 18:24:44 2014

@<TRIPOS>MOLECULE
1nks_AMP_2_INTS_M
   70     0    12     0     0
SMALL
NO_CHARGES


@<TRIPOS>ATOM
      1 N          25.9000   79.4470  100.8550 N.am      2 SEC2        0.0000 
      2 N          26.8060   80.2560  101.6870 N.am     10 SEL2        0.0000 
      3 N          24.9940   78.6380  100.0230 N.am      6 SEP2        0.0000 
      4 NZ         25.9870   81.4885   98.7770 N.4       3 LYC4        0.0000 
      5 NZ         25.6470   82.0880  100.4030 N.4      11 LYL4        0.0000 
      6 NZ         26.3270   80.8890   97.1510 N.4       7 LYP4        0.0000 
      7 N          25.6200   83.5890  100.2175 N.am      2 SEC2        0.0000 
      8 N          25.6470   82.0880  100.4030 N.am     10 SEL2        0.0000 
      9 N          25.5930   85.0900  100.0320 N.am      6 SEP2        0.0000 
     10 NZ         26.9995   83.2355  103.8645 N.4       3 LYC4        0.0000 
     11 NZ         26.7440   82.8080  102.3800 N.4      11 LYL4        0.0000 
     12 NZ         26.5220   84.7370  105.0950 N.4       7 LYP4        0.0000 
     13 N          26.1685   83.9490  101.2060 N.am      2 SEC2        0.0000 
     14 N          26.7440   82.8080  102.3800 N.am     10 SEL2        0.0000 
     15 N          26.9995   83.2355  103.8645 N.am      2 SEC2        0.0000 
     16 N          27.2550   83.6630  105.3490 N.am      6 SEP2        0.0000 
     17 N          26.3000   83.7775  103.1550 N.am      2 SEC2        0.0000 
     18 N          25.8560   84.7470  103.9300 N.am      6 SEP2        0.0000 
     19 CA         26.2350   81.5855  105.7065 C.3       4 GLC5        0.0000 
     20 CA         25.0900   80.8450  104.0140 C.3      12 GLL5        0.0000 
     21 CA         27.3800   82.3260  107.3990 C.3       8 GLP5        0.0000 
     22 CA         22.9565   80.9610  106.1275 C.3       4 GLC5        0.0000 
     23 CA         23.9510   80.0790  104.5670 C.3      12 GLL5        0.0000 
     24 CA         21.9620   81.8430  107.6880 C.3       8 GLP5        0.0000 
     25 CA         23.7245   78.6085  101.9180 C.3       4 GLC5        0.0000 
     26 CA         23.7860   78.6430  104.0510 C.3      12 GLL5        0.0000 
     27 CA         23.6630   78.5740   99.7850 C.3       8 GLP5        0.0000 
     28 N          25.9780   77.1685  105.5610 N.am      2 SEC2        0.0000 
     29 N          24.7560   77.7460  104.4980 N.am     10 SEL2        0.0000 
     30 N          27.2000   76.5910  106.6240 N.am      6 SEP2        0.0000 
     31 CA         21.5310   76.8890  103.1415 C.3       4 GLC5        0.0000 
     32 CA         22.4200   78.2840  104.4410 C.3      12 GLL5        0.0000 
     33 CA         20.6420   75.4940  101.8420 C.3       8 GLP5        0.0000 
     34 CA         21.8215   81.7285  103.6860 C.3       4 GLC5        0.0000 
     35 CA         21.7970   79.6320  104.0680 C.3      12 GLL5        0.0000 
     36 CA         21.8460   83.8250  103.3040 C.3       8 GLP5        0.0000 
     37 CA         19.9080   80.4465  104.2045 C.3       4 GLC5        0.0000 
     38 CA         18.0190   81.2610  104.3410 C.3       8 GLP5        0.0000 
     39 CA         21.8795   80.7375  105.8780 C.3       4 GLC5        0.0000 
     40 N          20.3375   80.5645   99.4290 N.am      2 SEC2        0.0000 
     41 N          20.5240   80.4230  100.7890 N.am     10 SEL2        0.0000 
     42 N          20.1510   80.7060   98.0690 N.am      6 SEP2        0.0000 
     43 CA         19.5170   81.6780  100.3860 C.3       4 GLC5        0.0000 
     44 CA         19.4730   79.6310  101.2480 C.3      12 GLL5        0.0000 
     45 CA         19.5610   83.7250   99.5240 C.3       8 GLP5        0.0000 
     46 CA         16.3260   79.0965  101.8475 C.3       4 GLC5        0.0000 
     47 CA         18.2430   79.2190  100.6950 C.3      12 GLL5        0.0000 
     48 CA         14.4090   78.9740  103.0000 C.3       8 GLP5        0.0000 
     49 CA         17.6230   77.7955   99.5335 C.3       4 GLC5        0.0000 
     50 CA         17.0030   76.3720   98.3720 C.3       8 GLP5        0.0000 
     51 O          18.9895   80.1505   98.7615 O.2       1 ALC1        0.0000 
     52 O          17.8280   79.5950   99.4540 O.2       9 ALL1        0.0000 
     53 O          20.1510   80.7060   98.0690 O.2       5 ALP1        0.0000 
     54 O          16.6840   78.9225   98.8420 O.2       1 ALC1        0.0000 
     55 O          15.5400   78.2500   98.2300 O.2       5 ALP1        0.0000 
     56 N          16.0995   77.7835  101.4610 N.am      2 SEC2        0.0000 
     57 N          17.4910   78.4610  101.4840 N.am     10 SEL2        0.0000 
     58 N          14.7080   77.1060  101.4380 N.am      6 SEP2        0.0000 
     59 CA         17.9475   79.6785  103.5210 C.3       4 GLC5        0.0000 
     60 CA         17.8760   78.0960  102.7010 C.3      12 GLL5        0.0000 
     61 CA         16.1425   78.5350  102.8505 C.3       4 GLC5        0.0000 
     62 CA         18.7325   76.8905  101.7430 C.3       4 GLC5        0.0000 
     63 CA         19.5890   75.6850  100.7850 C.3       8 GLP5        0.0000 
     64 CA         17.0195   76.1755  103.4980 C.3       4 GLC5        0.0000 
     65 CA         16.1630   74.2550  104.2950 C.3       8 GLP5        0.0000 
     66 CA         20.2265   77.3470  102.2050 C.3       4 GLC5        0.0000 
     67 CA         19.8110   79.2000  102.5680 C.3      12 GLL5        0.0000 
     68 CA         23.1833   82.1435  103.7972 C.3       4 GLC5        0.0000 
     69 CA         19.2235   77.5550  100.8783 C.3       4 GLC5        0.0000 
     70 CA         18.6767   80.2867  103.0554 C.3       4 GLC5        0.0000 
@<TRIPOS>BOND
@<TRIPOS>SUBSTRUCTURE
     1 ALC1       51 GROUP        1 X    ALC  0     ROOT ALC X 1
     2 SEC2        1 GROUP        1 X    SEC  0     **** SEC X 2
     3 LYC4        4 GROUP        1 X    LYC  0     **** LYC X 4
     4 GLC5       19 GROUP        1 X    GLC  0     **** GLC X 6
     5 ALP1       53 GROUP        1 Y    ALP  0     ROOT ALP Y 8
     6 SEP2        3 GROUP        1 Y    SEP  0     **** SEP Y 9
     7 LYP4        6 GROUP        1 Y    LYP  0     **** LYP Y 11
     8 GLP5       21 GROUP        1 Y    GLP  0     **** GLP Y 13
     9 ALL1       52 GROUP        1 Z    ALL  0     ROOT ALL Z 15
    10 SEL2        2 GROUP        1 Z    SEL  0     **** SEL Z 16
    11 LYL4        5 GROUP        1 Z    LYL  0     **** LYL Z 18
    12 GLL5       20 GROUP        1 Z    GLL  0     **** GLL Z 20
@<TRIPOS>SET

