#    Name: 1nks_AMP_2_ligand
#    Modification time : Mon Mar 24 18:24:44 2014

@<TRIPOS>MOLECULE
1nks_AMP_2_ligand
   35    37     1     0     0
SMALL
NO_CHARGES


@<TRIPOS>ATOM
      1 P          26.0750   81.5140  101.7110 P.3       1 AMP195      0.0000 
      2 O1P        26.8060   80.2560  101.6870 O.co2     1 AMP195      0.0000 
      3 O2P        25.6470   82.0880  100.4030 O.co2     1 AMP195      0.0000 
      4 O3P        26.7440   82.8080  102.3800 O.co2     1 AMP195      0.0000 
      5 O5'        24.8860   81.3750  102.6200 O.3       1 AMP195      0.0000 
      6 C5'        25.0900   80.8450  104.0140 C.3       1 AMP195      0.0000 
      7 C4'        23.9510   80.0790  104.5670 C.3       1 AMP195      0.0000 
      8 O4'        22.6820   80.6860  104.4020 O.3       1 AMP195      0.0000 
      9 C3'        23.7860   78.6430  104.0510 C.3       1 AMP195      0.0000 
     10 O3'        24.7560   77.7460  104.4980 O.3       1 AMP195      0.0000 
     11 C2'        22.4200   78.2840  104.4410 C.3       1 AMP195      0.0000 
     12 O2'        22.2820   78.0750  105.7990 O.3       1 AMP195      0.0000 
     13 C1'        21.7970   79.6320  104.0680 C.3       1 AMP195      0.0000 
     14 N9         21.0230   79.7450  102.8340 N.pl3     1 AMP195      0.0000 
     15 C8         21.4090   80.4560  101.7180 C.2       1 AMP195      0.0000 
     16 N7         20.5240   80.4230  100.7890 N.2       1 AMP195      0.0000 
     17 C5         19.4730   79.6310  101.2480 C.ar      1 AMP195      0.0000 
     18 C6         18.2430   79.2190  100.6950 C.ar      1 AMP195      0.0000 
     19 N6         17.8280   79.5950   99.4540 N.pl3     1 AMP195      0.0000 
     20 N1         17.4910   78.4610  101.4840 N.ar      1 AMP195      0.0000 
     21 C2         17.8760   78.0960  102.7010 C.ar      1 AMP195      0.0000 
     22 N3         19.0180   78.4130  103.3430 N.ar      1 AMP195      0.0000 
     23 C4         19.8110   79.2000  102.5680 C.ar      1 AMP195      0.0000 
     24 H          25.3248   81.7019  104.6878 H         1 AMP195      0.0000 
     25 H          26.0053   80.2081  104.0203 H         1 AMP195      0.0000 
     26 H          24.1183   79.9551  105.6806 H         1 AMP195      0.0000 
     27 H          23.7868   78.7357  102.9448 H         1 AMP195      0.0000 
     28 H          22.0339   77.5752  103.7961 H         1 AMP195      0.0000 
     29 H          20.9487   79.7203  104.9410 H         1 AMP195      0.0000 
     30 H          22.2893   80.9266  101.6862 H         1 AMP195      0.0000 
     31 H          16.9284   79.2621   99.1712 H         1 AMP195      0.0000 
     32 H          18.4593   80.1709   98.9346 H         1 AMP195      0.0000 
     33 H          17.1796   77.4530  103.2630 H         1 AMP195      0.0000 
     34 H          24.7585   77.8425  105.4933 H         1 AMP195      0.0000 
     35 H          21.3345   77.7791  105.9202 H         1 AMP195      0.0000 
@<TRIPOS>BOND
     1    2    1 ar   
     2    3    1 ar   
     3    4    1 ar   
     4    5    1 1    
     5    6    5 1    
     6    7    6 1    
     7   24    6 1    
     8   25    6 1    
     9    8    7 1    
    10    9    7 1    
    11   26    7 1    
    12   13    8 1    
    13   10    9 1    
    14   11    9 1    
    15   27    9 1    
    16   34   10 1    
    17   12   11 1    
    18   13   11 1    
    19   28   11 1    
    20   35   12 1    
    21   14   13 1    
    22   29   13 1    
    23   15   14 1    
    24   23   14 1    
    25   16   15 2    
    26   30   15 1    
    27   17   16 1    
    28   18   17 ar   
    29   23   17 ar   
    30   19   18 1    
    31   20   18 ar   
    32   31   19 1    
    33   32   19 1    
    34   21   20 ar   
    35   22   21 ar   
    36   33   21 1    
    37   23   22 ar   
@<TRIPOS>SUBSTRUCTURE
     1 AMP195      1 GROUP   
@<TRIPOS>SET

