#    Name: 2y3i_LA8_1_INTS_M
#    Modification time : Tue Mar 25 07:27:52 2014

@<TRIPOS>MOLECULE
2y3i_LA8_1_INTS_M
   71     0    15     0     0
SMALL
NO_CHARGES


@<TRIPOS>ATOM
      1 NZ        -22.4000   -5.1545  -14.4060 N.4       3 LYC4        0.0000 
      2 NZ        -21.3810   -4.5410  -13.6850 N.4      13 LYL4        0.0000 
      3 NZ        -23.4190   -5.7680  -15.1270 N.4       8 LYP4        0.0000 
      4 N         -22.4000   -5.1545  -14.4060 N.am      2 SEC2        0.0000 
      5 N         -21.3810   -4.5410  -13.6850 N.am     12 SEL2        0.0000 
      6 N         -23.4190   -5.7680  -15.1270 N.am      7 SEP2        0.0000 
      7 N         -21.2730   -3.9090  -15.2675 N.am      2 SEC2        0.0000 
      8 N         -21.1650   -3.2770  -16.8500 N.am      7 SEP2        0.0000 
      9 N         -17.4780   -4.0275  -14.8530 N.am      2 SEC2        0.0000 
     10 N         -19.1170   -3.9210  -14.7310 N.am     12 SEL2        0.0000 
     11 N         -15.8390   -4.1340  -14.9750 N.am      7 SEP2        0.0000 
     12 N         -18.4045   -4.3735  -15.8180 N.am      2 SEC2        0.0000 
     13 N         -17.6920   -4.8260  -16.9050 N.am      7 SEP2        0.0000 
     14 Zn        -19.5020   -4.7460  -11.2570 Zn        4 ZIC7        0.0000 
     15 Zn        -19.3200   -4.1480  -12.2120 Zn       14 ZIL7        0.0000 
     16 Zn        -19.6840   -5.3440  -10.3020 Zn        9 ZIP7        0.0000 
     17 N         -17.8660   -3.8500  -12.2515 N.am      2 SEC2        0.0000 
     18 N         -19.3200   -4.1480  -12.2120 N.am     12 SEL2        0.0000 
     19 N         -16.4120   -3.5520  -12.2910 N.am      7 SEP2        0.0000 
     20 N         -18.5195   -4.8765  -11.4755 N.am      2 SEC2        0.0000 
     21 N         -17.7190   -5.6050  -10.7390 N.am      7 SEP2        0.0000 
     22 NZ        -21.8310   -5.8525  -10.4475 N.4       3 LYC4        0.0000 
     23 NZ        -20.3440   -6.4930  -11.3250 N.4      13 LYL4        0.0000 
     24 NZ        -23.3180   -5.2120   -9.5700 N.4       8 LYP4        0.0000 
     25 Zn        -20.0140   -5.9185  -10.8135 Zn        4 ZIC7        0.0000 
     26 Zn        -20.3440   -6.4930  -11.3250 Zn       14 ZIL7        0.0000 
     27 NZ        -22.2765   -6.9005  -14.1930 N.4       3 LYC4        0.0000 
     28 NZ        -21.1340   -8.0330  -13.2590 N.4      13 LYL4        0.0000 
     29 N         -21.1620   -9.6950  -13.5750 N.am      2 SEC2        0.0000 
     30 N         -21.1340   -8.0330  -13.2590 N.am     12 SEL2        0.0000 
     31 N         -21.1900  -11.3570  -13.8910 N.am      7 SEP2        0.0000 
     32 CA        -19.6400  -10.9985  -12.2465 C.3       5 GLC5        0.0000 
     33 CA        -18.5500   -9.4680  -12.6390 C.3      15 GLL5        0.0000 
     34 CA        -20.7300  -12.5290  -11.8540 C.3      10 GLP5        0.0000 
     35 N         -13.4695   -9.9335  -11.9235 N.am      2 SEC2        0.0000 
     36 N         -14.2730  -10.5890  -12.9090 N.am     12 SEL2        0.0000 
     37 N         -12.6660   -9.2780  -10.9380 N.am      7 SEP2        0.0000 
     38 O         -13.1160  -10.7235  -12.6070 O.2       1 ALC1        0.0000 
     39 O         -14.2730  -10.5890  -12.9090 O.2      11 ALL1        0.0000 
     40 O         -11.9590  -10.8580  -12.3050 O.2       6 ALP1        0.0000 
     41 N         -14.1190   -9.4880  -11.0455 N.am      2 SEC2        0.0000 
     42 N         -15.5720   -9.6980  -11.1530 N.am     12 SEL2        0.0000 
     43 O         -15.8035   -8.3130  -10.6935 O.2       1 ALC1        0.0000 
     44 O         -15.5720   -9.6980  -11.1530 O.2      11 ALL1        0.0000 
     45 O         -16.0350   -6.9280  -10.2340 O.2       6 ALP1        0.0000 
     46 CA        -20.2235  -16.1395  -13.2760 C.3       5 GLC5        0.0000 
     47 CA        -18.2590  -15.9180  -13.6960 C.3      15 GLL5        0.0000 
     48 CA        -22.1880  -16.3610  -12.8560 C.3      10 GLP5        0.0000 
     49 CA        -16.9985  -17.6845  -13.3845 C.3       5 GLC5        0.0000 
     50 CA        -15.7380  -19.4510  -13.0730 C.3      10 GLP5        0.0000 
     51 CA        -19.1405  -13.8020  -11.7560 C.3       5 GLC5        0.0000 
     52 CA        -17.5510  -15.0750  -11.6580 C.3      15 GLL5        0.0000 
     53 CA        -15.8260  -15.4235  -12.6575 C.3       5 GLC5        0.0000 
     54 CA        -14.1010  -15.7720  -13.6570 C.3      10 GLP5        0.0000 
     55 CA        -16.9345   -8.7795  -14.7825 C.3       5 GLC5        0.0000 
     56 CA        -17.0850   -9.7550  -12.9650 C.3      15 GLL5        0.0000 
     57 CA        -16.7840   -7.8040  -16.6000 C.3      10 GLP5        0.0000 
     58 CA        -15.6875  -10.4315  -15.7610 C.3       5 GLC5        0.0000 
     59 CA        -16.1120  -11.5360  -14.0850 C.3      15 GLL5        0.0000 
     60 CA        -15.2630   -9.3270  -17.4370 C.3      10 GLP5        0.0000 
     61 CA        -19.1043  -10.0143  -14.3680 C.3       5 GLC5        0.0000 
     62 CA        -20.3910  -10.4170  -15.9340 C.3      10 GLP5        0.0000 
     63 CA        -16.9487   -7.8018  -12.6130 C.3       5 GLC5        0.0000 
     64 CA        -16.0800   -5.9920  -12.4240 C.3      10 GLP5        0.0000 
     65 CA        -14.2967  -12.6865  -14.0535 C.3       5 GLC5        0.0000 
     66 CA        -15.4210  -11.3900  -12.7290 C.3      15 GLL5        0.0000 
     67 CA        -12.8270  -13.9100  -14.7000 C.3      10 GLP5        0.0000 
     68 CA        -19.1018  -13.4075  -12.8938 C.3       5 GLC5        0.0000 
     69 CA        -17.1760  -13.7950  -13.5540 C.3      15 GLL5        0.0000 
     70 CA        -15.8483  -15.1716  -13.7181 C.3       5 GLC5        0.0000 
     71 CA        -17.7710  -14.7770  -14.3130 C.3      15 GLL5        0.0000 
@<TRIPOS>BOND
@<TRIPOS>SUBSTRUCTURE
     1 ALC1       38 GROUP        1 X    ALC  0     ROOT ALC X 1
     2 SEC2        4 GROUP        1 X    SEC  0     **** SEC X 2
     3 LYC4        1 GROUP        1 X    LYC  0     **** LYC X 4
     4 ZIC7       14 GROUP        1 X    ZIC  0     **** ZIC X 5
     5 GLC5       32 GROUP        1 X    GLC  0     **** GLC X 6
     6 ALP1       40 GROUP        1 Y    ALP  0     ROOT ALP Y 8
     7 SEP2        6 GROUP        1 Y    SEP  0     **** SEP Y 9
     8 LYP4        3 GROUP        1 Y    LYP  0     **** LYP Y 11
     9 ZIP7       16 GROUP        1 Y    ZIP  0     **** ZIP Y 12
    10 GLP5       34 GROUP        1 Y    GLP  0     **** GLP Y 13
    11 ALL1       39 GROUP        1 Z    ALL  0     ROOT ALL Z 15
    12 SEL2        5 GROUP        1 Z    SEL  0     **** SEL Z 16
    13 LYL4        2 GROUP        1 Z    LYL  0     **** LYL Z 18
    14 ZIL7       15 GROUP        1 Z    ZIL  0     **** ZIL Z 19
    15 GLL5       33 GROUP        1 Z    GLL  0     **** GLL Z 20
@<TRIPOS>SET

