#    Name: 2y3i_LA8_1_ligand
#    Modification time : Tue Mar 25 07:27:52 2014

@<TRIPOS>MOLECULE
2y3i_LA8_1_ligand
   39    41     1     0     0
SMALL
NO_CHARGES


@<TRIPOS>ATOM
      1 PB        -19.7810   -4.6860  -13.5070 P.3       1 LA81418     0.0000 
      2 O1B       -21.3810   -4.5410  -13.6850 O.co2     1 LA81418     0.0000 
      3 O2B       -19.1170   -3.9210  -14.7310 O.co2     1 LA81418     0.0000 
      4 O3B       -19.3200   -4.1480  -12.2120 O.co2     1 LA81418     0.0000 
      5 PA        -20.0020   -7.2780  -12.6970 P.3       1 LA81418     0.0000 
      6 O1A       -20.3440   -6.4930  -11.3250 O.co2     1 LA81418     0.0000 
      7 O2A       -21.1340   -8.0330  -13.2590 O.co2     1 LA81418     0.0000 
      8 O3A       -19.4930   -6.2000  -13.7330 O.3       1 LA81418     0.0000 
      9 O5'       -18.7140   -8.0950  -12.3350 O.3       1 LA81418     0.0000 
     10 C5'       -18.5500   -9.4680  -12.6390 C.3       1 LA81418     0.0000 
     11 O4'       -17.1870  -10.5970  -14.0960 O.3       1 LA81418     0.0000 
     12 C3'       -15.4210  -11.3900  -12.7290 C.3       1 LA81418     0.0000 
     13 O3'       -14.2730  -10.5890  -12.9090 O.3       1 LA81418     0.0000 
     14 C2'       -16.3760  -10.5790  -11.9090 C.3       1 LA81418     0.0000 
     15 O2'       -15.5720   -9.6980  -11.1530 O.3       1 LA81418     0.0000 
     16 N9        -16.8020  -12.8310  -14.3890 N.pl3     1 LA81418     0.0000 
     17 C8        -17.1560  -13.1950  -15.6140 C.2       1 LA81418     0.0000 
     18 N7        -17.7460  -14.3830  -15.5700 N.2       1 LA81418     0.0000 
     19 C5        -17.7710  -14.7770  -14.3130 C.ar      1 LA81418     0.0000 
     20 C6        -18.2590  -15.9180  -13.6960 C.ar      1 LA81418     0.0000 
     21 N6        -18.8390  -16.8740  -14.4180 N.pl3     1 LA81418     0.0000 
     22 N1        -18.1320  -16.0400  -12.3670 N.ar      1 LA81418     0.0000 
     23 C2        -17.5510  -15.0750  -11.6580 C.ar      1 LA81418     0.0000 
     24 N3        -17.0830  -13.9740  -12.2290 N.ar      1 LA81418     0.0000 
     25 C4        -17.1760  -13.7950  -13.5540 C.ar      1 LA81418     0.0000 
     26 C4'       -17.0850   -9.7550  -12.9650 C.3       1 LA81418     0.0000 
     27 C1'       -16.1120  -11.5360  -14.0850 C.3       1 LA81418     0.0000 
     28 H         -19.1482   -9.7725  -13.5080 H         1 LA81418     0.0000 
     29 H         -18.8344  -10.1137  -11.7977 H         1 LA81418     0.0000 
     30 H         -15.2574  -12.3076  -12.3079 H         1 LA81418     0.0000 
     31 H         -17.0176  -11.1606  -11.3975 H         1 LA81418     0.0000 
     32 H         -17.0053  -12.6678  -16.4279 H         1 LA81418     0.0000 
     33 H         -19.1182  -17.6943  -13.9188 H         1 LA81418     0.0000 
     34 H         -18.9433  -16.6858  -15.3946 H         1 LA81418     0.0000 
     35 H         -17.4611  -15.1923  -10.6073 H         1 LA81418     0.0000 
     36 H         -16.5789   -8.8757  -13.1754 H         1 LA81418     0.0000 
     37 H         -15.4277  -11.2933  -14.8722 H         1 LA81418     0.0000 
     38 H         -13.5212  -11.1242  -12.5239 H         1 LA81418     0.0000 
     39 H         -16.1168   -8.8644  -11.0617 H         1 LA81418     0.0000 
@<TRIPOS>BOND
     1    2    1 ar   
     2    3    1 ar   
     3    4    1 ar   
     4    8    1 1    
     5    6    5 ar   
     6    7    5 ar   
     7    8    5 1    
     8    9    5 1    
     9   10    9 1    
    10   26   10 1    
    11   28   10 1    
    12   29   10 1    
    13   26   11 1    
    14   27   11 1    
    15   13   12 1    
    16   14   12 1    
    17   27   12 1    
    18   30   12 1    
    19   38   13 1    
    20   15   14 1    
    21   26   14 1    
    22   31   14 1    
    23   39   15 1    
    24   17   16 1    
    25   25   16 1    
    26   27   16 1    
    27   18   17 2    
    28   32   17 1    
    29   19   18 1    
    30   20   19 ar   
    31   25   19 ar   
    32   21   20 1    
    33   22   20 ar   
    34   33   21 1    
    35   34   21 1    
    36   23   22 ar   
    37   24   23 ar   
    38   35   23 1    
    39   25   24 ar   
    40   36   26 1    
    41   37   27 1    
@<TRIPOS>SUBSTRUCTURE
     1 LA81418     1 GROUP   
@<TRIPOS>SET

