#    Name: 3nut_SAH_4_INTS_M
#    Modification time : Tue Mar 25 02:40:39 2014

@<TRIPOS>MOLECULE
3nut_SAH_4_INTS_M
   69     0     9     0     0
SMALL
NO_CHARGES


@<TRIPOS>ATOM
      1 O          68.7600   37.6190   11.9180 O.2       1 ALC1        0.0000 
      2 O          69.9350   38.3820   11.4390 O.2       7 ALL1        0.0000 
      3 O          67.5850   36.8560   12.3970 O.2       4 ALP1        0.0000 
      4 O          69.4890   37.8290   10.1970 O.2       1 ALC1        0.0000 
      5 O          69.0430   37.2760    8.9550 O.2       4 ALP1        0.0000 
      6 CA         69.3055   40.3565   13.0795 C.3       3 GLC5        0.0000 
      7 CA         70.2320   39.8450   11.2720 C.3       9 GLL5        0.0000 
      8 CA         68.3790   40.8680   14.8870 C.3       6 GLP5        0.0000 
      9 CA         69.4865   41.1385    9.6995 C.3       3 GLC5        0.0000 
     10 CA         68.7410   42.4320    8.1270 C.3       6 GLP5        0.0000 
     11 CA         70.3390   41.1545    8.5645 C.3       3 GLC5        0.0000 
     12 CA         70.9000   40.1070    9.9130 C.3       9 GLL5        0.0000 
     13 CA         69.7780   42.2020    7.2160 C.3       6 GLP5        0.0000 
     14 CA         71.4545   41.0760    7.8005 C.3       3 GLC5        0.0000 
     15 CA         73.1310   39.9500    8.3850 C.3       9 GLL5        0.0000 
     16 N          67.4315   39.5395   12.7295 N.am      2 SEC2        0.0000 
     17 N          67.8980   39.9260   11.5270 N.am      8 SEL2        0.0000 
     18 N          66.9650   39.1530   13.9320 N.am      5 SEP2        0.0000 
     19 N          66.8385   40.6820   11.1455 N.am      2 SEC2        0.0000 
     20 N          65.7790   41.4380   10.7640 N.am      5 SEP2        0.0000 
     21 N          67.3350   41.6410   11.1155 N.am      2 SEC2        0.0000 
     22 N          68.8910   41.8440   11.4670 N.am      8 SEL2        0.0000 
     23 N          67.8930   42.9615   11.6045 N.am      2 SEC2        0.0000 
     24 N          66.8950   44.0790   11.7420 N.am      5 SEP2        0.0000 
     25 CA         71.6855   42.4305    7.7055 C.3       3 GLC5        0.0000 
     26 CA         73.5930   42.6590    8.1950 C.3       9 GLL5        0.0000 
     27 CA         74.8330   43.4680    6.0705 C.3       3 GLC5        0.0000 
     28 CA         74.5310   43.8640    8.1800 C.3       9 GLL5        0.0000 
     29 CA         75.1350   43.0720    3.9610 C.3       6 GLP5        0.0000 
     30 N          74.5865   43.5335    5.7430 N.am      2 SEC2        0.0000 
     31 N          75.4290   43.8320    7.0610 N.am      8 SEL2        0.0000 
     32 N          73.7440   43.2350    4.4250 N.am      5 SEP2        0.0000 
     33 O          76.4875   44.7740    7.6135 O.2       1 ALC1        0.0000 
     34 O          75.4290   43.8320    7.0610 O.2       7 ALL1        0.0000 
     35 O          77.5460   45.7160    8.1660 O.2       4 ALP1        0.0000 
     36 N          73.4485   44.2840    5.5750 N.am      2 SEC2        0.0000 
     37 N          73.1530   45.3330    6.7250 N.am      8 SEL2        0.0000 
     38 O          73.4135   46.4490    6.4190 O.2       1 ALC1        0.0000 
     39 O          73.1530   45.3330    6.7250 O.2       7 ALL1        0.0000 
     40 O          73.6740   47.5650    6.1130 O.2       4 ALP1        0.0000 
     41 CA         70.6275   44.8185    9.7720 C.3       3 GLC5        0.0000 
     42 CA         72.3630   44.5730    8.8010 C.3       9 GLL5        0.0000 
     43 CA         68.8920   45.0640   10.7430 C.3       6 GLP5        0.0000 
     44 CA         71.0705   43.3875    8.0085 C.3       3 GLC5        0.0000 
     45 CA         71.1145   46.1525    7.9410 C.3       3 GLC5        0.0000 
     46 CA         69.8660   47.7320    7.0810 C.3       6 GLP5        0.0000 
     47 CA         73.4110   49.2335   13.1545 C.3       3 GLC5        0.0000 
     48 CA         72.3190   47.4200   12.8600 C.3       9 GLL5        0.0000 
     49 CA         74.5030   51.0470   13.4490 C.3       6 GLP5        0.0000 
     50 CA         71.0170   49.2310   13.0350 C.3       3 GLC5        0.0000 
     51 CA         69.7150   51.0420   13.2100 C.3       6 GLP5        0.0000 
     52 O          72.1605   46.7205   15.3785 O.2       1 ALC1        0.0000 
     53 O          72.3750   47.3860   14.2130 O.2       7 ALL1        0.0000 
     54 O          71.9460   46.0550   16.5440 O.2       4 ALP1        0.0000 
     55 N          72.1520   49.7955   12.9110 N.am      2 SEC2        0.0000 
     56 N          72.1980   48.5860   12.1700 N.am      8 SEL2        0.0000 
     57 N          72.1060   51.0050   13.6520 N.am      5 SEP2        0.0000 
     58 CA         73.1050   50.5665   10.4085 C.3       3 GLC5        0.0000 
     59 CA         72.1520   48.5860   10.8160 C.3       9 GLL5        0.0000 
     60 CA         74.0580   52.5470   10.0010 C.3       6 GLP5        0.0000 
     61 CA         73.3275   49.8165   12.1325 C.3       3 GLC5        0.0000 
     62 CA         70.9935   50.2335   11.3705 C.3       3 GLC5        0.0000 
     63 CA         69.8350   51.8810   11.9250 C.3       6 GLP5        0.0000 
     64 CA         73.3015   49.0300    9.0595 C.3       3 GLC5        0.0000 
     65 CA         74.4510   49.4740    7.3030 C.3       6 GLP5        0.0000 
     66 CA         70.6705   48.6905    9.3655 C.3       3 GLC5        0.0000 
     67 CA         69.1890   48.7950    7.9150 C.3       6 GLP5        0.0000 
     68 CA         70.6312   45.6330   11.0630 C.3       3 GLC5        0.0000 
     69 CA         72.3440   46.2480   10.6510 C.3       9 GLL5        0.0000 
@<TRIPOS>BOND
@<TRIPOS>SUBSTRUCTURE
     1 ALC1        1 GROUP        1 X    ALC  0     ROOT ALC X 1
     2 SEC2       16 GROUP        1 X    SEC  0     **** SEC X 2
     3 GLC5        6 GROUP        1 X    GLC  0     **** GLC X 6
     4 ALP1        3 GROUP        1 Y    ALP  0     ROOT ALP Y 8
     5 SEP2       18 GROUP        1 Y    SEP  0     **** SEP Y 9
     6 GLP5        8 GROUP        1 Y    GLP  0     **** GLP Y 13
     7 ALL1        2 GROUP        1 Z    ALL  0     ROOT ALL Z 15
     8 SEL2       17 GROUP        1 Z    SEL  0     **** SEL Z 16
     9 GLL5        7 GROUP        1 Z    GLL  0     **** GLL Z 20
@<TRIPOS>SET

