#    Name: 3nut_SAH_4_ligand
#    Modification time : Tue Mar 25 02:40:39 2014

@<TRIPOS>MOLECULE
3nut_SAH_4_ligand
   46    48     1     0     0
SMALL
NO_CHARGES


@<TRIPOS>ATOM
      1 N          69.9350   38.3820   11.4390 N.4       1 SAH1501     0.0000 
      2 CA         70.2320   39.8450   11.2720 C.3       1 SAH1501     0.0000 
      3 CB         70.9000   40.1070    9.9130 C.3       1 SAH1501     0.0000 
      4 CG         72.3480   39.6160    9.9260 C.3       1 SAH1501     0.0000 
      5 SD         73.1310   39.9500    8.3850 S.3       1 SAH1501     0.0000 
      6 C          68.9410   40.5900   11.4270 C.2       1 SAH1501     0.0000 
      7 O          67.8980   39.9260   11.5270 O.co2     1 SAH1501     0.0000 
      8 OXT        68.8910   41.8440   11.4670 O.co2     1 SAH1501     0.0000 
      9 C5'        74.1070   41.3700    8.8860 C.3       1 SAH1501     0.0000 
     10 C4'        73.5930   42.6590    8.1950 C.3       1 SAH1501     0.0000 
     11 O4'        72.3800   43.1380    8.7950 O.3       1 SAH1501     0.0000 
     12 C3'        74.5310   43.8640    8.1800 C.3       1 SAH1501     0.0000 
     13 O3'        75.4290   43.8320    7.0610 O.3       1 SAH1501     0.0000 
     14 C2'        73.5860   45.0550    8.0700 C.3       1 SAH1501     0.0000 
     15 O2'        73.1530   45.3330    6.7250 O.3       1 SAH1501     0.0000 
     16 C1'        72.3630   44.5730    8.8010 C.3       1 SAH1501     0.0000 
     17 N9         72.4170   45.0010   10.2140 N.pl3     1 SAH1501     0.0000 
     18 C8         72.5230   44.1650   11.2690 C.2       1 SAH1501     0.0000 
     19 N7         72.5170   44.8480   12.4380 N.2       1 SAH1501     0.0000 
     20 C5         72.3970   46.1560   12.1150 C.ar      1 SAH1501     0.0000 
     21 C6         72.3190   47.4200   12.8600 C.ar      1 SAH1501     0.0000 
     22 N6         72.3750   47.3860   14.2130 N.pl3     1 SAH1501     0.0000 
     23 N1         72.1980   48.5860   12.1700 N.ar      1 SAH1501     0.0000 
     24 C2         72.1520   48.5860   10.8160 C.ar      1 SAH1501     0.0000 
     25 N3         72.2180   47.4530   10.0740 N.ar      1 SAH1501     0.0000 
     26 C4         72.3440   46.2480   10.6510 C.ar      1 SAH1501     0.0000 
     27 H          70.9120   40.1482   12.0568 H         1 SAH1501     0.0000 
     28 H          70.8822   41.1733    9.7079 H         1 SAH1501     0.0000 
     29 H          70.3480   39.5826    9.1386 H         1 SAH1501     0.0000 
     30 H          72.4255   38.5562   10.0246 H         1 SAH1501     0.0000 
     31 H          72.9547   40.1332   10.6354 H         1 SAH1501     0.0000 
     32 H          75.0913   41.1061    8.5870 H         1 SAH1501     0.0000 
     33 H          73.9834   41.3900    9.9406 H         1 SAH1501     0.0000 
     34 H          73.3757   42.4116    7.1372 H         1 SAH1501     0.0000 
     35 H          75.0232   43.9183    9.1185 H         1 SAH1501     0.0000 
     36 H          73.9779   45.8767    8.5746 H         1 SAH1501     0.0000 
     37 H          71.4920   44.9503    8.3323 H         1 SAH1501     0.0000 
     38 H          72.5952   43.1875   11.1995 H         1 SAH1501     0.0000 
     39 H          72.7551   48.1968   14.6581 H         1 SAH1501     0.0000 
     40 H          72.0313   46.5531   14.6469 H         1 SAH1501     0.0000 
     41 H          72.0601   49.5153   10.3124 H         1 SAH1501     0.0000 
     42 H          70.6952   37.8955   11.8694 H         1 SAH1501     0.0000 
     43 H          69.1285   38.2296   12.0102 H         1 SAH1501     0.0000 
     44 H          69.7609   37.9358   10.5612 H         1 SAH1501     0.0000 
     45 H          76.1811   44.4400    7.3154 H         1 SAH1501     0.0000 
     46 H          73.8102   46.0002    6.3744 H         1 SAH1501     0.0000 
@<TRIPOS>BOND
     1    2    1 1    
     2   42    1 1    
     3   43    1 1    
     4   44    1 1    
     5    3    2 1    
     6    6    2 1    
     7   27    2 1    
     8    4    3 1    
     9   28    3 1    
    10   29    3 1    
    11    5    4 1    
    12   30    4 1    
    13   31    4 1    
    14    9    5 1    
    15    7    6 ar   
    16    8    6 ar   
    17   10    9 1    
    18   32    9 1    
    19   33    9 1    
    20   11   10 1    
    21   12   10 1    
    22   34   10 1    
    23   16   11 1    
    24   13   12 1    
    25   14   12 1    
    26   35   12 1    
    27   45   13 1    
    28   15   14 1    
    29   16   14 1    
    30   36   14 1    
    31   46   15 1    
    32   17   16 1    
    33   37   16 1    
    34   18   17 1    
    35   26   17 1    
    36   19   18 2    
    37   38   18 1    
    38   20   19 1    
    39   21   20 ar   
    40   26   20 ar   
    41   22   21 1    
    42   23   21 ar   
    43   39   22 1    
    44   40   22 1    
    45   24   23 ar   
    46   25   24 ar   
    47   41   24 1    
    48   26   25 ar   
@<TRIPOS>SUBSTRUCTURE
     1 SAH1501     1 GROUP   
@<TRIPOS>SET

