#    Name: 4jk4_DIU_7_INTS_M
#    Modification time : Tue Mar 25 05:59:19 2014

@<TRIPOS>MOLECULE
4jk4_DIU_7_INTS_M
   29     0     6     0     0
SMALL
NO_CHARGES


@<TRIPOS>ATOM
      1 N          51.6650   26.6155   39.8495 N.am      1 SEC2        0.0000 
      2 N          50.9390   25.2480   39.1770 N.am      5 SEL2        0.0000 
      3 N          52.3910   27.9830   40.5220 N.am      3 SEP2        0.0000 
      4 CA         47.8025   30.8810   36.3120 C.3       2 GLC5        0.0000 
      5 CA         47.9050   31.0950   38.3410 C.3       6 GLL5        0.0000 
      6 CA         47.7000   30.6670   34.2830 C.3       4 GLP5        0.0000 
      7 CA         49.7920   31.8755   38.9535 C.3       2 GLC5        0.0000 
      8 CA         51.6790   32.6560   39.5660 C.3       4 GLP5        0.0000 
      9 CA         46.6800   32.2400   38.7790 C.3       2 GLC5        0.0000 
     10 CA         45.4550   33.3850   39.2170 C.3       4 GLP5        0.0000 
     11 CA         47.6390   30.1915   40.1365 C.3       2 GLC5        0.0000 
     12 CA         47.3730   29.2880   41.9320 C.3       4 GLP5        0.0000 
     13 CA         45.9260   30.1480   38.4525 C.3       2 GLC5        0.0000 
     14 CA         43.9470   29.2010   38.5640 C.3       4 GLP5        0.0000 
     15 CA         53.4925   27.7680   36.4680 C.3       2 GLC5        0.0000 
     16 CA         53.1960   29.8970   36.1410 C.3       6 GLL5        0.0000 
     17 CA         53.7890   25.6390   36.7950 C.3       4 GLP5        0.0000 
     18 CA         54.9560   30.8895   36.9820 C.3       2 GLC5        0.0000 
     19 CA         56.7160   31.8820   37.8230 C.3       4 GLP5        0.0000 
     20 CA         51.9420   31.5905   35.5405 C.3       2 GLC5        0.0000 
     21 CA         50.6880   33.2840   34.9400 C.3       4 GLP5        0.0000 
     22 CA         49.3692   28.1979   39.9985 C.3       2 GLC5        0.0000 
     23 CA         49.3320   29.6960   38.0600 C.3       6 GLL5        0.0000 
     24 CA         49.2500   27.6330   41.7800 C.3       4 GLP5        0.0000 
     25 CA         51.4459   27.0434   36.3609 C.3       2 GLC5        0.0000 
     26 CA         51.3460   27.7740   37.6000 C.3       6 GLL5        0.0000 
     27 CA         51.7790   25.7230   35.1760 C.3       4 GLP5        0.0000 
     28 CA         51.1819   31.0900   38.5101 C.3       2 GLC5        0.0000 
     29 CA         51.4700   29.1700   37.1690 C.3       6 GLL5        0.0000 
@<TRIPOS>BOND
@<TRIPOS>SUBSTRUCTURE
     1 SEC2        1 GROUP        1 X    SEC  0     ROOT SEC X 2
     2 GLC5        4 GROUP        1 X    GLC  0     **** GLC X 6
     3 SEP2        3 GROUP        1 Y    SEP  0     ROOT SEP Y 9
     4 GLP5        6 GROUP        1 Y    GLP  0     **** GLP Y 13
     5 SEL2        2 GROUP        1 Z    SEL  0     ROOT SEL Z 16
     6 GLL5        5 GROUP        1 Z    GLL  0     **** GLL Z 20
@<TRIPOS>SET

