#    Name: 4jk4_DIU_7_ligand
#    Modification time : Tue Mar 25 05:59:19 2014

@<TRIPOS>MOLECULE
4jk4_DIU_7_ligand
   15    15     1     0     0
SMALL
NO_CHARGES


@<TRIPOS>ATOM
      1 C          49.9690   25.8780   38.6940 C.2       1 DIU603      0.0000 
      2 O1         48.8140   25.3560   38.6200 O.co2     1 DIU603      0.0000 
      3 O2         50.9390   25.2480   39.1770 O.co2     1 DIU603      0.0000 
      4 O3         47.9780   27.9560   39.1130 O.3       1 DIU603      0.0000 
      5 C1         50.1650   27.3410   38.2450 C.ar      1 DIU603      0.0000 
      6 C2         49.1250   28.3180   38.5030 C.ar      1 DIU603      0.0000 
      7 C3         49.3320   29.6960   38.0600 C.ar      1 DIU603      0.0000 
      8 C4         50.4670   30.0600   37.4190 C.ar      1 DIU603      0.0000 
      9 C5         51.4700   29.1700   37.1690 C.ar      1 DIU603      0.0000 
     10 C6         51.3460   27.7740   37.6000 C.ar      1 DIU603      0.0000 
     11 I1         47.9050   31.0950   38.3410 I         1 DIU603      0.0000 
     12 I2         53.1960   29.8970   36.1410 I         1 DIU603      0.0000 
     13 H          50.5834   31.0563   37.1028 H         1 DIU603      0.0000 
     14 H          52.1149   27.1421   37.4259 H         1 DIU603      0.0000 
     15 H          48.0016   26.9565   39.1361 H         1 DIU603      0.0000 
@<TRIPOS>BOND
     1    2    1 ar   
     2    3    1 ar   
     3    5    1 1    
     4    6    4 1    
     5   15    4 1    
     6    6    5 ar   
     7   10    5 ar   
     8    7    6 ar   
     9    8    7 ar   
    10   11    7 1    
    11    9    8 ar   
    12   13    8 1    
    13   10    9 ar   
    14   12    9 1    
    15   14   10 1    
@<TRIPOS>SUBSTRUCTURE
     1 DIU603      1 GROUP   
@<TRIPOS>SET

