#    Name: 4amb_DUD_1_INTS_M
#    Modification time : Tue Mar 25 05:47:15 2014

@<TRIPOS>MOLECULE
4amb_DUD_1_INTS_M
   37     0     9     0     0
SMALL
NO_CHARGES


@<TRIPOS>ATOM
      1 O         -43.4285   25.9885  -15.6360 O.2       1 ALC1        0.0000 
      2 O         -43.0010   26.3500  -16.7700 O.2       7 ALL1        0.0000 
      3 O         -43.8560   25.6270  -14.5020 O.2       4 ALP1        0.0000 
      4 CA        -42.3825   27.3305  -21.2800 C.3       3 GLC5        0.0000 
      5 CA        -41.8260   26.8900  -19.2060 C.3       9 GLL5        0.0000 
      6 CA        -42.9390   27.7710  -23.3540 C.3       6 GLP5        0.0000 
      7 N         -42.0965   23.7335  -15.6760 N.am      2 SEC2        0.0000 
      8 N         -41.4670   24.7260  -16.4320 N.am      8 SEL2        0.0000 
      9 N         -42.7260   22.7410  -14.9200 N.am      5 SEP2        0.0000 
     10 N         -44.4945   28.1210  -15.4150 N.am      2 SEC2        0.0000 
     11 N         -44.5020   27.9780  -17.1450 N.am      8 SEL2        0.0000 
     12 N         -44.4870   28.2640  -13.6850 N.am      5 SEP2        0.0000 
     13 CA        -41.8510   22.7515  -18.2515 C.3       3 GLC5        0.0000 
     14 CA        -40.6050   23.7340  -19.3050 C.3       9 GLL5        0.0000 
     15 CA        -43.0970   21.7690  -17.1980 C.3       6 GLP5        0.0000 
     16 CA        -36.9785   25.0330  -19.5935 C.3       3 GLC5        0.0000 
     17 CA        -38.8520   24.7180  -20.6780 C.3       9 GLL5        0.0000 
     18 CA        -35.1050   25.3480  -18.5090 C.3       6 GLP5        0.0000 
     19 O         -38.8320   21.8735  -18.3115 O.2       1 ALC1        0.0000 
     20 O         -38.6470   22.4390  -19.8120 O.2       7 ALL1        0.0000 
     21 O         -39.0170   21.3080  -16.8110 O.2       4 ALP1        0.0000 
     22 N         -41.0920   24.3435  -26.0080 N.am      2 SEC2        0.0000 
     23 N         -39.9660   23.5560  -25.3080 N.am      8 SEL2        0.0000 
     24 N         -42.2180   25.1310  -26.7080 N.am      5 SEP2        0.0000 
     25 N         -37.9325   21.4415  -24.3670 N.am      2 SEC2        0.0000 
     26 N         -37.7380   22.7440  -24.2390 N.am      8 SEL2        0.0000 
     27 N         -38.1270   20.1390  -24.4950 N.am      5 SEP2        0.0000 
     28 N         -38.6635   28.3085  -23.9450 N.am      2 SEC2        0.0000 
     29 N         -39.3220   27.2700  -25.1450 N.am      8 SEL2        0.0000 
     30 N         -38.0050   29.3470  -22.7450 N.am      5 SEP2        0.0000 
     31 N         -40.6610   25.3290  -26.8735 N.am      2 SEC2        0.0000 
     32 N         -39.1040   25.5270  -27.0390 N.am      8 SEL2        0.0000 
     33 CA        -41.9203   28.2248  -17.3060 C.3       3 GLC5        0.0000 
     34 CA        -41.4600   29.1920  -15.6150 C.3       6 GLP5        0.0000 
     35 CA        -39.7032   23.7888  -17.1385 C.3       3 GLC5        0.0000 
     36 CA        -40.1800   25.1150  -18.8090 C.3       9 GLL5        0.0000 
     37 CA        -39.0140   23.1530  -15.2200 C.3       6 GLP5        0.0000 
@<TRIPOS>BOND
@<TRIPOS>SUBSTRUCTURE
     1 ALC1        1 GROUP        1 X    ALC  0     ROOT ALC X 1
     2 SEC2        7 GROUP        1 X    SEC  0     **** SEC X 2
     3 GLC5        4 GROUP        1 X    GLC  0     **** GLC X 6
     4 ALP1        3 GROUP        1 Y    ALP  0     ROOT ALP Y 8
     5 SEP2        9 GROUP        1 Y    SEP  0     **** SEP Y 9
     6 GLP5        6 GROUP        1 Y    GLP  0     **** GLP Y 13
     7 ALL1        2 GROUP        1 Z    ALL  0     ROOT ALL Z 15
     8 SEL2        8 GROUP        1 Z    SEL  0     **** SEL Z 16
     9 GLL5        5 GROUP        1 Z    GLL  0     **** GLL Z 20
@<TRIPOS>SET

