#    Name: 4amb_DUD_1_ligand
#    Modification time : Tue Mar 25 05:47:15 2014

@<TRIPOS>MOLECULE
4amb_DUD_1_ligand
   35    36     1     0     0
SMALL
NO_CHARGES


@<TRIPOS>ATOM
      1 N1        -41.3400   25.9160  -18.4190 N.am      1 DUD1391     0.0000 
      2 C2        -41.9350   25.6380  -17.1650 C.2       1 DUD1391     0.0000 
      3 N3        -43.0010   26.3500  -16.7700 N.am      1 DUD1391     0.0000 
      4 C4        -43.5110   27.3290  -17.5460 C.2       1 DUD1391     0.0000 
      5 C5        -42.9350   27.6250  -18.7880 C.2       1 DUD1391     0.0000 
      6 C6        -41.8260   26.8900  -19.2060 C.2       1 DUD1391     0.0000 
      7 O2        -41.4670   24.7260  -16.4320 O.2       1 DUD1391     0.0000 
      8 O4        -44.5020   27.9780  -17.1450 O.2       1 DUD1391     0.0000 
      9 C1'       -40.1800   25.1150  -18.8090 C.3       1 DUD1391     0.0000 
     10 C2'       -40.6050   23.7340  -19.3050 C.3       1 DUD1391     0.0000 
     11 C3'       -39.5640   23.4070  -20.3500 C.3       1 DUD1391     0.0000 
     12 C4'       -38.8520   24.7180  -20.6780 C.3       1 DUD1391     0.0000 
     13 O4'       -39.4260   25.7290  -19.8520 O.3       1 DUD1391     0.0000 
     14 O3'       -38.6470   22.4390  -19.8120 O.3       1 DUD1391     0.0000 
     15 C5'       -38.9660   25.1580  -22.1360 C.3       1 DUD1391     0.0000 
     16 O5'       -39.4540   24.1000  -22.9600 O.3       1 DUD1391     0.0000 
     17 PA        -38.7980   23.8040  -24.3970 P.3       1 DUD1391     0.0000 
     18 O1A       -39.9660   23.5560  -25.3080 O.co2     1 DUD1391     0.0000 
     19 O2A       -37.7380   22.7440  -24.2390 O.co2     1 DUD1391     0.0000 
     20 O3A       -38.0430   25.1960  -24.7680 O.3       1 DUD1391     0.0000 
     21 PB        -38.4440   26.2890  -25.9060 P.3       1 DUD1391     0.0000 
     22 O1B       -39.3220   27.2700  -25.1450 O.co2     1 DUD1391     0.0000 
     23 O2B       -39.1040   25.5270  -27.0390 O.co2     1 DUD1391     0.0000 
     24 O3B       -37.0960   26.8620  -26.2920 O.co2     1 DUD1391     0.0000 
     25 H         -43.4487   26.1447  -15.8420 H         1 DUD1391     0.0000 
     26 H         -43.3206   28.3631  -19.3723 H         1 DUD1391     0.0000 
     27 H         -41.3974   27.1113  -20.1196 H         1 DUD1391     0.0000 
     28 H         -39.5392   24.9469  -17.9383 H         1 DUD1391     0.0000 
     29 H         -41.5652   23.7961  -19.7498 H         1 DUD1391     0.0000 
     30 H         -40.5550   23.0387  -18.5065 H         1 DUD1391     0.0000 
     31 H         -40.0575   23.0577  -21.2257 H         1 DUD1391     0.0000 
     32 H         -37.7995   24.6015  -20.4343 H         1 DUD1391     0.0000 
     33 H         -37.9685   25.4982  -22.4605 H         1 DUD1391     0.0000 
     34 H         -39.6310   26.0372  -22.1678 H         1 DUD1391     0.0000 
     35 H         -39.0034   22.2223  -18.9031 H         1 DUD1391     0.0000 
@<TRIPOS>BOND
     1    2    1 1    
     2    6    1 1    
     3    9    1 1    
     4    3    2 1    
     5    7    2 2    
     6    4    3 1    
     7   25    3 1    
     8    5    4 1    
     9    8    4 2    
    10    6    5 2    
    11   26    5 1    
    12   27    6 1    
    13   10    9 1    
    14   13    9 1    
    15   28    9 1    
    16   11   10 1    
    17   29   10 1    
    18   30   10 1    
    19   12   11 1    
    20   14   11 1    
    21   31   11 1    
    22   13   12 1    
    23   15   12 1    
    24   32   12 1    
    25   35   14 1    
    26   16   15 1    
    27   33   15 1    
    28   34   15 1    
    29   17   16 1    
    30   18   17 ar   
    31   19   17 ar   
    32   20   17 1    
    33   21   20 1    
    34   22   21 ar   
    35   23   21 ar   
    36   24   21 ar   
@<TRIPOS>SUBSTRUCTURE
     1 DUD1391     1 GROUP   
@<TRIPOS>SET

