#    Name: 2Q94_1_CAVITY_N1_6.mol2
#    Modification time : Tue Mar 11 07:08:02 2014

@<TRIPOS>MOLECULE
2Q94_1_CAVITY_N1_6.mol2
  111     0     7     0     0
SMALL
NO_CHARGES


@<TRIPOS>ATOM
      1 CA         -8.8072   -2.8875    6.3872 C.3       6 GLY6        0.0000 
      2 CZ         -9.2022   -3.4459    7.7222 C.ar      5 PHE5        0.0000 
      3 N          -7.6522   -0.1187    7.8871 N.2       2 ALA2        0.0000 
      4 CA         -7.1147   -0.9523    6.0120 C.3       6 GLY6        0.0000 
      5 CA         -7.5097   -1.5108    7.3470 C.3       6 GLY6        0.0000 
      6 CA         -6.9721   -2.3444    5.4719 C.3       6 GLY6        0.0000 
      7 CZ         -7.3672   -2.9029    6.8069 C.ar      5 PHE5        0.0000 
      8 CZ         -6.3547    1.2580    8.8469 C.ar      5 PHE5        0.0000 
      9 CA         -6.7497    0.6996   10.1819 C.3       6 GLY6        0.0000 
     10 CZ         -6.2122   -0.1341    8.3068 C.ar      5 PHE5        0.0000 
     11 CZ         -6.6072   -0.6925    9.6417 C.ar      5 PHE5        0.0000 
     12 CZ         -7.0022   -1.2509   10.9767 C.ar      5 PHE5        0.0000 
     13 CZ         -5.6746   -0.9677    6.4317 C.ar      5 PHE5        0.0000 
     14 CZ         -6.0697   -1.5262    7.7666 C.ar      5 PHE5        0.0000 
     15 CZ         -6.4647   -2.0846    9.1016 C.ar      5 PHE5        0.0000 
     16 CZ         -5.1371   -1.8014    4.5566 C.ar      5 PHE5        0.0000 
     17 CZ         -5.5321   -2.3598    5.8915 C.ar      5 PHE5        0.0000 
     18 DU         -5.9271   -2.9183    7.2265 H         7 CUB7        0.0000 
     19 CZ         -6.3222   -3.4767    8.5615 C.ar      5 PHE5        0.0000 
     20 DU         -5.3896   -3.7519    5.3514 H         7 CUB7        0.0000 
     21 DU         -5.7846   -4.3103    6.6864 H         7 CUB7        0.0000 
     22 O          -6.1796   -4.8688    8.0213 O.2       2 ALA2        0.0000 
     23 CA         -5.0572    2.6348    9.8067 C.3       6 GLY6        0.0000 
     24 CA         -5.4522    2.0763   11.1417 C.3       6 GLY6        0.0000 
     25 CZ         -4.9147    1.2427    9.2666 C.ar      5 PHE5        0.0000 
     26 CZ         -5.3097    0.6842   10.6015 C.ar      5 PHE5        0.0000 
     27 CZ         -5.7047    0.1258   11.9365 C.ar      5 PHE5        0.0000 
     28 CZ         -4.3772    0.4090    7.3915 C.ar      5 PHE5        0.0000 
     29 CZ         -4.7722   -0.1494    8.7264 C.ar      5 PHE5        0.0000 
     30 N          -5.1672   -0.7079   10.0614 N.2       2 ALA2        0.0000 
     31 CA         -5.5622   -1.2663   11.3964 C.3       6 GLY6        0.0000 
     32 CZ         -4.2346   -0.9831    6.8513 C.ar      5 PHE5        0.0000 
     33 N          -4.6296   -1.5415    8.1863 N.2       2 ALA2        0.0000 
     34 N          -5.0247   -2.1000    9.5213 N.2       2 ALA2        0.0000 
     35 N          -3.6971   -1.8168    4.9762 N.2       2 ALA2        0.0000 
     36 DU         -4.0921   -2.3752    6.3112 H         7 CUB7        0.0000 
     37 N          -4.4871   -2.9336    7.6462 N.2       2 ALA2        0.0000 
     38 CA         -2.7645   -2.0921    1.7662 C.3       6 GLY6        0.0000 
     39 DU         -3.5546   -3.2089    4.4361 H         7 CUB7        0.0000 
     40 DU         -3.9496   -3.7673    5.7711 H         7 CUB7        0.0000 
     41 N          -4.3446   -4.3257    7.1060 N.2       2 ALA2        0.0000 
     42 DU         -3.0170   -4.0426    2.5610 H         7 CUB7        0.0000 
     43 DU         -3.8070   -5.1594    5.2309 H         7 CUB7        0.0000 
     44 CA         -3.6172    2.6194   10.2264 C.3       6 GLY6        0.0000 
     45 CA         -4.0122    2.0609   11.5613 C.3       6 GLY6        0.0000 
     46 CZ         -3.4747    1.2273    9.6862 C.ar      5 PHE5        0.0000 
     47 CA         -3.8697    0.6688   11.0212 C.3       6 GLY6        0.0000 
     48 N          -2.9371    0.3936    7.8111 N.2       2 ALA2        0.0000 
     49 N          -3.3322   -0.1648    9.1461 N.2       2 ALA2        0.0000 
     50 N          -3.7272   -0.7233   10.4811 N.2       2 ALA2        0.0000 
     51 N          -2.7946   -0.9985    7.2710 N.2       2 ALA2        0.0000 
     52 N          -3.1896   -1.5569    8.6060 N.2       2 ALA2        0.0000 
     53 N          -2.6521   -2.3906    6.7309 N.2       2 ALA2        0.0000 
     54 N          -3.0471   -2.9490    8.0658 N.2       2 ALA2        0.0000 
     55 CA         -1.3245   -2.1075    2.1858 C.3       6 GLY6        0.0000 
     56 CA         -1.7195   -2.6659    3.5208 C.3       6 GLY6        0.0000 
     57 N          -2.1145   -3.2243    4.8558 N.2       2 ALA2        0.0000 
     58 DU         -2.5096   -3.7827    6.1907 H         7 CUB7        0.0000 
     59 N          -2.9046   -4.3411    7.5257 N.2       2 ALA2        0.0000 
     60 DU         -1.5770   -4.0580    2.9807 H         7 CUB7        0.0000 
     61 DU         -1.9720   -4.6164    4.3156 H         7 CUB7        0.0000 
     62 CZ         -2.3670   -5.1748    5.6506 C.ar      5 PHE5        0.0000 
     63 CZ         -2.7620   -5.7332    6.9856 C.ar      5 PHE5        0.0000 
     64 CZ         -2.2245   -6.5669    5.1105 C.ar      5 PHE5        0.0000 
     65 CA         -2.1772    2.6040   10.6460 C.3       6 GLY6        0.0000 
     66 CA         -2.5722    2.0455   11.9810 C.3       6 GLY6        0.0000 
     67 CZ         -2.0347    1.2119   10.1059 C.ar      5 PHE5        0.0000 
     68 CA         -2.4297    0.6535   11.4409 C.3       6 GLY6        0.0000 
     69 N          -1.4971    0.3782    8.2308 N.2       2 ALA2        0.0000 
     70 DU         -1.8921   -0.1802    9.5658 H         7 CUB7        0.0000 
     71 CA         -2.2872   -0.7386   10.9007 C.3       6 GLY6        0.0000 
     72 N          -1.3546   -1.0139    7.6907 N.2       2 ALA2        0.0000 
     73 N          -1.7496   -1.5723    9.0256 N.2       2 ALA2        0.0000 
     74 N          -1.2121   -2.4060    7.1505 N.2       2 ALA2        0.0000 
     75 N          -1.6071   -2.9644    8.4855 N.2       2 ALA2        0.0000 
     76 CA         -0.2795   -2.6813    3.9405 C.3       6 GLY6        0.0000 
     77 CA         -0.6745   -3.2397    5.2754 C.3       6 GLY6        0.0000 
     78 DU         -1.0695   -3.7981    6.6104 H         7 CUB7        0.0000 
     79 CZ         -1.4646   -4.3565    7.9454 C.ar      5 PHE5        0.0000 
     80 CA         -0.1370   -4.0734    3.4003 C.3       6 GLY6        0.0000 
     81 N          -0.5320   -4.6318    4.7353 N.2       2 ALA2        0.0000 
     82 CZ         -0.9270   -5.1902    6.0703 C.ar      5 PHE5        0.0000 
     83 OG         -0.7372    2.5886   11.0657 O.2       1 SER1        0.0000 
     84 CZ         -0.1996    1.7549    9.1906 C.ar      5 PHE5        0.0000 
     85 OD1        -0.5947    1.1965   10.5256 O.3       3 ASP3        0.0000 
     86 NZ         -0.9897    0.6381   11.8605 N.2       4 LYS4        0.0000 
     87 OD1        -0.0571    0.3628    8.6505 O.3       3 ASP3        0.0000 
     88 NZ         -0.4521   -0.1956    9.9854 N.2       4 LYS4        0.0000 
     89 NZ         -0.8471   -0.7540   11.3204 N.2       4 LYS4        0.0000 
     90 CA         -1.2422   -1.3125   12.6554 C.3       6 GLY6        0.0000 
     91 N           0.0854   -1.0293    8.1103 N.2       2 ALA2        0.0000 
     92 N          -0.3096   -1.5877    9.4453 N.2       2 ALA2        0.0000 
     93 N          -0.7046   -2.1461   10.7803 N.2       2 ALA2        0.0000 
     94 N           0.6230   -1.8630    6.2352 N.2       2 ALA2        0.0000 
     95 N           0.2279   -2.4214    7.5702 N.2       2 ALA2        0.0000 
     96 N          -0.1671   -2.9798    8.9052 N.2       2 ALA2        0.0000 
     97 N          -0.5621   -3.5382   10.2401 N.2       2 ALA2        0.0000 
     98 CA          1.1605   -2.6967    4.3601 C.3       6 GLY6        0.0000 
     99 N           0.7655   -3.2551    5.6951 N.2       2 ALA2        0.0000 
    100 N           0.3705   -3.8135    7.0301 N.2       2 ALA2        0.0000 
    101 CZ         -0.0245   -4.3719    8.3650 C.ar      5 PHE5        0.0000 
    102 CA         -0.4196   -4.9303    9.7000 C.3       6 GLY6        0.0000 
    103 N           1.6981   -3.5304    2.4850 N.2       2 ALA2        0.0000 
    104 O           0.5130   -5.2056    6.4899 O.2       2 ALA2        0.0000 
    105 NZ          1.1304   -1.6031    9.8650 N.2       4 LYS4        0.0000 
    106 NZ          0.7354   -2.1615   11.1999 N.2       4 LYS4        0.0000 
    107 NZ          0.3404   -2.7199   12.5349 N.2       4 LYS4        0.0000 
    108 NZ          1.2729   -2.9952    9.3248 N.2       4 LYS4        0.0000 
    109 CA          0.8779   -3.5536   10.6598 C.3       6 GLY6        0.0000 
    110 N           1.8105   -3.8289    7.4497 N.2       2 ALA2        0.0000 
    111 CA          1.4155   -4.3873    8.7847 C.3       6 GLY6        0.0000 
@<TRIPOS>BOND
@<TRIPOS>SUBSTRUCTURE
     1 SER1       83 GROUP   
     2 ALA2        3 GROUP   
     3 ASP3       85 GROUP   
     4 LYS4       86 GROUP   
     5 PHE5        2 GROUP   
     6 GLY6        1 GROUP   
     7 CUB7       18 GROUP   
@<TRIPOS>SET

