#    Name: 2q94_A04_1_INTS_M
#    Modification time : Mon Mar 24 21:20:24 2014

@<TRIPOS>MOLECULE
2q94_A04_1_INTS_M
   45     0     9     0     0
SMALL
NO_CHARGES


@<TRIPOS>ATOM
      1 Zn          2.0385    0.8660   10.0325 Zn        2 ZIC7        0.0000 
      2 Zn          1.6790    0.0990    9.3780 Zn        8 ZIL7        0.0000 
      3 Zn          2.3980    1.6330   10.6870 Zn        5 ZIP7        0.0000 
      4 Zn          2.3680    0.2670    8.4080 Zn        2 ZIC7        0.0000 
      5 Zn          3.0570    0.4350    7.4380 Zn        5 ZIP7        0.0000 
      6 Zn          1.9680    0.1070    7.3900 Zn        2 ZIC7        0.0000 
      7 Zn          0.8790   -0.2210    7.3420 Zn        8 ZIL7        0.0000 
      8 N          -0.0315   -0.0265    6.3220 N.am      1 SEC2        0.0000 
      9 N           0.8790   -0.2210    7.3420 N.am      7 SEL2        0.0000 
     10 N          -0.9420    0.1680    5.3020 N.am      4 SEP2        0.0000 
     11 N          -1.3355   -0.2300    6.8105 N.am      1 SEC2        0.0000 
     12 N          -1.7290   -0.6280    8.3190 N.am      7 SEL2        0.0000 
     13 CA         -2.9520   -0.0665   12.2980 C.3       3 GLC5        0.0000 
     14 CA         -2.3760   -0.5280   10.4130 C.3       9 GLL5        0.0000 
     15 CA         -3.5280    0.3950   14.1830 C.3       6 GLP5        0.0000 
     16 CA         -8.2575   -0.7485    6.8065 C.3       3 GLC5        0.0000 
     17 CA         -6.5510   -1.5570    7.5540 C.3       9 GLL5        0.0000 
     18 CA         -9.9640    0.0600    6.0590 C.3       6 GLP5        0.0000 
     19 CA         -6.8050    1.5605   11.6425 C.3       3 GLC5        0.0000 
     20 CA         -5.2320    1.4670   10.4730 C.3       9 GLL5        0.0000 
     21 CA         -8.3780    1.6540   12.8120 C.3       6 GLP5        0.0000 
     22 CA         -3.6045    3.4095   10.7495 C.3       3 GLC5        0.0000 
     23 CA         -4.2720    1.9960    9.7220 C.3       9 GLL5        0.0000 
     24 CA         -2.9370    4.8230   11.7770 C.3       6 GLP5        0.0000 
     25 CA         -3.4810    2.8635    8.5050 C.3       3 GLC5        0.0000 
     26 CA         -2.6900    3.7310    7.2880 C.3       6 GLP5        0.0000 
     27 CA         -5.8855    3.7855   10.3195 C.3       3 GLC5        0.0000 
     28 CA         -6.4050    1.8650    9.9900 C.3       9 GLL5        0.0000 
     29 CA         -5.3660    5.7060   10.6490 C.3       6 GLP5        0.0000 
     30 CA         -6.9460    2.9645    8.7645 C.3       3 GLC5        0.0000 
     31 CA         -7.4870    4.0640    7.5390 C.3       6 GLP5        0.0000 
     32 CA         -7.7760    1.9295   10.7730 C.3       3 GLC5        0.0000 
     33 CA         -9.1470    1.9940   11.5560 C.3       6 GLP5        0.0000 
     34 CA         -6.4485    2.2925   12.6480 C.3       3 GLC5        0.0000 
     35 CA         -5.1030    1.9270   11.7130 C.3       9 GLL5        0.0000 
     36 CA         -7.7940    2.6580   13.5830 C.3       6 GLP5        0.0000 
     37 CA         -2.5152   -1.9698   11.1970 C.3       3 GLC5        0.0000 
     38 CA         -3.3120   -3.5230   11.9890 C.3       6 GLP5        0.0000 
     39 CA         -3.8173   -2.1266   10.5540 C.3       3 GLC5        0.0000 
     40 CA         -2.7930   -0.7220    9.1630 C.3       9 GLL5        0.0000 
     41 CA         -4.9253    3.4735   11.5175 C.3       3 GLC5        0.0000 
     42 CA         -4.6830    5.2500   11.9420 C.3       6 GLP5        0.0000 
     43 CA         -5.5105    1.9452    8.2533 C.3       3 GLC5        0.0000 
     44 CA         -6.2690    2.1590    6.4090 C.3       6 GLP5        0.0000 
     45 CA         -4.3477    1.0460   12.6380 C.3       3 GLC5        0.0000 
@<TRIPOS>BOND
@<TRIPOS>SUBSTRUCTURE
     1 SEC2        8 GROUP        1 X    SEC  0     ROOT SEC X 2
     2 ZIC7        1 GROUP        1 X    ZIC  0     **** ZIC X 5
     3 GLC5       13 GROUP        1 X    GLC  0     **** GLC X 6
     4 SEP2       10 GROUP        1 Y    SEP  0     ROOT SEP Y 9
     5 ZIP7        3 GROUP        1 Y    ZIP  0     **** ZIP Y 12
     6 GLP5       15 GROUP        1 Y    GLP  0     **** GLP Y 13
     7 SEL2        9 GROUP        1 Z    SEL  0     ROOT SEL Z 16
     8 ZIL7        2 GROUP        1 Z    ZIL  0     **** ZIL Z 19
     9 GLL5       14 GROUP        1 Z    GLL  0     **** GLL Z 20
@<TRIPOS>SET

