#    Name: 2q94_A04_1_ligand
#    Modification time : Mon Mar 24 21:20:24 2014

@<TRIPOS>MOLECULE
2q94_A04_1_ligand
   25    26     1     0     0
SMALL
NO_CHARGES


@<TRIPOS>ATOM
      1 OAQ         1.6790    0.0990    9.3780 O.co2     1 A04400      0.0000 
      2 CAB         0.7460   -0.1430    8.5840 C.2       1 A04400      0.0000 
      3 OAR         0.8790   -0.2210    7.3420 O.co2     1 A04400      0.0000 
      4 CAA        -0.6650   -0.3630    9.1300 C.2       1 A04400      0.0000 
      5 OAP        -1.7290   -0.6280    8.3190 O.3       1 A04400      0.0000 
      6 CAD        -1.0610   -0.3050   10.3970 C.2       1 A04400      0.0000 
      7 CAE        -2.3760   -0.5280   10.4130 C.2       1 A04400      0.0000 
      8 CAC        -2.7930   -0.7220    9.1630 C.2       1 A04400      0.0000 
      9 CAG        -4.0590   -0.9830    8.6510 C.ar      1 A04400      0.0000 
     10 CAK        -4.1510   -1.6380    7.4330 C.ar      1 A04400      0.0000 
     11 CAH        -5.3960   -1.9270    6.8790 C.ar      1 A04400      0.0000 
     12 CAF        -6.5510   -1.5570    7.5540 C.ar      1 A04400      0.0000 
     13 CAI        -6.4580   -0.9000    8.7770 C.ar      1 A04400      0.0000 
     14 CAJ        -5.2190   -0.6080    9.3310 C.ar      1 A04400      0.0000 
     15 OAS        -5.1450    0.0370   10.5270 O.3       1 A04400      0.0000 
     16 CAL        -5.2320    1.4670   10.4730 C.3       1 A04400      0.0000 
     17 FAN        -4.2720    1.9960    9.7220 F         1 A04400      0.0000 
     18 FAO        -6.4050    1.8650    9.9900 F         1 A04400      0.0000 
     19 FAM        -5.1030    1.9270   11.7130 F         1 A04400      0.0000 
     20 H          -0.5025   -0.1333   11.1662 H         1 A04400      0.0000 
     21 H          -2.9380   -0.5458   11.2087 H         1 A04400      0.0000 
     22 H          -3.2932   -1.9148    6.9307 H         1 A04400      0.0000 
     23 H          -5.4566   -2.4110    5.9764 H         1 A04400      0.0000 
     24 H          -7.4733   -1.7671    7.1528 H         1 A04400      0.0000 
     25 H          -7.3201   -0.6274    9.2766 H         1 A04400      0.0000 
@<TRIPOS>BOND
     1    2    1 ar   
     2    3    2 ar   
     3    4    2 1    
     4    5    4 1    
     5    6    4 2    
     6    8    5 1    
     7    7    6 1    
     8   20    6 1    
     9    8    7 2    
    10   21    7 1    
    11    9    8 1    
    12   10    9 ar   
    13   14    9 ar   
    14   11   10 ar   
    15   22   10 1    
    16   12   11 ar   
    17   23   11 1    
    18   13   12 ar   
    19   24   12 1    
    20   14   13 ar   
    21   25   13 1    
    22   15   14 1    
    23   16   15 1    
    24   17   16 1    
    25   18   16 1    
    26   19   16 1    
@<TRIPOS>SUBSTRUCTURE
     1 A04400      1 GROUP   
@<TRIPOS>SET

