#    Name: 1sq5_ADP_3_INTS_M
#    Modification time : Tue Mar 25 02:37:47 2014

@<TRIPOS>MOLECULE
1sq5_ADP_3_INTS_M
   66     0    12     0     0
SMALL
NO_CHARGES


@<TRIPOS>ATOM
      1 NZ         21.3900   10.0210   -8.1200 N.4       3 LYC4        0.0000 
      2 NZ         22.9690    9.1660   -7.6320 N.4      11 LYL4        0.0000 
      3 NZ         19.8110   10.8760   -8.6080 N.4       7 LYP4        0.0000 
      4 N          22.8515    7.6040   -7.8170 N.am      2 SEC2        0.0000 
      5 N          22.9690    9.1660   -7.6320 N.am     10 SEL2        0.0000 
      6 N          22.7340    6.0420   -8.0020 N.am      6 SEP2        0.0000 
      7 NZ         21.2340   11.0465   -7.4470 N.4       3 LYC4        0.0000 
      8 NZ         22.6570   11.2170   -6.2860 N.4      11 LYL4        0.0000 
      9 NZ         23.8870   11.5285   -5.5495 N.4       3 LYC4        0.0000 
     10 NZ         25.4740   12.9360   -4.1440 N.4       7 LYP4        0.0000 
     11 N          21.8725   11.9235   -5.5370 N.am      2 SEC2        0.0000 
     12 N          22.6570   11.2170   -6.2860 N.am     10 SEL2        0.0000 
     13 N          21.0880   12.6300   -4.7880 N.am      6 SEP2        0.0000 
     14 N          23.8870   11.5285   -5.5495 N.am      2 SEC2        0.0000 
     15 N          25.1170   11.8400   -4.8130 N.am      6 SEP2        0.0000 
     16 NZ         20.4990   10.0000   -7.2870 N.4       3 LYC4        0.0000 
     17 NZ         21.1870    9.1240   -5.9660 N.4      11 LYL4        0.0000 
     18 N          20.6155    8.5650   -4.9860 N.am      2 SEC2        0.0000 
     19 N          21.1870    9.1240   -5.9660 N.am     10 SEL2        0.0000 
     20 N          20.0440    8.0060   -4.0060 N.am      6 SEP2        0.0000 
     21 N          20.8155    7.9465   -6.2340 N.am      2 SEC2        0.0000 
     22 N          20.4440    6.7690   -6.5020 N.am      6 SEP2        0.0000 
     23 N          23.8615    5.4210   -5.6225 N.am      2 SEC2        0.0000 
     24 N          23.8210    6.7670   -4.9070 N.am     10 SEL2        0.0000 
     25 N          23.9020    4.0750   -6.3380 N.am      6 SEP2        0.0000 
     26 N          24.3540    5.3520   -4.2210 N.am      2 SEC2        0.0000 
     27 N          24.8870    3.9370   -3.5350 N.am      6 SEP2        0.0000 
     28 CA         22.3745   10.7110   -2.8205 C.3       4 GLC5        0.0000 
     29 CA         23.3610    9.3850   -2.1520 C.3      12 GLL5        0.0000 
     30 CA         21.3880   12.0370   -3.4890 C.3       8 GLP5        0.0000 
     31 CA         22.0175    8.0415   -3.1135 C.3       4 GLC5        0.0000 
     32 CA         20.6740    6.6980   -4.0750 C.3       8 GLP5        0.0000 
     33 CA         22.7160   10.1475    0.4885 C.3       4 GLC5        0.0000 
     34 CA         24.1560    9.1160   -0.8330 C.3      12 GLL5        0.0000 
     35 CA         21.2760   11.1790    1.8100 C.3       8 GLP5        0.0000 
     36 CA         26.2680   10.0975   -1.7915 C.3       4 GLC5        0.0000 
     37 CA         25.6080    8.5770   -0.9420 C.3      12 GLL5        0.0000 
     38 CA         26.9280   11.6180   -2.6410 C.3       8 GLP5        0.0000 
     39 N          26.4990    4.8950   -0.6800 N.am      2 SEC2        0.0000 
     40 N          26.5510    6.3490   -0.3580 N.am     10 SEL2        0.0000 
     41 N          26.4470    3.4410   -1.0020 N.am      6 SEP2        0.0000 
     42 CA         22.6740    6.3305    1.5695 C.3       4 GLC5        0.0000 
     43 CA         24.2340    6.8890    0.0960 C.3      12 GLL5        0.0000 
     44 CA         21.1140    5.7720    3.0430 C.3       8 GLP5        0.0000 
     45 CA         21.2115    4.4625    1.0235 C.3       4 GLC5        0.0000 
     46 CA         22.2570    3.8000   -0.2710 C.3      12 GLL5        0.0000 
     47 CA         20.1660    5.1250    2.3180 C.3       8 GLP5        0.0000 
     48 CA         22.3700    0.6180   -0.0095 C.3       4 GLC5        0.0000 
     49 CA         21.8490    2.5220    0.3000 C.3      12 GLL5        0.0000 
     50 CA         22.8910   -1.2860   -0.3190 C.3       8 GLP5        0.0000 
     51 CA         20.6365    3.1895    1.4385 C.3       4 GLC5        0.0000 
     52 CA         19.4240    3.8570    2.5770 C.3       8 GLP5        0.0000 
     53 O          20.1505    2.0490   -1.4430 O.2       1 ALC1        0.0000 
     54 O          21.0450    1.6740   -0.2300 O.2       9 ALL1        0.0000 
     55 O          19.2560    2.4240   -2.6560 O.2       5 ALP1        0.0000 
     56 CA         25.2280    2.9335    3.2400 C.3       4 GLC5        0.0000 
     57 CA         23.2980    3.1180    2.1930 C.3      12 GLL5        0.0000 
     58 CA         27.1580    2.7490    4.2870 C.3       8 GLP5        0.0000 
     59 CA         24.1730    1.1520    2.0780 C.3       4 GLC5        0.0000 
     60 CA         25.0480   -0.8140    1.9630 C.3       8 GLP5        0.0000 
     61 CA         22.2060    4.4450    2.6180 C.3       4 GLC5        0.0000 
     62 CA         22.1285    5.1835    1.7545 C.3       4 GLC5        0.0000 
     63 CA         23.1430    4.5950    0.4660 C.3      12 GLL5        0.0000 
     64 CA         25.3433   10.4343   -2.0667 C.3       4 GLC5        0.0000 
     65 CA         22.9335    2.4875   -1.6207 C.3       4 GLC5        0.0000 
     66 CA         23.8140    1.8140   -3.2560 C.3       8 GLP5        0.0000 
@<TRIPOS>BOND
@<TRIPOS>SUBSTRUCTURE
     1 ALC1       53 GROUP        1 X    ALC  0     ROOT ALC X 1
     2 SEC2        4 GROUP        1 X    SEC  0     **** SEC X 2
     3 LYC4        1 GROUP        1 X    LYC  0     **** LYC X 4
     4 GLC5       28 GROUP        1 X    GLC  0     **** GLC X 6
     5 ALP1       55 GROUP        1 Y    ALP  0     ROOT ALP Y 8
     6 SEP2        6 GROUP        1 Y    SEP  0     **** SEP Y 9
     7 LYP4        3 GROUP        1 Y    LYP  0     **** LYP Y 11
     8 GLP5       30 GROUP        1 Y    GLP  0     **** GLP Y 13
     9 ALL1       54 GROUP        1 Z    ALL  0     ROOT ALL Z 15
    10 SEL2        5 GROUP        1 Z    SEL  0     **** SEL Z 16
    11 LYL4        2 GROUP        1 Z    LYL  0     **** LYL Z 18
    12 GLL5       29 GROUP        1 Z    GLL  0     **** GLL Z 20
@<TRIPOS>SET

