#    Name: 1sq5_ADP_3_ligand
#    Modification time : Tue Mar 25 02:37:47 2014

@<TRIPOS>MOLECULE
1sq5_ADP_3_ligand
   38    40     1     0     0
SMALL
NO_CHARGES


@<TRIPOS>ATOM
      1 PB         22.5650    9.7240   -6.3290 P.3       1 ADP5003     0.0000 
      2 O1B        22.9690    9.1660   -7.6320 O.co2     1 ADP5003     0.0000 
      3 O2B        22.6570   11.2170   -6.2860 O.co2     1 ADP5003     0.0000 
      4 O3B        21.1870    9.1240   -5.9660 O.co2     1 ADP5003     0.0000 
      5 PA         24.2010    8.1380   -4.4040 P.3       1 ADP5003     0.0000 
      6 O1A        23.8210    6.7670   -4.9070 O.co2     1 ADP5003     0.0000 
      7 O2A        25.6750    8.3380   -4.1530 O.co2     1 ADP5003     0.0000 
      8 O3A        23.8030    9.1690   -5.4830 O.3       1 ADP5003     0.0000 
      9 O5'        23.3020    8.2460   -3.0670 O.3       1 ADP5003     0.0000 
     10 C5'        23.3610    9.3850   -2.1520 C.3       1 ADP5003     0.0000 
     11 C4'        24.1560    9.1160   -0.8330 C.3       1 ADP5003     0.0000 
     12 O4'        23.5080    8.1190    0.0360 O.3       1 ADP5003     0.0000 
     13 C3'        25.6080    8.5770   -0.9420 C.3       1 ADP5003     0.0000 
     14 O3'        26.4020    9.1580    0.1180 O.3       1 ADP5003     0.0000 
     15 C2'        25.4120    7.0610   -0.8560 C.3       1 ADP5003     0.0000 
     16 O2'        26.5510    6.3490   -0.3580 O.3       1 ADP5003     0.0000 
     17 C1'        24.2340    6.8890    0.0960 C.3       1 ADP5003     0.0000 
     18 N9         23.3550    5.7230   -0.2800 N.pl3     1 ADP5003     0.0000 
     19 C8         22.6090    5.5690   -1.4120 C.2       1 ADP5003     0.0000 
     20 N7         21.9270    4.4080   -1.4440 N.2       1 ADP5003     0.0000 
     21 C5         22.2570    3.8000   -0.2710 C.ar      1 ADP5003     0.0000 
     22 C6         21.8490    2.5220    0.3000 C.ar      1 ADP5003     0.0000 
     23 N6         21.0450    1.6740   -0.2300 N.pl3     1 ADP5003     0.0000 
     24 N1         22.4140    2.2500    1.5410 N.ar      1 ADP5003     0.0000 
     25 C2         23.2980    3.1180    2.1930 C.ar      1 ADP5003     0.0000 
     26 N3         23.6790    4.2940    1.6830 N.ar      1 ADP5003     0.0000 
     27 C4         23.1430    4.5950    0.4660 C.ar      1 ADP5003     0.0000 
     28 H          22.3428    9.7085   -1.8557 H         1 ADP5003     0.0000 
     29 H          23.8320   10.2618   -2.6405 H         1 ADP5003     0.0000 
     30 H          24.2177   10.0555   -0.2583 H         1 ADP5003     0.0000 
     31 H          25.9508    8.8249   -1.9175 H         1 ADP5003     0.0000 
     32 H          25.0907    6.7135   -1.8214 H         1 ADP5003     0.0000 
     33 H          24.6330    6.7380    1.0877 H         1 ADP5003     0.0000 
     34 H          22.5781    6.2506   -2.1352 H         1 ADP5003     0.0000 
     35 H          23.6681    2.8047    3.1335 H         1 ADP5003     0.0000 
     36 H          26.8972    8.3887    0.5217 H         1 ADP5003     0.0000 
     37 H          27.1770    6.2862   -1.1353 H         1 ADP5003     0.0000 
     38 H          20.6014    2.1698   -0.9766 H         1 ADP5003     0.0000 
@<TRIPOS>BOND
     1    2    1 ar   
     2    3    1 ar   
     3    4    1 ar   
     4    8    1 1    
     5    6    5 ar   
     6    7    5 ar   
     7    8    5 1    
     8    9    5 1    
     9   10    9 1    
    10   11   10 1    
    11   28   10 1    
    12   29   10 1    
    13   12   11 1    
    14   13   11 1    
    15   30   11 1    
    16   17   12 1    
    17   14   13 1    
    18   15   13 1    
    19   31   13 1    
    20   36   14 1    
    21   16   15 1    
    22   17   15 1    
    23   32   15 1    
    24   37   16 1    
    25   18   17 1    
    26   33   17 1    
    27   19   18 1    
    28   27   18 1    
    29   20   19 2    
    30   34   19 1    
    31   21   20 1    
    32   22   21 ar   
    33   27   21 ar   
    34   23   22 1    
    35   24   22 ar   
    36   38   23 1    
    37   25   24 ar   
    38   26   25 ar   
    39   35   25 1    
    40   27   26 ar   
@<TRIPOS>SUBSTRUCTURE
     1 ADP5003     1 GROUP   
@<TRIPOS>SET

