#    Name: 4i6h_1C8_1_INTS_M
#    Modification time : Tue Mar 25 02:31:27 2014

@<TRIPOS>MOLECULE
4i6h_1C8_1_INTS_M
   65     0     6     0     0
SMALL
NO_CHARGES


@<TRIPOS>ATOM
      1 CA         11.9790    1.0350    9.6200 C.3       2 GLC5        0.0000 
      2 CA         11.4480    2.5900    9.7820 C.3       6 GLL5        0.0000 
      3 CA         12.5100   -0.5200    9.4580 C.3       4 GLP5        0.0000 
      4 CA         11.9375    2.1020    8.0275 C.3       2 GLC5        0.0000 
      5 CA         12.4270    1.6140    6.2730 C.3       4 GLP5        0.0000 
      6 CA         12.7090    5.5450   12.1795 C.3       2 GLC5        0.0000 
      7 CA         12.6810    6.1780   10.4590 C.3       6 GLL5        0.0000 
      8 CA         12.7370    4.9120   13.9000 C.3       4 GLP5        0.0000 
      9 CA         15.4310    6.7075    8.6610 C.3       2 GLC5        0.0000 
     10 CA         13.4640    6.8790    9.3500 C.3       6 GLL5        0.0000 
     11 CA         17.3980    6.5360    7.9720 C.3       4 GLP5        0.0000 
     12 CA         10.8415    6.0875    7.2990 C.3       2 GLC5        0.0000 
     13 CA         12.8110    6.8680    7.9960 C.3       6 GLL5        0.0000 
     14 CA          8.8720    5.3070    6.6020 C.3       4 GLP5        0.0000 
     15 CA         14.4360    7.0555    6.9785 C.3       2 GLC5        0.0000 
     16 CA         16.0610    7.2430    5.9610 C.3       4 GLP5        0.0000 
     17 CA         13.6550    4.9405    7.3875 C.3       2 GLC5        0.0000 
     18 CA         14.4990    3.0130    6.7790 C.3       4 GLP5        0.0000 
     19 CA          9.5815   10.1570    8.7365 C.3       2 GLC5        0.0000 
     20 CA         11.3430    9.3510    9.7660 C.3       6 GLL5        0.0000 
     21 CA          7.8200   10.9630    7.7070 C.3       4 GLP5        0.0000 
     22 CA         11.1425   12.4590   10.0185 C.3       2 GLC5        0.0000 
     23 CA         11.9910   10.5470   10.4440 C.3       6 GLL5        0.0000 
     24 CA         10.2940   14.3710    9.5930 C.3       4 GLP5        0.0000 
     25 CA          7.6850    7.4070    8.4800 C.3       2 GLC5        0.0000 
     26 CA          7.9150    6.1180   10.2400 C.3       6 GLL5        0.0000 
     27 CA          7.4550    8.6960    6.7200 C.3       4 GLP5        0.0000 
     28 CA          8.3935    5.7125    8.4210 C.3       2 GLC5        0.0000 
     29 N           6.8550    3.7195    9.9685 N.am      1 SEC2        0.0000 
     30 N           7.8890    4.8060    9.9920 N.am      5 SEL2        0.0000 
     31 N           5.8210    2.6330    9.9450 N.am      3 SEP2        0.0000 
     32 CA          7.5180    3.1540    8.7395 C.3       2 GLC5        0.0000 
     33 CA          9.0010    4.0900    9.9040 C.3       6 GLL5        0.0000 
     34 CA          6.0350    2.2180    7.5750 C.3       4 GLP5        0.0000 
     35 CA          7.7645    3.1635   11.0830 C.3       2 GLC5        0.0000 
     36 CA          6.5280    2.2370   12.2620 C.3       4 GLP5        0.0000 
     37 CA          6.6390    7.5950    8.0815 C.3       2 GLC5        0.0000 
     38 CA          5.8230    6.4940    9.4430 C.3       6 GLL5        0.0000 
     39 CA          7.3475    5.9005    8.0225 C.3       2 GLC5        0.0000 
     40 CA          5.5845    4.4775   10.3785 C.3       2 GLC5        0.0000 
     41 CA          5.3460    2.4610   11.3140 C.3       4 GLP5        0.0000 
     42 CA          5.1535    8.7090    8.6195 C.3       2 GLC5        0.0000 
     43 CA          4.8280    7.4100    9.7070 C.3       6 GLL5        0.0000 
     44 CA          5.4790   10.0080    7.5320 C.3       4 GLP5        0.0000 
     45 CA          5.9965    8.6855   13.4925 C.3       2 GLC5        0.0000 
     46 CA          7.2610    8.5140   12.0130 C.3       6 GLL5        0.0000 
     47 CA          4.7320    8.8570   14.9720 C.3       4 GLP5        0.0000 
     48 CA          6.8410    7.1160   14.1450 C.3       2 GLC5        0.0000 
     49 CA          7.8530    7.7130   12.9620 C.3       6 GLL5        0.0000 
     50 CA          5.8290    6.5190   15.3280 C.3       4 GLP5        0.0000 
     51 CA          7.1125    8.4295   14.8735 C.3       2 GLC5        0.0000 
     52 CA          8.5830    8.9010   13.9330 C.3       6 GLL5        0.0000 
     53 CA          5.6420    7.9580   15.8140 C.3       4 GLP5        0.0000 
     54 CA          8.4340    9.2845   16.0385 C.3       2 GLC5        0.0000 
     55 CA          8.2850    9.6680   18.1440 C.3       4 GLP5        0.0000 
     56 CA         13.2777    8.6922    7.9995 C.3       2 GLC5        0.0000 
     57 CA         13.4180   10.5110    7.3260 C.3       4 GLP5        0.0000 
     58 CA         11.6325    6.8915   12.6327 C.3       2 GLC5        0.0000 
     59 CA         11.3590    8.2610   10.8260 C.3       6 GLL5        0.0000 
     60 CA         11.4130    5.3420   13.8950 C.3       4 GLP5        0.0000 
     61 CA         12.5425   10.2300    8.7155 C.3       2 GLC5        0.0000 
     62 CA          9.2415    5.0330    8.3302 C.3       2 GLC5        0.0000 
     63 CA         10.2220    6.1480   10.3360 C.3       6 GLL5        0.0000 
     64 CA          3.8182    5.8450   10.5755 C.3       2 GLC5        0.0000 
     65 CA          2.3110    4.7380   11.5760 C.3       4 GLP5        0.0000 
@<TRIPOS>BOND
@<TRIPOS>SUBSTRUCTURE
     1 SEC2       29 GROUP        1 X    SEC  0     ROOT SEC X 2
     2 GLC5        1 GROUP        1 X    GLC  0     **** GLC X 6
     3 SEP2       31 GROUP        1 Y    SEP  0     ROOT SEP Y 9
     4 GLP5        3 GROUP        1 Y    GLP  0     **** GLP Y 13
     5 SEL2       30 GROUP        1 Z    SEL  0     ROOT SEL Z 16
     6 GLL5        2 GROUP        1 Z    GLL  0     **** GLL Z 20
@<TRIPOS>SET

