#    Name: 4i6h_1C8_1_ligand
#    Modification time : Tue Mar 25 02:31:27 2014

@<TRIPOS>MOLECULE
4i6h_1C8_1_ligand
   52    56     1     0     0
SMALL
NO_CHARGES


@<TRIPOS>ATOM
      1 O12        13.7190    4.1170   10.1560 O.2       1 1C8401      0.0000 
      2 C9         12.6470    4.7280   10.2210 C.2       1 1C8401      0.0000 
      3 N10        11.4290    4.0220   10.0570 N.am      1 1C8401      0.0000 
      4 C11        11.4480    2.5900    9.7820 C.3       1 1C8401      0.0000 
      5 C2         10.2200    4.7080   10.0900 C.ar      1 1C8401      0.0000 
      6 C8         12.6810    6.1780   10.4590 C.3       1 1C8401      0.0000 
      7 C13        13.4640    6.8790    9.3500 C.3       1 1C8401      0.0000 
      8 C14        12.8110    6.8680    7.9960 C.3       1 1C8401      0.0000 
      9 N7         11.4000    6.8470   10.5220 N.3       1 1C8401      0.0000 
     10 C15        11.3590    8.2610   10.8260 C.3       1 1C8401      0.0000 
     11 C19        11.3430    9.3510    9.7660 C.3       1 1C8401      0.0000 
     12 C18        11.9910   10.5470   10.4440 C.3       1 1C8401      0.0000 
     13 C17        12.6490   10.0870   11.7400 C.3       1 1C8401      0.0000 
     14 C16        12.3450    8.6210   11.9150 C.3       1 1C8401      0.0000 
     15 C3         10.2220    6.1480   10.3360 C.ar      1 1C8401      0.0000 
     16 N4          9.0650    6.7850   10.3830 N.ar      1 1C8401      0.0000 
     17 C5          7.9150    6.1180   10.2400 C.ar      1 1C8401      0.0000 
     18 N6          7.8890    4.8060    9.9920 N.ar      1 1C8401      0.0000 
     19 C1          9.0010    4.0900    9.9040 C.ar      1 1C8401      0.0000 
     20 N20         6.7890    6.7850   10.2650 N.pl3     1 1C8401      0.0000 
     21 C24         5.8230    6.4940    9.4430 C.2       1 1C8401      0.0000 
     22 C23         4.8280    7.4100    9.7070 C.2       1 1C8401      0.0000 
     23 N22         5.2380    8.2350   10.6630 N.2       1 1C8401      0.0000 
     24 C21         6.4710    7.8390   10.9530 C.2       1 1C8401      0.0000 
     25 C25         7.2610    8.5140   12.0130 C.2       1 1C8401      0.0000 
     26 C29         7.8530    7.7130   12.9620 C.2       1 1C8401      0.0000 
     27 S28         8.5830    8.9010   13.9330 S.3       1 1C8401      0.0000 
     28 C27         8.0650   10.2810   13.0560 C.2       1 1C8401      0.0000 
     29 N26         7.3370    9.8640   12.0330 N.2       1 1C8401      0.0000 
     30 H          13.2426    6.3872   11.3858 H         1 1C8401      0.0000 
     31 H          14.4672    6.4068    9.2780 H         1 1C8401      0.0000 
     32 H          13.6467    7.9299    9.6613 H         1 1C8401      0.0000 
     33 H          10.3265    8.4303   11.4010 H         1 1C8401      0.0000 
     34 H          10.3384    9.5846    9.5032 H         1 1C8401      0.0000 
     35 H          11.9271    9.0495    8.9289 H         1 1C8401      0.0000 
     36 H          11.2362   11.2897   10.6682 H         1 1C8401      0.0000 
     37 H          12.7423   10.9713    9.7905 H         1 1C8401      0.0000 
     38 H          12.2418   10.6492   12.5656 H         1 1C8401      0.0000 
     39 H          13.7150   10.2369   11.6713 H         1 1C8401      0.0000 
     40 H          13.2429    8.0443   11.7959 H         1 1C8401      0.0000 
     41 H          11.8997    8.4519   12.8774 H         1 1C8401      0.0000 
     42 H           8.9808    3.0738    9.6984 H         1 1C8401      0.0000 
     43 H           5.7689    5.8083    8.7854 H         1 1C8401      0.0000 
     44 H           3.9730    7.4255    9.2506 H         1 1C8401      0.0000 
     45 H           7.9489    6.8997   13.1783 H         1 1C8401      0.0000 
     46 H           8.3567   11.0720   13.4104 H         1 1C8401      0.0000 
     47 H          11.9381    2.3808    8.9358 H         1 1C8401      0.0000 
     48 H          11.8957    2.0771   10.5145 H         1 1C8401      0.0000 
     49 H          10.5248    2.2181    9.6856 H         1 1C8401      0.0000 
     50 H          13.3666    7.3405    7.3119 H         1 1C8401      0.0000 
     51 H          12.6641    5.9369    7.6621 H         1 1C8401      0.0000 
     52 H          11.9183    7.3185    8.0105 H         1 1C8401      0.0000 
@<TRIPOS>BOND
     1    2    1 2    
     2    3    2 am   
     3    6    2 1    
     4    4    3 1    
     5    5    3 1    
     6   47    4 1    
     7   48    4 1    
     8   49    4 1    
     9   15    5 ar   
    10   19    5 ar   
    11    7    6 1    
    12    9    6 1    
    13   30    6 1    
    14    8    7 1    
    15   31    7 1    
    16   32    7 1    
    17   50    8 1    
    18   51    8 1    
    19   52    8 1    
    20   10    9 1    
    21   15    9 1    
    22   11   10 1    
    23   14   10 1    
    24   33   10 1    
    25   12   11 1    
    26   34   11 1    
    27   35   11 1    
    28   13   12 1    
    29   36   12 1    
    30   37   12 1    
    31   14   13 1    
    32   38   13 1    
    33   39   13 1    
    34   40   14 1    
    35   41   14 1    
    36   16   15 ar   
    37   17   16 ar   
    38   18   17 ar   
    39   20   17 1    
    40   19   18 ar   
    41   42   19 1    
    42   21   20 1    
    43   24   20 1    
    44   22   21 2    
    45   43   21 1    
    46   23   22 1    
    47   44   22 1    
    48   24   23 2    
    49   25   24 1    
    50   26   25 2    
    51   29   25 1    
    52   27   26 1    
    53   45   26 1    
    54   28   27 1    
    55   29   28 2    
    56   46   28 1    
@<TRIPOS>SUBSTRUCTURE
     1 1C8401      1 GROUP   
@<TRIPOS>SET

