#    Name: 3pbl_ETQ_1_INTS_M
#    Modification time : Tue Mar 25 06:13:12 2014

@<TRIPOS>MOLECULE
3pbl_ETQ_1_INTS_M
   65     0     9     0     0
SMALL
NO_CHARGES


@<TRIPOS>ATOM
      1 CA         -2.4430  -12.3915   12.0435 C.3       3 GLC5        0.0000 
      2 CA         -0.8080  -12.3360   10.5520 C.3       9 GLL5        0.0000 
      3 CA         -4.0780  -12.4470   13.5350 C.3       6 GLP5        0.0000 
      4 CA          3.2715  -12.8485    7.1665 C.3       3 GLC5        0.0000 
      5 CA          1.6090  -12.6560    6.7620 C.3       9 GLL5        0.0000 
      6 CA          4.9340  -13.0410    7.5710 C.3       6 GLP5        0.0000 
      7 CA          1.9650  -13.6300    5.3010 C.3       3 GLC5        0.0000 
      8 CA          2.3210  -14.6040    3.8400 C.3       6 GLP5        0.0000 
      9 CA         -0.3570  -12.2020    6.1125 C.3       3 GLC5        0.0000 
     10 CA         -2.3230  -11.7480    5.4630 C.3       6 GLP5        0.0000 
     11 OD1         1.6635  -17.9095   10.3535 O.co2     2 ASC3        0.0000 
     12 OD1         0.6270  -18.2630   11.1450 O.co2     8 ASL3        0.0000 
     13 OD1         2.7000  -17.5560    9.5620 O.co2     5 ASP3        0.0000 
     14 O           1.6635  -17.9095   10.3535 O.2       1 ALC1        0.0000 
     15 O           0.6270  -18.2630   11.1450 O.2       7 ALL1        0.0000 
     16 O           2.7000  -17.5560    9.5620 O.2       4 ALP1        0.0000 
     17 CA         -0.5115  -16.3335    6.6840 C.3       3 GLC5        0.0000 
     18 CA          0.7760  -15.5290    8.0190 C.3       9 GLL5        0.0000 
     19 CA         -1.7990  -17.1380    5.3490 C.3       6 GLP5        0.0000 
     20 CA         -1.2830  -15.1530    8.5635 C.3       3 GLC5        0.0000 
     21 CA         -3.3420  -14.7770    9.1080 C.3       6 GLP5        0.0000 
     22 CA          3.1525  -15.2930   13.1395 C.3       3 GLC5        0.0000 
     23 CA          1.4140  -16.3390   12.4760 C.3       9 GLL5        0.0000 
     24 CA          4.8910  -14.2470   13.8030 C.3       6 GLP5        0.0000 
     25 CA          1.8075  -14.2660   12.6305 C.3       3 GLC5        0.0000 
     26 CA          2.2010  -12.1930   12.7850 C.3       6 GLP5        0.0000 
     27 CA          2.2075  -21.4715   11.2025 C.3       3 GLC5        0.0000 
     28 CA          1.0590  -19.6070   11.5780 C.3       9 GLL5        0.0000 
     29 CA          3.3560  -23.3360   10.8270 C.3       6 GLP5        0.0000 
     30 CA          1.3115  -20.5040    9.6490 C.3       3 GLC5        0.0000 
     31 CA          1.5640  -21.4010    7.7200 C.3       6 GLP5        0.0000 
     32 CA         -0.5160  -18.2630    6.9015 C.3       3 GLC5        0.0000 
     33 CA         -0.3200  -18.6260    8.9100 C.3       9 GLL5        0.0000 
     34 CA         -0.7120  -17.9000    4.8930 C.3       6 GLP5        0.0000 
     35 CA          0.6220  -20.0135    8.3150 C.3       3 GLC5        0.0000 
     36 CA         -1.7870   -8.5115   11.3640 C.3       3 GLC5        0.0000 
     37 CA         -1.6890  -10.0110    9.7860 C.3       9 GLL5        0.0000 
     38 CA         -1.8850   -7.0120   12.9420 C.3       6 GLP5        0.0000 
     39 CA         -2.4290   -8.4320    8.4285 C.3       3 GLC5        0.0000 
     40 CA         -3.1690   -6.8530    7.0710 C.3       6 GLP5        0.0000 
     41 CA         -2.2920  -10.3345    7.9425 C.3       3 GLC5        0.0000 
     42 CA         -2.8950  -10.6580    6.0990 C.3       6 GLP5        0.0000 
     43 CA         -3.6935   -9.1610   11.5760 C.3       3 GLC5        0.0000 
     44 CA         -3.1870  -10.2710    9.9600 C.3       9 GLL5        0.0000 
     45 CA         -4.2000   -8.0510   13.1920 C.3       6 GLP5        0.0000 
     46 CA         -3.7900   -8.5160    8.9595 C.3       3 GLC5        0.0000 
     47 CA         -4.3930   -6.7610    7.9590 C.3       6 GLP5        0.0000 
     48 CA         -3.7305  -10.4345    8.1145 C.3       3 GLC5        0.0000 
     49 CA         -4.2740  -10.5980    6.2690 C.3       6 GLP5        0.0000 
     50 CA         -3.6325  -11.3590   11.7475 C.3       3 GLC5        0.0000 
     51 CA          2.5467  -12.6120    9.2755 C.3       3 GLC5        0.0000 
     52 CA          0.6880  -12.5280    8.2200 C.3       9 GLL5        0.0000 
     53 CA          4.3820  -12.1790    9.8640 C.3       6 GLP5        0.0000 
     54 CA          1.1801  -12.7138   11.2910 C.3       3 GLC5        0.0000 
     55 CA          0.7350  -13.5620    9.1540 C.3       9 GLL5        0.0000 
     56 CA          3.1110  -20.0220   12.9375 C.3       3 GLC5        0.0000 
     57 CA          4.9380  -20.5180   13.5750 C.3       6 GLP5        0.0000 
     58 CA         -2.2105  -17.6437    9.9530 C.3       3 GLC5        0.0000 
     59 CA         -0.6220  -18.3630   10.3780 C.3       9 GLL5        0.0000 
     60 CA         -3.9500  -16.7930   10.2620 C.3       6 GLP5        0.0000 
     61 CA         -2.0900  -19.3242   10.1575 C.3       3 GLC5        0.0000 
     62 CA         -3.7090  -20.1540   10.6710 C.3       6 GLP5        0.0000 
     63 CA         -0.1326   -9.0425    9.1625 C.3       3 GLC5        0.0000 
     64 CA         -0.8770  -11.3050    9.6070 C.3       9 GLL5        0.0000 
     65 CA          0.8260   -7.4010    8.9190 C.3       6 GLP5        0.0000 
@<TRIPOS>BOND
@<TRIPOS>SUBSTRUCTURE
     1 ALC1       14 GROUP        1 X    ALC  0     ROOT ALC X 1
     2 ASC3       11 GROUP        1 X    ASC  0     **** ASC X 3
     3 GLC5        1 GROUP        1 X    GLC  0     **** GLC X 6
     4 ALP1       16 GROUP        1 Y    ALP  0     ROOT ALP Y 8
     5 ASP3       13 GROUP        1 Y    ASP  0     **** ASP Y 10
     6 GLP5        3 GROUP        1 Y    GLP  0     **** GLP Y 13
     7 ALL1       15 GROUP        1 Z    ALL  0     ROOT ALL Z 15
     8 ASL3       12 GROUP        1 Z    ASL  0     **** ASL Z 17
     9 GLL5        2 GROUP        1 Z    GLL  0     **** GLL Z 20
@<TRIPOS>SET

