#    Name: 3pbl_ETQ_1_ligand
#    Modification time : Tue Mar 25 06:13:12 2014

@<TRIPOS>MOLECULE
3pbl_ETQ_1_ligand
   49    50     1     0     0
SMALL
NO_CHARGES


@<TRIPOS>ATOM
      1 C1         -0.8080  -12.3360   10.5520 C.ar      1 ETQ1200     0.0000 
      2 N1          1.1690  -15.2760   11.4810 N.am      1 ETQ1200     0.0000 
      3 O1         -1.5290  -12.2300   11.6990 O.3       1 ETQ1200     0.0000 
      4 CL1         1.6090  -12.6560    6.7620 Cl        1 ETQ1200     0.0000 
      5 C2         -0.8770  -11.3050    9.6070 C.ar      1 ETQ1200     0.0000 
      6 N2          0.6270  -18.2630   11.1450 N.4       1 ETQ1200     0.0000 
      7 O2          1.5050  -14.6500    8.8870 O.3       1 ETQ1200     0.0000 
      8 C3         -0.1100  -11.4090    8.4450 C.ar      1 ETQ1200     0.0000 
      9 O3         -0.8960  -14.7200   12.2060 O.2       1 ETQ1200     0.0000 
     10 C4          0.6880  -12.5280    8.2200 C.ar      1 ETQ1200     0.0000 
     11 C5          0.7350  -13.5620    9.1540 C.ar      1 ETQ1200     0.0000 
     12 C6          0.7760  -15.5290    8.0190 C.3       1 ETQ1200     0.0000 
     13 C7         -0.0250  -13.4780   10.3280 C.ar      1 ETQ1200     0.0000 
     14 C8          0.0360  -14.5730   11.4180 C.2       1 ETQ1200     0.0000 
     15 C9          1.4140  -16.3390   12.4760 C.3       1 ETQ1200     0.0000 
     16 C10         0.3760  -17.4610   12.3600 C.3       1 ETQ1200     0.0000 
     17 C11         0.5220  -18.4140   13.5440 C.3       1 ETQ1200     0.0000 
     18 C12         1.5090  -19.4450   13.0220 C.3       1 ETQ1200     0.0000 
     19 C13         1.0590  -19.6070   11.5780 C.3       1 ETQ1200     0.0000 
     20 C14        -0.6220  -18.3630   10.3780 C.3       1 ETQ1200     0.0000 
     21 C15        -0.3200  -18.6260    8.9100 C.3       1 ETQ1200     0.0000 
     22 C16        -1.6890  -10.0110    9.7860 C.3       1 ETQ1200     0.0000 
     23 C17        -3.1870  -10.2710    9.9600 C.3       1 ETQ1200     0.0000 
     24 H           1.9623  -15.1081   10.8139 H         1 ETQ1200     0.0000 
     25 H           1.3905  -17.8037   10.5616 H         1 ETQ1200     0.0000 
     26 H          -0.1357  -10.6495    7.7479 H         1 ETQ1200     0.0000 
     27 H           1.3674  -15.9318   13.4927 H         1 ETQ1200     0.0000 
     28 H           2.4093  -16.7759   12.3343 H         1 ETQ1200     0.0000 
     29 H          -0.5976  -17.0569   12.3551 H         1 ETQ1200     0.0000 
     30 H          -0.4074  -18.8734   13.7500 H         1 ETQ1200     0.0000 
     31 H           0.9374  -17.8991   14.3684 H         1 ETQ1200     0.0000 
     32 H           1.3885  -20.3553   13.5410 H         1 ETQ1200     0.0000 
     33 H           2.4885  -19.0549   13.0523 H         1 ETQ1200     0.0000 
     34 H           1.8881  -19.9510   10.9887 H         1 ETQ1200     0.0000 
     35 H           0.2415  -20.3023   11.5412 H         1 ETQ1200     0.0000 
     36 H          -1.1961  -17.4350   10.4537 H         1 ETQ1200     0.0000 
     37 H          -1.2426  -19.1803   10.7569 H         1 ETQ1200     0.0000 
     38 H          -1.5343   -9.3718    8.9096 H         1 ETQ1200     0.0000 
     39 H          -1.3125   -9.4753   10.6646 H         1 ETQ1200     0.0000 
     40 H           1.3040  -16.3467    7.7899 H         1 ETQ1200     0.0000 
     41 H          -0.0781  -15.8391    8.4366 H         1 ETQ1200     0.0000 
     42 H           0.5358  -15.0839    7.1563 H         1 ETQ1200     0.0000 
     43 H           0.2294  -17.8941    8.5069 H         1 ETQ1200     0.0000 
     44 H           0.1878  -19.4780    8.7821 H         1 ETQ1200     0.0000 
     45 H          -1.1560  -18.6986    8.3661 H         1 ETQ1200     0.0000 
     46 H          -3.3749  -10.8370   10.7627 H         1 ETQ1200     0.0000 
     47 H          -3.7007   -9.4207   10.0741 H         1 ETQ1200     0.0000 
     48 H          -3.5760  -10.7446    9.1698 H         1 ETQ1200     0.0000 
     49 H          -1.4243  -13.1148   12.1531 H         1 ETQ1200     0.0000 
@<TRIPOS>BOND
     1    3    1 1    
     2    5    1 ar   
     3   13    1 ar   
     4   14    2 am   
     5   15    2 1    
     6   24    2 1    
     7   49    3 1    
     8   10    4 1    
     9    8    5 ar   
    10   22    5 1    
    11   16    6 1    
    12   19    6 1    
    13   20    6 1    
    14   25    6 1    
    15   11    7 1    
    16   12    7 1    
    17   10    8 ar   
    18   26    8 1    
    19   14    9 2    
    20   11   10 ar   
    21   13   11 ar   
    22   40   12 1    
    23   41   12 1    
    24   42   12 1    
    25   14   13 1    
    26   16   15 1    
    27   27   15 1    
    28   28   15 1    
    29   17   16 1    
    30   29   16 1    
    31   18   17 1    
    32   30   17 1    
    33   31   17 1    
    34   19   18 1    
    35   32   18 1    
    36   33   18 1    
    37   34   19 1    
    38   35   19 1    
    39   21   20 1    
    40   36   20 1    
    41   37   20 1    
    42   43   21 1    
    43   44   21 1    
    44   45   21 1    
    45   23   22 1    
    46   38   22 1    
    47   39   22 1    
    48   46   23 1    
    49   47   23 1    
    50   48   23 1    
@<TRIPOS>SUBSTRUCTURE
     1 ETQ1200     1 GROUP   
@<TRIPOS>SET

