#    Name: 1K9S_3_CAVITY_N1_6.mol2
#    Modification time : Tue Mar 11 13:00:21 2014

@<TRIPOS>MOLECULE
1K9S_3_CAVITY_N1_6.mol2
   93     0     6     0     0
SMALL
NO_CHARGES


@<TRIPOS>ATOM
      1 CA        110.6727   90.6392   72.2406 C.3       5 GLY6        0.0000 
      2 CA        109.9362   90.7089   73.5456 C.3       5 GLY6        0.0000 
      3 NZ        109.4797   91.2148   71.5367 N.2       3 LYS4        0.0000 
      4 O         108.7433   91.2844   72.8416 O.2       2 ALA2        0.0000 
      5 NZ        108.2867   91.7903   70.8327 N.2       3 LYS4        0.0000 
      6 NZ        107.5503   91.8599   72.1376 N.2       3 LYS4        0.0000 
      7 O         106.8139   91.9296   73.4425 O.2       2 ALA2        0.0000 
      8 O         106.3573   92.4355   71.4336 O.2       2 ALA2        0.0000 
      9 O         105.6209   92.5051   72.7386 O.2       2 ALA2        0.0000 
     10 CZ        111.6626   91.5168   74.4767 C.ar      4 PHE5        0.0000 
     11 CA        111.2060   92.0227   72.4678 C.3       5 GLY6        0.0000 
     12 DU        110.4696   92.0923   73.7727 H         6 CUB7        0.0000 
     13 O         109.7332   92.1619   75.0777 O.2       2 ALA2        0.0000 
     14 O         110.7495   92.5286   70.4589 O.2       2 ALA2        0.0000 
     15 N         110.0131   92.5982   71.7638 N.2       2 ALA2        0.0000 
     16 OG        109.2766   92.6678   73.0688 O.2       1 SER1        0.0000 
     17 N         108.8201   93.1737   71.0599 N.2       2 ALA2        0.0000 
     18 OG        108.0837   93.2434   72.3648 O.2       1 SER1        0.0000 
     19 O         106.8907   93.8189   71.6608 O.2       2 ALA2        0.0000 
     20 OG        106.1542   93.8885   72.9657 O.2       1 SER1        0.0000 
     21 CA        119.9146   97.9515   75.3419 C.3       5 GLY6        0.0000 
     22 CA        119.1781   98.0212   76.6468 C.3       5 GLY6        0.0000 
     23 N         118.4417   98.0908   77.9517 N.2       2 ALA2        0.0000 
     24 N         121.4368   92.5805   74.7634 N.2       2 ALA2        0.0000 
     25 CZ        120.7004   92.6501   76.0683 C.ar      4 PHE5        0.0000 
     26 CZ        120.9803   93.0864   72.7545 C.ar      4 PHE5        0.0000 
     27 N         120.2439   93.1560   74.0594 N.2       2 ALA2        0.0000 
     28 N         119.5074   93.2257   75.3643 N.2       2 ALA2        0.0000 
     29 CZ        118.7710   93.2953   76.6692 C.ar      4 PHE5        0.0000 
     30 CZ        118.0346   93.3649   77.9741 C.ar      4 PHE5        0.0000 
     31 N         119.0509   93.7316   73.3554 N.2       2 ALA2        0.0000 
     32 N         118.3145   93.8012   74.6603 N.2       2 ALA2        0.0000 
     33 CZ        117.5780   93.8708   75.9652 C.ar      4 PHE5        0.0000 
     34 CZ        118.5944   94.2375   71.3465 C.ar      4 PHE5        0.0000 
     35 N         117.8579   94.3071   72.6514 N.2       2 ALA2        0.0000 
     36 CZ        117.1215   94.3767   73.9564 C.ar      4 PHE5        0.0000 
     37 CA        116.6649   94.8826   71.9475 C.3       5 GLY6        0.0000 
     38 CZ        115.9285   94.9523   73.2524 C.ar      4 PHE5        0.0000 
     39 CZ        115.1921   95.0219   74.5573 C.ar      4 PHE5        0.0000 
     40 CZ        114.4556   95.0915   75.8622 C.ar      4 PHE5        0.0000 
     41 N         115.4720   95.4582   71.2435 N.2       2 ALA2        0.0000 
     42 N         114.7355   95.5278   72.5484 N.2       2 ALA2        0.0000 
     43 NZ        113.9991   95.5974   73.8533 N.2       3 LYS4        0.0000 
     44 O         112.8061   96.1730   73.1494 O.2       2 ALA2        0.0000 
     45 CA        117.4518   97.2133   75.7156 C.3       5 GLY6        0.0000 
     46 CA        116.7153   97.2829   77.0206 C.3       5 GLY6        0.0000 
     47 CA        116.2588   97.7888   75.0117 C.3       5 GLY6        0.0000 
     48 N         118.0610   92.8540   71.1193 N.2       2 ALA2        0.0000 
     49 N         117.3246   92.9237   72.4243 N.2       2 ALA2        0.0000 
     50 CA        116.8680   93.4296   70.4154 C.3       5 GLY6        0.0000 
     51 CA        116.1316   93.4992   71.7203 C.3       5 GLY6        0.0000 
     52 CZ        115.3951   93.5688   73.0252 C.ar      4 PHE5        0.0000 
     53 N         114.9386   94.0747   71.0163 N.2       2 ALA2        0.0000 
     54 N         114.2022   94.1444   72.3212 N.2       2 ALA2        0.0000 
     55 CZ        113.4657   94.2140   73.6262 C.ar      4 PHE5        0.0000 
     56 CZ        112.7293   94.2836   74.9311 C.ar      4 PHE5        0.0000 
     57 N         112.2728   94.7895   72.9222 N.2       2 ALA2        0.0000 
     58 OG        111.5363   94.8592   74.2271 O.2       1 SER1        0.0000 
     59 CA        117.2487   98.6663   77.2477 C.3       5 GLY6        0.0000 
     60 CA        121.3106   95.9229   74.5137 C.3       5 GLY6        0.0000 
     61 DU        120.5742   95.9926   75.8187 H         6 CUB7        0.0000 
     62 CA        120.1176   96.4985   73.8098 C.3       5 GLY6        0.0000 
     63 CA        119.3812   96.5681   75.1147 C.3       5 GLY6        0.0000 
     64 DU        118.6448   96.6377   76.4196 H         6 CUB7        0.0000 
     65 DU        117.9083   96.7074   77.7245 H         6 CUB7        0.0000 
     66 O         117.1719   96.7770   79.0295 O.2       2 ALA2        0.0000 
     67 CA        115.5982   92.1158   71.4931 C.3       5 GLY6        0.0000 
     68 CA        114.4052   92.6913   70.7891 C.3       5 GLY6        0.0000 
     69 CZ        113.6688   92.7609   72.0941 C.ar      4 PHE5        0.0000 
     70 CA        112.4758   93.3365   71.3901 C.3       5 GLY6        0.0000 
     71 CZ        111.7394   93.4061   72.6950 C.ar      4 PHE5        0.0000 
     72 CZ        111.0030   93.4757   73.9999 C.ar      4 PHE5        0.0000 
     73 O         110.2665   93.5454   75.3048 O.2       2 ALA2        0.0000 
     74 N         110.5464   93.9816   71.9910 N.2       2 ALA2        0.0000 
     75 OG        109.8100   94.0513   73.2959 O.2       1 SER1        0.0000 
     76 CA        108.2099   89.9009   72.6144 C.3       5 GLY6        0.0000 
     77 NZ        107.0169   90.4765   71.9104 N.2       3 LYS4        0.0000 
     78 CZ        120.7772   94.5395   74.2866 C.ar      4 PHE5        0.0000 
     79 DU        120.0408   94.6091   75.5915 H         6 CUB7        0.0000 
     80 DU        119.3044   94.6787   76.8964 H         6 CUB7        0.0000 
     81 DU        118.5679   94.7484   78.2013 H         6 CUB7        0.0000 
     82 CZ        119.5843   95.1150   73.5826 C.ar      4 PHE5        0.0000 
     83 CA        118.8478   95.1846   74.8875 C.3       5 GLY6        0.0000 
     84 CZ        118.1114   95.2543   76.1924 C.ar      4 PHE5        0.0000 
     85 CZ        117.3750   95.3239   77.4973 C.ar      4 PHE5        0.0000 
     86 O         116.6385   95.3935   78.8023 O.2       2 ALA2        0.0000 
     87 CA        118.3913   95.6906   72.8786 C.3       5 GLY6        0.0000 
     88 CA        117.6548   95.7602   74.1835 C.3       5 GLY6        0.0000 
     89 CZ        116.9184   95.8298   75.4885 C.ar      4 PHE5        0.0000 
     90 NZ        116.1820   95.8995   76.7934 N.2       3 LYS4        0.0000 
     91 CA        116.4619   96.3357   73.4796 C.3       5 GLY6        0.0000 
     92 CA        115.7254   96.4054   74.7845 C.3       5 GLY6        0.0000 
     93 CA        114.5325   96.9809   74.0805 C.3       5 GLY6        0.0000 
@<TRIPOS>BOND
@<TRIPOS>SUBSTRUCTURE
     1 SER1       16 GROUP   
     2 ALA2        4 GROUP   
     3 LYS4        3 GROUP   
     4 PHE5       10 GROUP   
     5 GLY6        1 GROUP   
     6 CUB7       12 GROUP   
@<TRIPOS>SET

