#    Name: 1k9s_FM2_3_INTS_M
#    Modification time : Tue Mar 25 09:44:42 2014

@<TRIPOS>MOLECULE
1k9s_FM2_3_INTS_M
   63     0     9     0     0
SMALL
NO_CHARGES


@<TRIPOS>ATOM
      1 CA        115.4195   94.1710   70.0415 C.3       3 GLC5        0.0000 
      2 CA        114.4190   93.3000   71.6160 C.3       9 GLL5        0.0000 
      3 CA        116.4200   95.0420   68.4670 C.3       6 GLP5        0.0000 
      4 CA        113.1705   93.7895   69.9845 C.3       3 GLC5        0.0000 
      5 CA        111.9220   94.2790   68.3530 C.3       6 GLP5        0.0000 
      6 CA        113.5670   91.7465   70.6015 C.3       3 GLC5        0.0000 
      7 CA        112.7150   90.1930   69.5870 C.3       6 GLP5        0.0000 
      8 CA        112.1635   94.1860   70.3785 C.3       3 GLC5        0.0000 
      9 CA        112.4050   94.0930   72.4040 C.3       9 GLL5        0.0000 
     10 O         111.1760   97.0020   74.5495 O.2       1 ALC1        0.0000 
     11 O         111.9840   95.8600   73.7980 O.2       7 ALL1        0.0000 
     12 O         110.3680   98.1440   75.3010 O.2       4 ALP1        0.0000 
     13 O         112.3745   96.8550   74.9925 O.2       1 ALC1        0.0000 
     14 O         112.7650   97.8500   76.1870 O.2       4 ALP1        0.0000 
     15 N         109.4245   95.4705   73.6425 N.am      2 SEC2        0.0000 
     16 N         110.8710   95.2600   73.4490 N.am      8 SEL2        0.0000 
     17 N         107.9780   95.6810   73.8360 N.am      5 SEP2        0.0000 
     18 CA        108.7050   95.2315   72.9485 C.3       3 GLC5        0.0000 
     19 CA        109.7890   93.4200   72.1770 C.3       9 GLL5        0.0000 
     20 CA        107.6210   97.0430   73.7200 C.3       6 GLP5        0.0000 
     21 CA        110.1540   94.1425   70.1345 C.3       3 GLC5        0.0000 
     22 CA        110.5190   94.8650   68.0920 C.3       6 GLP5        0.0000 
     23 CA        110.9580   93.2365   69.7960 C.3       3 GLC5        0.0000 
     24 CA        109.9940   92.1940   71.2390 C.3       9 GLL5        0.0000 
     25 CA        111.3545   91.1935   70.4130 C.3       3 GLC5        0.0000 
     26 N         110.2145   92.2260   68.9230 N.am      2 SEC2        0.0000 
     27 N         109.3270   92.4300   70.0440 N.am      8 SEL2        0.0000 
     28 N         111.1020   92.0220   67.8020 N.am      5 SEP2        0.0000 
     29 O         108.4500   91.8060   69.2370 O.2       1 ALC1        0.0000 
     30 O         109.3270   92.4300   70.0440 O.2       7 ALL1        0.0000 
     31 O         107.5730   91.1820   68.4300 O.2       4 ALP1        0.0000 
     32 O         108.6150   90.8590   69.7580 O.2       1 ALC1        0.0000 
     33 O         107.9030   89.2880   69.4720 O.2       4 ALP1        0.0000 
     34 CA        108.6685   89.2800   72.8955 C.3       3 GLC5        0.0000 
     35 CA        109.4600   90.9820   72.0610 C.3       9 GLL5        0.0000 
     36 CA        107.8770   87.5780   73.7300 C.3       6 GLP5        0.0000 
     37 CA        111.1185   90.1070   71.6050 C.3       3 GLC5        0.0000 
     38 CA        112.7770   89.2320   71.1490 C.3       6 GLP5        0.0000 
     39 O         108.0345   89.9065   70.5615 O.2       1 ALC1        0.0000 
     40 O         108.1660   90.5250   71.6510 O.2       7 ALL1        0.0000 
     41 CA        112.5230   91.6540   74.6775 C.3       3 GLC5        0.0000 
     42 CA        110.7720   91.1260   74.2120 C.3       9 GLL5        0.0000 
     43 CA        114.2740   92.1820   75.1430 C.3       6 GLP5        0.0000 
     44 CA        111.7745   90.1790   72.6805 C.3       3 GLC5        0.0000 
     45 CA        110.7935   90.3025   76.1145 C.3       3 GLC5        0.0000 
     46 CA        110.8150   89.4790   78.0170 C.3       6 GLP5        0.0000 
     47 CA        111.7885   89.1795   74.3070 C.3       3 GLC5        0.0000 
     48 CA        112.8050   87.2330   74.4020 C.3       6 GLP5        0.0000 
     49 N         111.3180   91.1170   76.3265 N.am      2 SEC2        0.0000 
     50 N         110.9300   91.9760   75.3350 N.am      8 SEL2        0.0000 
     51 N         111.7060   90.2580   77.3180 N.am      5 SEP2        0.0000 
     52 CA        115.3810   93.2515   73.7350 C.3       3 GLC5        0.0000 
     53 CA        116.4880   94.3210   72.3270 C.3       9 GLL5        0.0000 
     54 CA        116.4540   94.6815   70.3970 C.3       3 GLC5        0.0000 
     55 CA        117.5275   96.1935   71.9560 C.3       3 GLC5        0.0000 
     56 CA        118.5670   98.0660   71.5850 C.3       6 GLP5        0.0000 
     57 CA        111.8442   96.2835   71.9045 C.3       3 GLC5        0.0000 
     58 CA        112.9620   95.1450   73.1600 C.3       9 GLL5        0.0000 
     59 CA        111.0050   97.9480   71.0270 C.3       6 GLP5        0.0000 
     60 CA        114.0523   97.1593   72.6788 C.3       3 GLC5        0.0000 
     61 CA        114.4300   99.0930   72.1930 C.3       6 GLP5        0.0000 
     62 CA        109.5613   89.6567   74.4507 C.3       3 GLC5        0.0000 
     63 CA        109.0160   88.0260   75.0520 C.3       6 GLP5        0.0000 
@<TRIPOS>BOND
@<TRIPOS>SUBSTRUCTURE
     1 ALC1       10 GROUP        1 X    ALC  0     ROOT ALC X 1
     2 SEC2       15 GROUP        1 X    SEC  0     **** SEC X 2
     3 GLC5        1 GROUP        1 X    GLC  0     **** GLC X 6
     4 ALP1       12 GROUP        1 Y    ALP  0     ROOT ALP Y 8
     5 SEP2       17 GROUP        1 Y    SEP  0     **** SEP Y 9
     6 GLP5        3 GROUP        1 Y    GLP  0     **** GLP Y 13
     7 ALL1       11 GROUP        1 Z    ALL  0     ROOT ALL Z 15
     8 SEL2       16 GROUP        1 Z    SEL  0     **** SEL Z 16
     9 GLL5        2 GROUP        1 Z    GLL  0     **** GLL Z 20
@<TRIPOS>SET

