#    Name: 1k9s_FM2_3_ligand
#    Modification time : Tue Mar 25 09:44:42 2014

@<TRIPOS>MOLECULE
1k9s_FM2_3_ligand
   36    38     1     0     0
SMALL
NO_CHARGES


@<TRIPOS>ATOM
      1 N1        115.0560   94.3230   72.3600 N.pl3     1 FM29905     0.0000 
      2 C2        114.4190   93.3000   71.6160 C.ar      1 FM29905     0.0000 
      3 N3        113.0580   93.1500   71.6180 N.ar      1 FM29905     0.0000 
      4 C4        112.4050   94.0930   72.4040 C.ar      1 FM29905     0.0000 
      5 C5        112.9620   95.1450   73.1600 C.ar      1 FM29905     0.0000 
      6 C6        114.3870   95.3060   73.1690 C.ar      1 FM29905     0.0000 
      7 N6        115.0370   96.1790   73.7980 N.pl3     1 FM29905     0.0000 
      8 N7        111.9840   95.8600   73.7980 N.pl3     1 FM29905     0.0000 
      9 N8        110.8710   95.2600   73.4490 N.2       1 FM29905     0.0000 
     10 C9        111.0420   94.1740   72.6100 C.2       1 FM29905     0.0000 
     11 C1'       109.7890   93.4200   72.1770 C.3       1 FM29905     0.0000 
     12 C2'       109.9940   92.1940   71.2390 C.3       1 FM29905     0.0000 
     13 O2'       109.3270   92.4300   70.0440 O.3       1 FM29905     0.0000 
     14 C3'       109.4600   90.9820   72.0610 C.3       1 FM29905     0.0000 
     15 O3'       108.1660   90.5250   71.6510 O.3       1 FM29905     0.0000 
     16 C4'       109.4410   91.4490   73.4870 C.3       1 FM29905     0.0000 
     17 O4'       109.2000   92.9090   73.3850 O.3       1 FM29905     0.0000 
     18 C5'       110.7720   91.1260   74.2120 C.3       1 FM29905     0.0000 
     19 O5'       110.9300   91.9760   75.3350 O.3       1 FM29905     0.0000 
     20 C11       116.4880   94.3210   72.3270 C.3       1 FM29905     0.0000 
     21 H         115.0178   92.6567   71.0605 H         1 FM29905     0.0000 
     22 H         114.4964   96.8413   74.3168 H         1 FM29905     0.0000 
     23 H         116.0326   96.1279   73.7195 H         1 FM29905     0.0000 
     24 H         112.1180   96.6088   74.3545 H         1 FM29905     0.0000 
     25 H         109.1033   94.1013   71.7068 H         1 FM29905     0.0000 
     26 H         111.0568   92.0723   71.1398 H         1 FM29905     0.0000 
     27 H         110.2131   90.2022   71.9837 H         1 FM29905     0.0000 
     28 H         108.6293   90.9830   73.9969 H         1 FM29905     0.0000 
     29 H         111.5764   91.2514   73.4776 H         1 FM29905     0.0000 
     30 H         110.7360   90.0667   74.4925 H         1 FM29905     0.0000 
     31 H         116.8731   95.0655   72.8724 H         1 FM29905     0.0000 
     32 H         116.8666   93.4681   72.6865 H         1 FM29905     0.0000 
     33 H         116.8382   94.4278   71.3964 H         1 FM29905     0.0000 
     34 H         108.5487   91.8022   70.0538 H         1 FM29905     0.0000 
     35 H         108.3415   89.7023   71.1103 H         1 FM29905     0.0000 
     36 H         110.1222   92.5654   75.3290 H         1 FM29905     0.0000 
@<TRIPOS>BOND
     1    2    1 ar   
     2    6    1 ar   
     3   20    1 1    
     4    3    2 ar   
     5   21    2 1    
     6    4    3 ar   
     7    5    4 ar   
     8   10    4 1    
     9    6    5 ar   
    10    8    5 1    
    11    7    6 1    
    12   22    7 1    
    13   23    7 1    
    14    9    8 1    
    15   24    8 1    
    16   10    9 2    
    17   11   10 1    
    18   12   11 1    
    19   17   11 1    
    20   25   11 1    
    21   13   12 1    
    22   14   12 1    
    23   26   12 1    
    24   34   13 1    
    25   15   14 1    
    26   16   14 1    
    27   27   14 1    
    28   35   15 1    
    29   17   16 1    
    30   18   16 1    
    31   28   16 1    
    32   19   18 1    
    33   29   18 1    
    34   30   18 1    
    35   36   19 1    
    36   31   20 1    
    37   32   20 1    
    38   33   20 1    
@<TRIPOS>SUBSTRUCTURE
     1 FM29905     1 GROUP   
@<TRIPOS>SET

