#    Name: 2xfk_AA9_1_INTS_M
#    Modification time : Tue Mar 25 05:58:37 2014

@<TRIPOS>MOLECULE
2xfk_AA9_1_INTS_M
   89     0     9     0     0
SMALL
NO_CHARGES


@<TRIPOS>ATOM
      1 CA         25.8110   -4.4070   33.4985 C.3       3 GLC5        0.0000 
      2 CA         27.5630   -3.5650   34.1790 C.3       9 GLL5        0.0000 
      3 CA         24.0590   -5.2490   32.8180 C.3       6 GLP5        0.0000 
      4 CA         29.7015   -5.0835   32.7285 C.3       3 GLC5        0.0000 
      5 CA         29.0610   -3.7920   34.0990 C.3       9 GLL5        0.0000 
      6 CA         30.3420   -6.3750   31.3580 C.3       6 GLP5        0.0000 
      7 CA         29.0895   -3.0425   38.0870 C.3       3 GLC5        0.0000 
      8 CA         30.6320   -2.0560   36.9640 C.3       9 GLL5        0.0000 
      9 CA         27.5470   -4.0290   39.2100 C.3       6 GLP5        0.0000 
     10 N          31.5400    2.9270   35.1840 N.am      2 SEC2        0.0000 
     11 N          31.1230    2.0300   34.2560 N.am      8 SEL2        0.0000 
     12 N          31.9570    3.8240   36.1120 N.am      5 SEP2        0.0000 
     13 N          32.5955    1.9980   34.1490 N.am      2 SEC2        0.0000 
     14 N          34.0680    1.9660   34.0420 N.am      5 SEP2        0.0000 
     15 O          27.9070    0.5750   34.1110 O.2       1 ALC1        0.0000 
     16 O          28.9870    1.3640   33.7580 O.2       7 ALL1        0.0000 
     17 O          26.8270   -0.2140   34.4640 O.2       4 ALP1        0.0000 
     18 CA         26.4220    1.1535   32.7675 C.3       3 GLC5        0.0000 
     19 CA         28.1680    1.5970   31.4960 C.3       9 GLL5        0.0000 
     20 CA         24.6760    0.7100   34.0390 C.3       6 GLP5        0.0000 
     21 CA         31.2275    2.0480   31.1090 C.3       3 GLC5        0.0000 
     22 CA         30.2070    0.2350   30.9830 C.3       9 GLL5        0.0000 
     23 CA         32.2480    3.8610   31.2350 C.3       6 GLP5        0.0000 
     24 CA         30.1905   -4.2560   30.9810 C.3       3 GLC5        0.0000 
     25 CA         30.0390   -2.1370   30.6040 C.3       9 GLL5        0.0000 
     26 CA         26.3395    2.1115   33.6135 C.3       3 GLC5        0.0000 
     27 CA         28.0030    3.5130   33.1880 C.3       9 GLL5        0.0000 
     28 O          26.0025    3.9525   32.2490 O.2       1 ALC1        0.0000 
     29 O          27.6660    4.4140   32.1310 O.2       7 ALL1        0.0000 
     30 O          24.3390    3.4910   32.3670 O.2       4 ALP1        0.0000 
     31 O          26.6355    4.1000   31.3585 O.2       1 ALC1        0.0000 
     32 O          25.6050    3.7860   30.5860 O.2       4 ALP1        0.0000 
     33 CA         27.9590    8.6390   35.0250 C.3       3 GLC5        0.0000 
     34 CA         28.6770    6.6800   35.0680 C.3       9 GLL5        0.0000 
     35 CA         27.2410   10.5980   34.9820 C.3       6 GLP5        0.0000 
     36 CA         31.2605    6.0490   36.6290 C.3       3 GLC5        0.0000 
     37 CA         29.3050    6.3930   36.4160 C.3       9 GLL5        0.0000 
     38 CA         33.2160    5.7050   36.8420 C.3       6 GLP5        0.0000 
     39 N          32.1370    5.7485   34.0020 N.am      2 SEC2        0.0000 
     40 N          30.9010    6.8360   34.1300 N.am      8 SEL2        0.0000 
     41 N          33.3730    4.6610   33.8740 N.am      5 SEP2        0.0000 
     42 O          27.7430    7.7115   32.9665 O.2       1 ALC1        0.0000 
     43 O          29.1840    7.9150   33.0650 O.2       7 ALL1        0.0000 
     44 O          26.3020    7.5080   32.8680 O.2       4 ALP1        0.0000 
     45 CA         30.7055    7.8175   28.0185 C.3       3 GLC5        0.0000 
     46 CA         30.1140    8.6680   29.4700 C.3       9 GLL5        0.0000 
     47 CA         31.2970    6.9670   26.5670 C.3       6 GLP5        0.0000 
     48 CA         30.8870   10.9730   27.6845 C.3       3 GLC5        0.0000 
     49 CA         30.3660   10.1480   29.6630 C.3       9 GLL5        0.0000 
     50 CA         31.4080   11.7980   25.7060 C.3       6 GLP5        0.0000 
     51 CA         29.2820   10.7330   33.6460 C.3       3 GLC5        0.0000 
     52 CA         30.4750    9.7930   32.1570 C.3       9 GLL5        0.0000 
     53 CA         28.0890   11.6730   35.1350 C.3       6 GLP5        0.0000 
     54 CA         31.8870    1.9300   40.3030 C.3       3 GLC5        0.0000 
     55 CA         33.2700    1.2070   39.0430 C.3       9 GLL5        0.0000 
     56 CA         30.5040    2.6530   41.5630 C.3       6 GLP5        0.0000 
     57 N          28.5350   -1.7350   40.5920 N.am      2 SEC2        0.0000 
     58 N          29.8380   -1.6560   39.8980 N.am      8 SEL2        0.0000 
     59 N          27.2320   -1.8140   41.2860 N.am      5 SEP2        0.0000 
     60 CA         27.6400   -5.6398   33.8035 C.3       3 GLC5        0.0000 
     61 CA         26.9680   -7.6010   33.4680 C.3       6 GLP5        0.0000 
     62 CA         32.4415   -0.3625   35.5442 C.3       3 GLC5        0.0000 
     63 CA         30.9370    0.2760   36.5180 C.3       9 GLL5        0.0000 
     64 CA         33.8720   -0.4560   34.1550 C.3       6 GLP5        0.0000 
     65 CA         29.4875    0.4905   38.1187 C.3       3 GLC5        0.0000 
     66 CA         27.9640    1.2500   39.3040 C.3       6 GLP5        0.0000 
     67 CA         31.9905   -0.4965   34.6212 C.3       3 GLC5        0.0000 
     68 CA         30.3320    0.0870   35.2900 C.3       9 GLL5        0.0000 
     69 CA         28.4655   -0.2089   36.2528 C.3       3 GLC5        0.0000 
     70 CA         26.7880    0.3920   37.2060 C.3       6 GLP5        0.0000 
     71 CA         29.3155    3.2643   31.0455 C.3       3 GLC5        0.0000 
     72 CA         28.8060    2.3140   32.6780 C.3       9 GLL5        0.0000 
     73 CA         30.1440    4.5730   30.0040 C.3       6 GLP5        0.0000 
     74 CA         26.8635   -2.2980   30.4880 C.3       3 GLC5        0.0000 
     75 CA         28.0800   -0.8700   31.0830 C.3       9 GLL5        0.0000 
     76 CA         25.3480   -3.1180   30.0350 C.3       6 GLP5        0.0000 
     77 CA         27.4591    0.8217   29.6852 C.3       3 GLC5        0.0000 
     78 CA         26.6270    1.6070   28.1610 C.3       6 GLP5        0.0000 
     79 CA         29.2668    4.2570   31.8455 C.3       3 GLC5        0.0000 
     80 CA         27.5175    7.4017   36.8995 C.3       3 GLC5        0.0000 
     81 CA         26.0440    8.2670   38.0570 C.3       6 GLP5        0.0000 
     82 CA         27.9832    7.6152   29.8470 C.3       3 GLC5        0.0000 
     83 CA         29.3110    8.1870   30.6640 C.3       9 GLL5        0.0000 
     84 CA         26.2540    6.8030   29.6270 C.3       6 GLP5        0.0000 
     85 CA         30.0221    6.5198   30.1979 C.3       3 GLC5        0.0000 
     86 CA         33.5972    2.8742   37.6910 C.3       3 GLC5        0.0000 
     87 CA         33.2880    4.2760   36.3530 C.3       6 GLP5        0.0000 
     88 CA         34.2957   -0.5062   36.0965 C.3       3 GLC5        0.0000 
     89 CA         35.3570   -0.2840   38.0210 C.3       9 GLL5        0.0000 
@<TRIPOS>BOND
@<TRIPOS>SUBSTRUCTURE
     1 ALC1       15 GROUP        1 X    ALC  0     ROOT ALC X 1
     2 SEC2       10 GROUP        1 X    SEC  0     **** SEC X 2
     3 GLC5        1 GROUP        1 X    GLC  0     **** GLC X 6
     4 ALP1       17 GROUP        1 Y    ALP  0     ROOT ALP Y 8
     5 SEP2       12 GROUP        1 Y    SEP  0     **** SEP Y 9
     6 GLP5        3 GROUP        1 Y    GLP  0     **** GLP Y 13
     7 ALL1       16 GROUP        1 Z    ALL  0     ROOT ALL Z 15
     8 SEL2       11 GROUP        1 Z    SEL  0     **** SEL Z 16
     9 GLL5        2 GROUP        1 Z    GLL  0     **** GLL Z 20
@<TRIPOS>SET

