#    Name: 2xfk_AA9_1_ligand
#    Modification time : Tue Mar 25 05:58:37 2014

@<TRIPOS>MOLECULE
2xfk_AA9_1_ligand
   92    95     1     0     0
SMALL
NO_CHARGES


@<TRIPOS>ATOM
      1 C1         27.5630   -3.5650   34.1790 C.3       1 AA9500      0.0000 
      2 C2         29.0610   -3.7920   34.0990 C.3       1 AA9500      0.0000 
      3 N3         29.6140   -3.5750   35.4280 N.pl3     1 AA9500      0.0000 
      4 C4         30.0220   -2.2520   35.7330 C.ar      1 AA9500      0.0000 
      5 C5         30.6320   -2.0560   36.9640 C.ar      1 AA9500      0.0000 
      6 C6         31.0850   -0.8140   37.3490 C.ar      1 AA9500      0.0000 
      7 C7         30.9370    0.2760   36.5180 C.ar      1 AA9500      0.0000 
      8 C8         30.3320    0.0870   35.2900 C.ar      1 AA9500      0.0000 
      9 C9         29.8860   -1.1610   34.8850 C.ar      1 AA9500      0.0000 
     10 C10        30.1900    1.2500   34.4000 C.2       1 AA9500      0.0000 
     11 O11        31.1230    2.0300   34.2560 O.2       1 AA9500      0.0000 
     12 N12        28.9870    1.3640   33.7580 N.am      1 AA9500      0.0000 
     13 C13        28.8060    2.3140   32.6780 C.3       1 AA9500      0.0000 
     14 C14        28.1680    1.5970   31.4960 C.3       1 AA9500      0.0000 
     15 C15        28.8370    0.2890   31.1760 C.ar      1 AA9500      0.0000 
     16 C16        30.2070    0.2350   30.9830 C.ar      1 AA9500      0.0000 
     17 C17        30.7950   -0.9860   30.6990 C.ar      1 AA9500      0.0000 
     18 C18        30.0390   -2.1370   30.6040 C.ar      1 AA9500      0.0000 
     19 C19        28.6780   -2.0860   30.7990 C.ar      1 AA9500      0.0000 
     20 C20        28.0800   -0.8700   31.0830 C.ar      1 AA9500      0.0000 
     21 C21        28.0030    3.5130   33.1880 C.3       1 AA9500      0.0000 
     22 O22        27.6660    4.4140   32.1310 O.3       1 AA9500      0.0000 
     23 C23        28.7760    4.3690   34.1860 C.3       1 AA9500      0.0000 
     24 N24        27.9320    5.5060   34.5710 N.4       1 AA9500      0.0000 
     25 C25        28.6770    6.6800   35.0680 C.3       1 AA9500      0.0000 
     26 C26        29.3050    6.3930   36.4160 C.3       1 AA9500      0.0000 
     27 C27        29.7100    7.1320   34.0590 C.2       1 AA9500      0.0000 
     28 O28        30.9010    6.8360   34.1300 O.2       1 AA9500      0.0000 
     29 N29        29.1840    7.9150   33.0650 N.am      1 AA9500      0.0000 
     30 C30        30.0620    8.3430   31.9630 C.3       1 AA9500      0.0000 
     31 C31        29.3110    8.1870   30.6640 C.3       1 AA9500      0.0000 
     32 C32        30.1140    8.6680   29.4700 C.3       1 AA9500      0.0000 
     33 C33        30.3660   10.1480   29.6630 C.3       1 AA9500      0.0000 
     34 C34        31.1780   10.3720   30.9270 C.3       1 AA9500      0.0000 
     35 C35        30.4750    9.7930   32.1570 C.3       1 AA9500      0.0000 
     36 N36        31.7320   -0.6130   38.6070 N.pl3     1 AA9500      0.0000 
     37 C37        33.0590   -0.0680   38.5710 C.ar      1 AA9500      0.0000 
     38 C38        33.2700    1.2070   39.0430 C.ar      1 AA9500      0.0000 
     39 C39        34.5430    1.7380   39.0150 C.ar      1 AA9500      0.0000 
     40 C40        35.5790    0.9900   38.5040 C.ar      1 AA9500      0.0000 
     41 C41        35.3570   -0.2840   38.0210 C.ar      1 AA9500      0.0000 
     42 C42        34.0820   -0.8290   38.0550 C.ar      1 AA9500      0.0000 
     43 S43        31.2370   -1.3210   40.0560 S.o2      1 AA9500      0.0000 
     44 C44        32.1890   -2.8120   40.1570 C.3       1 AA9500      0.0000 
     45 O45        29.8380   -1.6560   39.8980 O.2       1 AA9500      0.0000 
     46 O46        31.6580   -0.4500   41.1410 O.2       1 AA9500      0.0000 
     47 H          29.4802   -3.0936   33.3815 H         1 AA9500      0.0000 
     48 H          29.2407   -4.8078   33.7611 H         1 AA9500      0.0000 
     49 H          29.6931   -4.3213   36.0696 H         1 AA9500      0.0000 
     50 H          30.7472   -2.8668   37.6056 H         1 AA9500      0.0000 
     51 H          31.2653    1.1995   36.8010 H         1 AA9500      0.0000 
     52 H          29.4552   -1.2800   33.9589 H         1 AA9500      0.0000 
     53 H          28.1781    0.7835   34.0191 H         1 AA9500      0.0000 
     54 H          29.7882    2.6795   32.3600 H         1 AA9500      0.0000 
     55 H          28.2106    2.2571   30.6162 H         1 AA9500      0.0000 
     56 H          27.1047    1.4214   31.7200 H         1 AA9500      0.0000 
     57 H          30.7751    1.0826   31.0491 H         1 AA9500      0.0000 
     58 H          31.8227   -1.0347   30.5553 H         1 AA9500      0.0000 
     59 H          30.4975   -3.0366   30.3862 H         1 AA9500      0.0000 
     60 H          28.1087   -2.9380   30.7355 H         1 AA9500      0.0000 
     61 H          27.0560   -0.8237   31.2279 H         1 AA9500      0.0000 
     62 H          27.1089    3.1629   33.6807 H         1 AA9500      0.0000 
     63 H          29.6926    4.7089   33.7135 H         1 AA9500      0.0000 
     64 H          29.0209    3.7579   35.0494 H         1 AA9500      0.0000 
     65 H          27.9644    7.5112   35.2063 H         1 AA9500      0.0000 
     66 H          28.2207    8.2170   33.0461 H         1 AA9500      0.0000 
     67 H          30.9422    7.7295   31.9328 H         1 AA9500      0.0000 
     68 H          28.3712    8.7541   30.7158 H         1 AA9500      0.0000 
     69 H          29.0505    7.1295   30.5182 H         1 AA9500      0.0000 
     70 H          29.5491    8.5096   28.5669 H         1 AA9500      0.0000 
     71 H          31.0524    8.1412   29.4295 H         1 AA9500      0.0000 
     72 H          29.4167   10.6709   29.7474 H         1 AA9500      0.0000 
     73 H          30.9139   10.5383   28.8091 H         1 AA9500      0.0000 
     74 H          31.3303   11.4435   31.0763 H         1 AA9500      0.0000 
     75 H          32.1559    9.8967   30.8200 H         1 AA9500      0.0000 
     76 H          31.1494    9.8658   33.0186 H         1 AA9500      0.0000 
     77 H          29.5862   10.3971   32.3753 H         1 AA9500      0.0000 
     78 H          32.4866    1.7608   39.4138 H         1 AA9500      0.0000 
     79 H          34.7151    2.6871   39.3741 H         1 AA9500      0.0000 
     80 H          36.5374    1.3859   38.4807 H         1 AA9500      0.0000 
     81 H          36.1388   -0.8340   37.6335 H         1 AA9500      0.0000 
     82 H          33.9126   -1.7720   37.7044 H         1 AA9500      0.0000 
     83 H          27.3435   -2.6362   34.4776 H         1 AA9500      0.0000 
     84 H          27.1190   -3.7008   33.2933 H         1 AA9500      0.0000 
     85 H          27.1264   -4.1913   34.8248 H         1 AA9500      0.0000 
     86 H          29.9430    5.6242   36.3724 H         1 AA9500      0.0000 
     87 H          29.8167    7.1793   36.7623 H         1 AA9500      0.0000 
     88 H          28.6172    6.1644   37.1050 H         1 AA9500      0.0000 
     89 H          33.1715   -2.6257   40.1622 H         1 AA9500      0.0000 
     90 H          31.9841   -3.3279   40.9888 H         1 AA9500      0.0000 
     91 H          32.0101   -3.4200   39.3835 H         1 AA9500      0.0000 
     92 H          26.8946    3.9847   31.6613 H         1 AA9500      0.0000 
@<TRIPOS>BOND
     1    2    1 1    
     2   83    1 1    
     3   84    1 1    
     4   85    1 1    
     5    3    2 1    
     6   47    2 1    
     7   48    2 1    
     8    4    3 1    
     9   49    3 1    
    10    5    4 ar   
    11    9    4 ar   
    12    6    5 ar   
    13   50    5 1    
    14    7    6 ar   
    15   36    6 1    
    16    8    7 ar   
    17   51    7 1    
    18    9    8 ar   
    19   10    8 1    
    20   52    9 1    
    21   11   10 2    
    22   12   10 am   
    23   13   12 1    
    24   53   12 1    
    25   14   13 1    
    26   21   13 1    
    27   54   13 1    
    28   15   14 1    
    29   55   14 1    
    30   56   14 1    
    31   16   15 ar   
    32   20   15 ar   
    33   17   16 ar   
    34   57   16 1    
    35   18   17 ar   
    36   58   17 1    
    37   19   18 ar   
    38   59   18 1    
    39   20   19 ar   
    40   60   19 1    
    41   61   20 1    
    42   22   21 1    
    43   23   21 1    
    44   62   21 1    
    45   92   22 1    
    46   24   23 1    
    47   63   23 1    
    48   64   23 1    
    49   25   24 1    
    50   26   25 1    
    51   27   25 1    
    52   65   25 1    
    53   86   26 1    
    54   87   26 1    
    55   88   26 1    
    56   28   27 2    
    57   29   27 am   
    58   30   29 1    
    59   66   29 1    
    60   31   30 1    
    61   35   30 1    
    62   67   30 1    
    63   32   31 1    
    64   68   31 1    
    65   69   31 1    
    66   33   32 1    
    67   70   32 1    
    68   71   32 1    
    69   34   33 1    
    70   72   33 1    
    71   73   33 1    
    72   35   34 1    
    73   74   34 1    
    74   75   34 1    
    75   76   35 1    
    76   77   35 1    
    77   37   36 1    
    78   43   36 1    
    79   38   37 ar   
    80   42   37 ar   
    81   39   38 ar   
    82   78   38 1    
    83   40   39 ar   
    84   79   39 1    
    85   41   40 ar   
    86   80   40 1    
    87   42   41 ar   
    88   81   41 1    
    89   82   42 1    
    90   44   43 1    
    91   45   43 2    
    92   46   43 2    
    93   89   44 1    
    94   90   44 1    
    95   91   44 1    
@<TRIPOS>SUBSTRUCTURE
     1 AA9500      1 GROUP   
@<TRIPOS>SET

