#    Name: 2oap_ANP_2_INTS_M
#    Modification time : Tue Mar 25 22:09:49 2014

@<TRIPOS>MOLECULE
2oap_ANP_2_INTS_M
   66     0    12     0     0
SMALL
NO_CHARGES


@<TRIPOS>ATOM
      1 NZ          1.7685   45.6435  177.8460 N.4       2 LYC4        0.0000 
      2 NZ          1.9330   45.8880  179.5010 N.4      10 LYL4        0.0000 
      3 NZ          1.6040   45.3990  176.1910 N.4       6 LYP4        0.0000 
      4 Zn          3.0175   45.0505  179.6715 Zn        3 ZIC7        0.0000 
      5 Zn          1.9330   45.8880  179.5010 Zn       11 ZIL7        0.0000 
      6 Zn          4.1020   44.2130  179.8420 Zn        7 ZIP7        0.0000 
      7 NZ          0.3460   43.1135  181.7365 N.4       2 LYC4        0.0000 
      8 NZ          1.2650   44.0410  181.1570 N.4      10 LYL4        0.0000 
      9 NZ         -0.3770   40.9600  182.8010 N.4       6 LYP4        0.0000 
     10 N           0.3460   43.1135  181.7365 N.am      1 SEC2        0.0000 
     11 N           1.2650   44.0410  181.1570 N.am      9 SEL2        0.0000 
     12 N          -0.5730   42.1860  182.3160 N.am      5 SEP2        0.0000 
     13 NZ         -0.8805   46.6190  181.4715 N.4       2 LYC4        0.0000 
     14 NZ         -0.5050   45.3980  179.9790 N.4      10 LYL4        0.0000 
     15 NZ         -1.2560   47.8400  182.9640 N.4       6 LYP4        0.0000 
     16 N          -1.0550   44.5675  178.8015 N.am      1 SEC2        0.0000 
     17 N          -0.5050   45.3980  179.9790 N.am      9 SEL2        0.0000 
     18 N          -1.6050   43.7370  177.6240 N.am      5 SEP2        0.0000 
     19 NZ          2.4505   44.4005  177.2080 N.4       2 LYC4        0.0000 
     20 NZ          3.2970   43.4020  178.2250 N.4      10 LYL4        0.0000 
     21 Zn          3.6995   43.8075  179.0335 Zn        3 ZIC7        0.0000 
     22 Zn          3.2970   43.4020  178.2250 Zn       11 ZIL7        0.0000 
     23 N           2.4505   44.4005  177.2080 N.am      1 SEC2        0.0000 
     24 N           3.2970   43.4020  178.2250 N.am      9 SEL2        0.0000 
     25 N           1.6040   45.3990  176.1910 N.am      5 SEP2        0.0000 
     26 N           4.5770   42.7740  177.7885 N.am      1 SEC2        0.0000 
     27 N           5.8570   42.1460  177.3520 N.am      5 SEP2        0.0000 
     28 NZ          1.5290   43.7985  176.5215 N.4       2 LYC4        0.0000 
     29 NZ          1.4540   42.1980  176.8520 N.4      10 LYL4        0.0000 
     30 N           1.3425   41.2695  176.1775 N.am      1 SEC2        0.0000 
     31 N           1.4540   42.1980  176.8520 N.am      9 SEL2        0.0000 
     32 N           1.2310   40.3410  175.5030 N.am      5 SEP2        0.0000 
     33 N           2.5775   41.9030  176.1540 N.am      1 SEC2        0.0000 
     34 N           3.7010   41.6080  175.4560 N.am      5 SEP2        0.0000 
     35 N           1.5290   43.7985  176.5215 N.am      1 SEC2        0.0000 
     36 N           5.1445   39.7525  178.0245 N.am      1 SEC2        0.0000 
     37 N           3.6330   39.9450  178.1050 N.am      9 SEL2        0.0000 
     38 N           6.6560   39.5600  177.9440 N.am      5 SEP2        0.0000 
     39 N           4.3555   38.6575  178.4210 N.am      1 SEC2        0.0000 
     40 N           5.0780   37.3700  178.7370 N.am      5 SEP2        0.0000 
     41 CA          1.5670   39.0700  177.3365 C.3       4 GLC5        0.0000 
     42 CA          0.7000   38.5970  179.0330 C.3      12 GLL5        0.0000 
     43 CA          2.4340   39.5430  175.6400 C.3       8 GLP5        0.0000 
     44 N           2.4700   33.6335  181.8090 N.am      1 SEC2        0.0000 
     45 N           2.3560   34.5730  180.7590 N.am      9 SEL2        0.0000 
     46 N           2.5840   32.6940  182.8590 N.am      5 SEP2        0.0000 
     47 CA          4.6055   35.1500  176.4985 C.3       4 GLC5        0.0000 
     48 CA          2.8530   34.4570  175.6530 C.3      12 GLL5        0.0000 
     49 CA          6.3580   35.8430  177.3440 C.3       8 GLP5        0.0000 
     50 CA          1.5505   35.2165  174.6840 C.3       4 GLC5        0.0000 
     51 CA          0.2480   35.9760  173.7150 C.3       8 GLP5        0.0000 
     52 CA          3.5685   31.4525  174.4045 C.3       4 GLC5        0.0000 
     53 CA          3.0520   33.5070  174.6180 C.3      12 GLL5        0.0000 
     54 CA          4.0850   29.3980  174.1910 C.3       8 GLP5        0.0000 
     55 CA          1.9895   34.4410  173.5610 C.3       4 GLC5        0.0000 
     56 CA          0.9270   35.3750  172.5040 C.3       8 GLP5        0.0000 
     57 CA          3.6320   32.2780  176.2660 C.3       4 GLC5        0.0000 
     58 CA          1.5380   32.0960  175.7360 C.3      12 GLL5        0.0000 
     59 CA          5.7260   32.4600  176.7960 C.3       8 GLP5        0.0000 
     60 CA          2.5880   30.4010  175.6080 C.3       4 GLC5        0.0000 
     61 CA          3.6380   28.7060  175.4800 C.3       8 GLP5        0.0000 
     62 CA          0.3860   33.5715  175.0380 C.3       4 GLC5        0.0000 
     63 CA         -0.7660   35.0470  174.3400 C.3       8 GLP5        0.0000 
     64 CA          0.6000   34.5725  175.5030 C.3       4 GLC5        0.0000 
     65 CA          1.9660   34.0980  176.6660 C.3      12 GLL5        0.0000 
     66 CA          4.0926   33.2500  176.3484 C.3       4 GLC5        0.0000 
@<TRIPOS>BOND
@<TRIPOS>SUBSTRUCTURE
     1 SEC2       10 GROUP        1 X    SEC  0     ROOT SEC X 2
     2 LYC4        1 GROUP        1 X    LYC  0     **** LYC X 4
     3 ZIC7        4 GROUP        1 X    ZIC  0     **** ZIC X 5
     4 GLC5       41 GROUP        1 X    GLC  0     **** GLC X 6
     5 SEP2       12 GROUP        1 Y    SEP  0     ROOT SEP Y 9
     6 LYP4        3 GROUP        1 Y    LYP  0     **** LYP Y 11
     7 ZIP7        6 GROUP        1 Y    ZIP  0     **** ZIP Y 12
     8 GLP5       43 GROUP        1 Y    GLP  0     **** GLP Y 13
     9 SEL2       11 GROUP        1 Z    SEL  0     ROOT SEL Z 16
    10 LYL4        2 GROUP        1 Z    LYL  0     **** LYL Z 18
    11 ZIL7        5 GROUP        1 Z    ZIL  0     **** ZIL Z 19
    12 GLL5       42 GROUP        1 Z    GLL  0     **** GLL Z 20
@<TRIPOS>SET

