#    Name: 2oap_ANP_2_ligand
#    Modification time : Tue Mar 25 22:09:49 2014

@<TRIPOS>MOLECULE
2oap_ANP_2_ligand
   43    45     1     0     0
SMALL
NO_CHARGES


@<TRIPOS>ATOM
      1 PG          0.9160   44.8360  179.9380 P.3       1 ANP513      0.0000 
      2 O1G         1.9330   45.8880  179.5010 O.co2     1 ANP513      0.0000 
      3 O2G         1.2650   44.0410  181.1570 O.co2     1 ANP513      0.0000 
      4 O3G        -0.5050   45.3980  179.9790 O.co2     1 ANP513      0.0000 
      5 PB          1.9460   42.7370  178.1550 P.3       1 ANP513      0.0000 
      6 O1B         3.2970   43.4020  178.2250 O.co2     1 ANP513      0.0000 
      7 O2B         1.4540   42.1980  176.8520 O.co2     1 ANP513      0.0000 
      8 N3B         0.8580   43.7410  178.7590 N.4       1 ANP513      0.0000 
      9 PA          2.8480   40.2220  179.3610 P.3       1 ANP513      0.0000 
     10 O1A         3.6330   39.9450  178.1050 O.co2     1 ANP513      0.0000 
     11 O2A         3.6850   40.4060  180.6200 O.co2     1 ANP513      0.0000 
     12 O3A         2.0070   41.5910  179.2840 O.3       1 ANP513      0.0000 
     13 O5'         1.8360   39.0330  179.7490 O.3       1 ANP513      0.0000 
     14 C5'         0.7000   38.5970  179.0330 C.3       1 ANP513      0.0000 
     15 C4'         0.1600   37.2620  179.6470 C.3       1 ANP513      0.0000 
     16 O4'         0.2740   36.3910  178.4990 O.3       1 ANP513      0.0000 
     17 C3'         1.0220   36.6050  180.7350 C.3       1 ANP513      0.0000 
     18 O3'         0.1960   35.8630  181.6400 O.3       1 ANP513      0.0000 
     19 C2'         1.9540   35.6870  179.9860 C.3       1 ANP513      0.0000 
     20 O2'         2.3560   34.5730  180.7590 O.3       1 ANP513      0.0000 
     21 C1'         1.1480   35.3010  178.7510 C.3       1 ANP513      0.0000 
     22 N9          1.9400   35.1660  177.5230 N.pl3     1 ANP513      0.0000 
     23 C8          2.8040   36.0900  176.9830 C.2       1 ANP513      0.0000 
     24 N7          3.3730   35.7140  175.8700 N.2       1 ANP513      0.0000 
     25 C5          2.8530   34.4570  175.6530 C.ar      1 ANP513      0.0000 
     26 C6          3.0520   33.5070  174.6180 C.ar      1 ANP513      0.0000 
     27 N6          3.8680   33.7190  173.5800 N.pl3     1 ANP513      0.0000 
     28 N1          2.3680   32.3130  174.6890 N.ar      1 ANP513      0.0000 
     29 C2          1.5380   32.0960  175.7360 C.ar      1 ANP513      0.0000 
     30 N3          1.2710   32.9280  176.7720 N.ar      1 ANP513      0.0000 
     31 C4          1.9660   34.0980  176.6660 C.ar      1 ANP513      0.0000 
     32 H           0.9173   38.3905  177.9789 H         1 ANP513      0.0000 
     33 H          -0.1266   39.3154  179.0719 H         1 ANP513      0.0000 
     34 H          -0.8261   37.3722  179.9297 H         1 ANP513      0.0000 
     35 H           1.5886   37.3643  181.2097 H         1 ANP513      0.0000 
     36 H           2.7870   36.2879  179.6418 H         1 ANP513      0.0000 
     37 H           0.5923   34.4189  178.9493 H         1 ANP513      0.0000 
     38 H           2.9609   36.9769  177.4381 H         1 ANP513      0.0000 
     39 H           4.3125   34.6141  173.5454 H         1 ANP513      0.0000 
     40 H           3.9605   32.9634  172.9315 H         1 ANP513      0.0000 
     41 H           1.0192   31.1318  175.7480 H         1 ANP513      0.0000 
     42 H           0.7133   35.0307  181.8392 H         1 ANP513      0.0000 
     43 H           3.3262   34.7254  180.9474 H         1 ANP513      0.0000 
@<TRIPOS>BOND
     1    2    1 ar   
     2    3    1 ar   
     3    4    1 ar   
     4    8    1 1    
     5    6    5 ar   
     6    7    5 ar   
     7    8    5 1    
     8   12    5 1    
     9   10    9 ar   
    10   11    9 ar   
    11   12    9 1    
    12   13    9 1    
    13   14   13 1    
    14   15   14 1    
    15   32   14 1    
    16   33   14 1    
    17   16   15 1    
    18   17   15 1    
    19   34   15 1    
    20   21   16 1    
    21   18   17 1    
    22   19   17 1    
    23   35   17 1    
    24   42   18 1    
    25   20   19 1    
    26   21   19 1    
    27   36   19 1    
    28   43   20 1    
    29   22   21 1    
    30   37   21 1    
    31   23   22 1    
    32   31   22 1    
    33   24   23 2    
    34   38   23 1    
    35   25   24 1    
    36   26   25 ar   
    37   31   25 ar   
    38   27   26 1    
    39   28   26 ar   
    40   39   27 1    
    41   40   27 1    
    42   29   28 ar   
    43   30   29 ar   
    44   41   29 1    
    45   31   30 ar   
@<TRIPOS>SUBSTRUCTURE
     1 ANP513      1 GROUP   
@<TRIPOS>SET

