#    Name: 1v9n_NDP_1_INTS_M
#    Modification time : Tue Mar 25 07:36:14 2014

@<TRIPOS>MOLECULE
1v9n_NDP_1_INTS_M
   89     0    12     0     0
SMALL
NO_CHARGES


@<TRIPOS>ATOM
      1 CA         16.0015   69.6365   98.2605 C.3       4 GLC5        0.0000 
      2 CA         17.3540   69.6000   96.6880 C.3      12 GLL5        0.0000 
      3 CA         14.6490   69.6730   99.8330 C.3       8 GLP5        0.0000 
      4 CA         16.9720   71.1155   98.0980 C.3       4 GLC5        0.0000 
      5 CA         16.5900   72.6310   99.5080 C.3       8 GLP5        0.0000 
      6 N          14.2865   69.5465   96.1775 N.am      2 SEC2        0.0000 
      7 N          15.3230   70.4640   95.7590 N.am     10 SEL2        0.0000 
      8 N          13.2500   68.6290   96.5960 N.am      6 SEP2        0.0000 
      9 N          15.7920   73.4395   94.5090 N.am      2 SEC2        0.0000 
     10 N          16.7840   72.2900   94.2010 N.am     10 SEL2        0.0000 
     11 N          14.8000   74.5890   94.8170 N.am      6 SEP2        0.0000 
     12 CA         17.2825   72.2180   97.9190 C.3       4 GLC5        0.0000 
     13 CA         17.9750   71.8050   96.3300 C.3      12 GLL5        0.0000 
     14 N          22.5540   73.5620   94.8525 N.am      2 SEC2        0.0000 
     15 N          21.4670   72.9160   95.7930 N.am     10 SEL2        0.0000 
     16 N          23.6410   74.2080   93.9120 N.am      6 SEP2        0.0000 
     17 CA         20.9295   76.6220   96.7925 C.3       4 GLC5        0.0000 
     18 CA         21.5970   74.8980   97.4450 C.3      12 GLL5        0.0000 
     19 CA         20.2620   78.3460   96.1400 C.3       8 GLP5        0.0000 
     20 CA         19.8975   76.7985   97.3655 C.3       4 GLC5        0.0000 
     21 CA         19.5330   75.2510   98.5910 C.3      12 GLL5        0.0000 
     22 CA         18.0615   73.9410   99.0495 C.3       4 GLC5        0.0000 
     23 CA         18.1460   73.0830   98.2795 C.3       4 GLC5        0.0000 
     24 CA         19.7020   73.5350   97.0510 C.3      12 GLL5        0.0000 
     25 N          17.8570   63.3920   96.5825 N.am      2 SEC2        0.0000 
     26 N          18.9410   63.9350   95.8800 N.am     10 SEL2        0.0000 
     27 N          16.7730   62.8490   97.2850 N.am      6 SEP2        0.0000 
     28 CA         18.9070   62.3700   92.7880 C.3       4 GLC5        0.0000 
     29 CA         17.8360   63.5790   92.4170 C.3      12 GLL5        0.0000 
     30 CA         19.9780   61.1610   93.1590 C.3       8 GLP5        0.0000 
     31 O          13.3095   65.5785   92.0905 O.2       1 ALC1        0.0000 
     32 O          14.4460   64.9710   91.6270 O.2       9 ALL1        0.0000 
     33 O          12.1730   66.1860   92.5540 O.2       5 ALP1        0.0000 
     34 CA         13.8535   62.0085   94.6815 C.3       4 GLC5        0.0000 
     35 CA         14.5060   62.9830   93.1000 C.3      12 GLL5        0.0000 
     36 CA         13.2010   61.0340   96.2630 C.3       8 GLP5        0.0000 
     37 N          11.7175   63.1465   92.6535 N.am      2 SEC2        0.0000 
     38 N          13.1370   63.2620   93.3050 N.am     10 SEL2        0.0000 
     39 N          10.2980   63.0310   92.0020 N.am      6 SEP2        0.0000 
     40 CA         14.8135   60.7700   90.4110 C.3       4 GLC5        0.0000 
     41 CA         14.8000   61.9050   92.0240 C.3      12 GLL5        0.0000 
     42 CA         14.8270   59.6350   88.7980 C.3       8 GLP5        0.0000 
     43 CA         13.0525   62.4110   90.9120 C.3       4 GLC5        0.0000 
     44 CA         11.3050   62.9170   89.8000 C.3       8 GLP5        0.0000 
     45 O          11.4630   58.9360   90.6245 O.2       1 ALC1        0.0000 
     46 O          11.9010   57.6720   91.2760 O.2       9 ALL1        0.0000 
     47 O          11.0250   60.2000   89.9730 O.2       5 ALP1        0.0000 
     48 CA         14.5365   60.5685   94.8645 C.3       4 GLC5        0.0000 
     49 CA         15.8720   60.1030   93.4660 C.3      12 GLL5        0.0000 
     50 N          16.9860   74.3365   91.1610 N.am      2 SEC2        0.0000 
     51 N          16.9660   73.9090   92.5020 N.am     10 SEL2        0.0000 
     52 N          17.0060   74.7640   89.8200 N.am      6 SEP2        0.0000 
     53 NZ         17.1485   71.1030   90.8685 N.4       3 LYC4        0.0000 
     54 NZ         15.6980   71.8720   91.9920 N.4      11 LYL4        0.0000 
     55 NZ         18.5990   70.3340   89.7450 N.4       7 LYP4        0.0000 
     56 NZ         14.5390   72.5945   91.2710 N.4       3 LYC4        0.0000 
     57 NZ         12.8090   72.7310   89.5040 N.4       7 LYP4        0.0000 
     58 N          14.5390   72.5945   91.2710 N.am      2 SEC2        0.0000 
     59 N          15.6980   71.8720   91.9920 N.am     10 SEL2        0.0000 
     60 N          13.3800   73.3170   90.5500 N.am      6 SEP2        0.0000 
     61 NZ         18.3890   71.0490   90.9575 N.4       3 LYC4        0.0000 
     62 NZ         18.1790   71.7640   92.1700 N.4      11 LYL4        0.0000 
     63 N          18.3890   71.0490   90.9575 N.am      2 SEC2        0.0000 
     64 N          18.1790   71.7640   92.1700 N.am     10 SEL2        0.0000 
     65 N          18.5990   70.3340   89.7450 N.am      6 SEP2        0.0000 
     66 CA         17.1193   67.3865   97.6170 C.3       4 GLC5        0.0000 
     67 CA         16.3810   65.7530   98.6040 C.3       8 GLP5        0.0000 
     68 CA         22.0440   74.8365   95.2527 C.3       4 GLC5        0.0000 
     69 CA         21.0190   73.7980   96.7340 C.3      12 GLL5        0.0000 
     70 CA         22.7800   75.3250   93.4160 C.3       8 GLP5        0.0000 
     71 CA         17.1615   64.0738   90.1600 C.3       4 GLC5        0.0000 
     72 CA         17.1930   64.5630   88.2540 C.3       8 GLP5        0.0000 
     73 CA         14.5115   64.0130   90.3820 C.3       4 GLC5        0.0000 
     74 CA         16.4240   63.5900   91.7150 C.3      12 GLL5        0.0000 
     75 CA         13.1910   64.1410   88.6460 C.3       8 GLP5        0.0000 
     76 CA         14.3448   59.2897   90.5692 C.3       4 GLC5        0.0000 
     77 CA         13.8390   59.6270   92.0890 C.3      12 GLL5        0.0000 
     78 CA         13.1028   59.4682   93.9772 C.3       4 GLC5        0.0000 
     79 CA         12.3430   59.9920   95.6140 C.3       8 GLP5        0.0000 
     80 CA         16.5867   57.4055   94.9597 C.3       4 GLC5        0.0000 
     81 CA         14.9310   57.9080   93.4990 C.3      12 GLL5        0.0000 
     82 CA         17.7560   56.4600   96.1990 C.3       8 GLP5        0.0000 
     83 CA         14.1148   58.5240   95.0042 C.3       4 GLC5        0.0000 
     84 CA         15.9040   58.7940   93.9420 C.3      12 GLL5        0.0000 
     85 CA         12.8120   58.6970   96.2880 C.3       8 GLP5        0.0000 
     86 CA         16.8800   60.0988   95.2170 C.3       4 GLC5        0.0000 
     87 CA         17.8720   60.7490   96.7300 C.3       8 GLP5        0.0000 
     88 CA         17.9190   59.6112   93.1555 C.3       4 GLC5        0.0000 
     89 CA         19.9500   59.7740   92.6070 C.3       8 GLP5        0.0000 
@<TRIPOS>BOND
@<TRIPOS>SUBSTRUCTURE
     1 ALC1       31 GROUP        1 X    ALC  0     ROOT ALC X 1
     2 SEC2        6 GROUP        1 X    SEC  0     **** SEC X 2
     3 LYC4       53 GROUP        1 X    LYC  0     **** LYC X 4
     4 GLC5        1 GROUP        1 X    GLC  0     **** GLC X 6
     5 ALP1       33 GROUP        1 Y    ALP  0     ROOT ALP Y 8
     6 SEP2        8 GROUP        1 Y    SEP  0     **** SEP Y 9
     7 LYP4       55 GROUP        1 Y    LYP  0     **** LYP Y 11
     8 GLP5        3 GROUP        1 Y    GLP  0     **** GLP Y 13
     9 ALL1       32 GROUP        1 Z    ALL  0     ROOT ALL Z 15
    10 SEL2        7 GROUP        1 Z    SEL  0     **** SEL Z 16
    11 LYL4       54 GROUP        1 Z    LYL  0     **** LYL Z 18
    12 GLL5        2 GROUP        1 Z    GLL  0     **** GLL Z 20
@<TRIPOS>SET

