#    Name: 1v9n_NDP_1_ligand
#    Modification time : Tue Mar 25 07:36:14 2014

@<TRIPOS>MOLECULE
1v9n_NDP_1_ligand
   74    78     1     0     0
SMALL
NO_CHARGES


@<TRIPOS>ATOM
      1 PA         19.9360   67.3910   94.6630 P.3       1 NDP401      0.0000 
      2 O1A        20.1810   67.7140   93.2780 O.co2     1 NDP401      0.0000 
      3 O2A        21.0340   67.2340   95.6800 O.co2     1 NDP401      0.0000 
      4 O5B        18.8530   68.4900   95.2200 O.3       1 NDP401      0.0000 
      5 C5B        18.3610   68.4400   96.5720 C.3       1 NDP401      0.0000 
      6 C4B        17.3540   69.6000   96.6880 C.3       1 NDP401      0.0000 
      7 O4B        18.1230   70.6960   97.2150 O.3       1 NDP401      0.0000 
      8 C3B        16.7020   70.1130   95.4340 C.3       1 NDP401      0.0000 
      9 O3B        15.3230   70.4640   95.7590 O.3       1 NDP401      0.0000 
     10 C2B        17.4670   71.3160   95.0090 C.3       1 NDP401      0.0000 
     11 O2B        16.7840   72.2900   94.2010 O.3       1 NDP401      0.0000 
     12 C1B        17.9750   71.8050   96.3300 C.3       1 NDP401      0.0000 
     13 N9A        19.3150   72.4530   96.2930 N.pl3     1 NDP401      0.0000 
     14 C8A        20.4640   72.1120   95.5240 C.2       1 NDP401      0.0000 
     15 N7A        21.4670   72.9160   95.7930 N.2       1 NDP401      0.0000 
     16 C5A        21.0190   73.7980   96.7340 C.ar      1 NDP401      0.0000 
     17 C6A        21.5970   74.8980   97.4450 C.ar      1 NDP401      0.0000 
     18 N6A        22.8710   75.2430   97.2280 N.pl3     1 NDP401      0.0000 
     19 N1A        20.8400   75.6000   98.3580 N.ar      1 NDP401      0.0000 
     20 C2A        19.5330   75.2510   98.5910 C.ar      1 NDP401      0.0000 
     21 N3A        18.9000   74.2300   97.9770 N.ar      1 NDP401      0.0000 
     22 C4A        19.7020   73.5350   97.0510 C.ar      1 NDP401      0.0000 
     23 O3         19.0230   66.1260   94.8530 O.3       1 NDP401      0.0000 
     24 PN         19.0780   64.5660   94.5710 P.3       1 NDP401      0.0000 
     25 O1N        18.9410   63.9350   95.8800 O.co2     1 NDP401      0.0000 
     26 O2N        20.3840   64.4030   93.8460 O.co2     1 NDP401      0.0000 
     27 O5D        17.8080   64.3830   93.6300 O.3       1 NDP401      0.0000 
     28 C5D        17.8360   63.5790   92.4170 C.3       1 NDP401      0.0000 
     29 C4D        16.4240   63.5900   91.7150 C.3       1 NDP401      0.0000 
     30 O4D        16.0800   62.2360   91.4820 O.3       1 NDP401      0.0000 
     31 C3D        15.2400   64.1800   92.5210 C.3       1 NDP401      0.0000 
     32 O3D        14.4460   64.9710   91.6270 O.3       1 NDP401      0.0000 
     33 C2D        14.5060   62.9830   93.1000 C.3       1 NDP401      0.0000 
     34 O2D        13.1370   63.2620   93.3050 O.3       1 NDP401      0.0000 
     35 C1D        14.8000   61.9050   92.0240 C.3       1 NDP401      0.0000 
     36 N1N        14.8500   60.5150   92.5520 N.pl3     1 NDP401      0.0000 
     37 C2N        13.8390   59.6270   92.0890 C.2       1 NDP401      0.0000 
     38 C3N        13.8860   58.2620   92.5920 C.2       1 NDP401      0.0000 
     39 C7N        12.8780   57.2950   92.1450 C.2       1 NDP401      0.0000 
     40 O7N        12.8560   56.1170   92.5220 O.2       1 NDP401      0.0000 
     41 N7N        11.9010   57.6720   91.2760 N.am      1 NDP401      0.0000 
     42 C4N        14.9310   57.9080   93.4990 C.3       1 NDP401      0.0000 
     43 C5N        15.9040   58.7940   93.9420 C.2       1 NDP401      0.0000 
     44 C6N        15.8720   60.1030   93.4660 C.2       1 NDP401      0.0000 
     45 P2B        16.9060   72.4470   92.6600 P.3       1 NDP401      0.0000 
     46 O1X        16.9660   73.9090   92.5020 O.co2     1 NDP401      0.0000 
     47 O2X        15.6980   71.8720   91.9920 O.co2     1 NDP401      0.0000 
     48 O3X        18.1790   71.7640   92.1700 O.co2     1 NDP401      0.0000 
     49 H          19.1424   68.6045   97.2940 H         1 NDP401      0.0000 
     50 H          17.8369   67.5227   96.7789 H         1 NDP401      0.0000 
     51 H          16.6023   69.3307   97.4153 H         1 NDP401      0.0000 
     52 H          16.7486   69.3631   94.6880 H         1 NDP401      0.0000 
     53 H          18.3735   70.9222   94.4829 H         1 NDP401      0.0000 
     54 H          17.2621   72.5049   96.7556 H         1 NDP401      0.0000 
     55 H          20.4471   71.3658   94.8941 H         1 NDP401      0.0000 
     56 H          23.2136   76.0179   97.7592 H         1 NDP401      0.0000 
     57 H          23.3665   74.6951   96.5540 H         1 NDP401      0.0000 
     58 H          18.9912   75.8302   99.3051 H         1 NDP401      0.0000 
     59 H          18.0785   62.5363   92.6273 H         1 NDP401      0.0000 
     60 H          18.5547   63.9640   91.6920 H         1 NDP401      0.0000 
     61 H          16.5111   64.1163   90.7847 H         1 NDP401      0.0000 
     62 H          15.6636   64.7518   93.3171 H         1 NDP401      0.0000 
     63 H          15.0384   62.6894   93.9849 H         1 NDP401      0.0000 
     64 H          14.0444   61.9911   91.2619 H         1 NDP401      0.0000 
     65 H          13.1328   59.9084   91.4569 H         1 NDP401      0.0000 
     66 H          11.2278   56.9713   91.0398 H         1 NDP401      0.0000 
     67 H          11.9424   58.6165   90.9502 H         1 NDP401      0.0000 
     68 H          15.4596   56.9546   93.0649 H         1 NDP401      0.0000 
     69 H          14.4262   57.4061   94.4317 H         1 NDP401      0.0000 
     70 H          16.6224   58.4972   94.5970 H         1 NDP401      0.0000 
     71 H          16.5748   60.7860   93.7610 H         1 NDP401      0.0000 
     72 H          14.8609   70.5421   94.8756 H         1 NDP401      0.0000 
     73 H          13.5092   64.8821   91.9655 H         1 NDP401      0.0000 
     74 H          13.0301   63.3172   94.2977 H         1 NDP401      0.0000 
@<TRIPOS>BOND
     1    2    1 ar   
     2    3    1 ar   
     3    4    1 1    
     4   23    1 1    
     5    5    4 1    
     6    6    5 1    
     7   49    5 1    
     8   50    5 1    
     9    7    6 1    
    10    8    6 1    
    11   51    6 1    
    12   12    7 1    
    13    9    8 1    
    14   10    8 1    
    15   52    8 1    
    16   72    9 1    
    17   11   10 1    
    18   12   10 1    
    19   53   10 1    
    20   45   11 1    
    21   13   12 1    
    22   54   12 1    
    23   14   13 1    
    24   22   13 1    
    25   15   14 2    
    26   55   14 1    
    27   16   15 1    
    28   17   16 ar   
    29   22   16 ar   
    30   18   17 1    
    31   19   17 ar   
    32   56   18 1    
    33   57   18 1    
    34   20   19 ar   
    35   21   20 ar   
    36   58   20 1    
    37   22   21 ar   
    38   24   23 1    
    39   25   24 ar   
    40   26   24 ar   
    41   27   24 1    
    42   28   27 1    
    43   29   28 1    
    44   59   28 1    
    45   60   28 1    
    46   30   29 1    
    47   31   29 1    
    48   61   29 1    
    49   35   30 1    
    50   32   31 1    
    51   33   31 1    
    52   62   31 1    
    53   73   32 1    
    54   34   33 1    
    55   35   33 1    
    56   63   33 1    
    57   74   34 1    
    58   36   35 1    
    59   64   35 1    
    60   37   36 1    
    61   44   36 1    
    62   38   37 2    
    63   65   37 1    
    64   39   38 1    
    65   42   38 1    
    66   40   39 2    
    67   41   39 am   
    68   66   41 1    
    69   67   41 1    
    70   43   42 1    
    71   68   42 1    
    72   69   42 1    
    73   44   43 2    
    74   70   43 1    
    75   71   44 1    
    76   46   45 ar   
    77   47   45 ar   
    78   48   45 ar   
@<TRIPOS>SUBSTRUCTURE
     1 NDP401      1 GROUP   
@<TRIPOS>SET

