#    Name: 3v2b_AR6_1_INTS_M
#    Modification time : Mon Mar 24 23:54:10 2014

@<TRIPOS>MOLECULE
3v2b_AR6_1_INTS_M
   88     0     9     0     0
SMALL
NO_CHARGES


@<TRIPOS>ATOM
      1 N          16.2665   16.3125   -0.0970 N.am      2 SEC2        0.0000 
      2 N          15.0790   17.2910   -0.1340 N.am      8 SEL2        0.0000 
      3 N          17.4540   15.3340   -0.0600 N.am      5 SEP2        0.0000 
      4 CA         15.7795   16.2180   -1.7370 C.3       3 GLC5        0.0000 
      5 CA         14.1510   16.8160   -0.9250 C.3       9 GLL5        0.0000 
      6 CA         17.4080   15.6200   -2.5490 C.3       6 GLP5        0.0000 
      7 CA         14.6815   18.2640   -2.1180 C.3       3 GLC5        0.0000 
      8 CA         15.2120   19.7120   -3.3110 C.3       6 GLP5        0.0000 
      9 CA         13.4875   16.9810   -3.0505 C.3       3 GLC5        0.0000 
     10 CA         12.8240   17.1460   -5.1760 C.3       6 GLP5        0.0000 
     11 CA         14.6460   14.8135   -0.7855 C.3       3 GLC5        0.0000 
     12 CA         15.1410   12.8110   -0.6460 C.3       6 GLP5        0.0000 
     13 CA         12.7525   16.9465    0.5155 C.3       3 GLC5        0.0000 
     14 CA         11.3540   17.0770    1.9560 C.3       6 GLP5        0.0000 
     15 CA         15.9475   16.8700    1.4040 C.3       3 GLC5        0.0000 
     16 CA         14.9120   18.4810    0.4960 C.3       9 GLL5        0.0000 
     17 CA         16.9830   15.2590    2.3120 C.3       6 GLP5        0.0000 
     18 CA         16.2670   17.8135   -1.0780 C.3       3 GLC5        0.0000 
     19 CA         17.6220   17.1460   -2.6520 C.3       6 GLP5        0.0000 
     20 CA         15.0620   19.0965   -1.4075 C.3       3 GLC5        0.0000 
     21 CA         16.5560   19.8245    0.5575 C.3       3 GLC5        0.0000 
     22 CA         18.2000   21.1680    0.6190 C.3       6 GLP5        0.0000 
     23 O          17.2305   18.2380    1.5980 O.2       1 ALC1        0.0000 
     24 O          15.8710   18.9110    1.2680 O.2       7 ALL1        0.0000 
     25 O          18.5900   17.5650    1.9280 O.2       4 ALP1        0.0000 
     26 CA         12.3660   20.0665   -2.2810 C.3       3 GLC5        0.0000 
     27 CA         10.5370   19.2690   -1.3570 C.3       9 GLL5        0.0000 
     28 CA         14.1950   20.8640   -3.2050 C.3       6 GLP5        0.0000 
     29 CA         10.9455   18.1730    0.2995 C.3       3 GLC5        0.0000 
     30 N          12.5785   23.2765   -2.6840 N.am      2 SEC2        0.0000 
     31 N          11.4360   23.6380   -3.5320 N.am      8 SEL2        0.0000 
     32 N          13.7210   22.9150   -1.8360 N.am      5 SEP2        0.0000 
     33 N          10.2765   22.1670   -8.3610 N.am      2 SEC2        0.0000 
     34 N           9.3810   22.6910   -7.6530 N.am      8 SEL2        0.0000 
     35 N          11.1720   21.6430   -9.0690 N.am      5 SEP2        0.0000 
     36 N           8.5380   21.4965   -7.9580 N.am      2 SEC2        0.0000 
     37 N           7.6950   20.3020   -8.2630 N.am      5 SEP2        0.0000 
     38 CA          8.6430   25.1105  -10.5930 C.3       3 GLC5        0.0000 
     39 CA          7.9750   27.0530   -9.9430 C.3       9 GLL5        0.0000 
     40 CA          9.3110   23.1680  -11.2430 C.3       6 GLP5        0.0000 
     41 CA          7.2255   26.0315  -11.4395 C.3       3 GLC5        0.0000 
     42 CA          6.4760   25.0100  -12.9360 C.3       6 GLP5        0.0000 
     43 CA          6.8055   25.8615   -9.3080 C.3       3 GLC5        0.0000 
     44 CA          5.6360   24.6700   -8.6730 C.3       6 GLP5        0.0000 
     45 N           7.3005   19.5135    0.2550 N.am      2 SEC2        0.0000 
     46 N           8.8580   19.7260    0.3080 N.am      8 SEL2        0.0000 
     47 N           5.7430   19.3010    0.2020 N.am      5 SEP2        0.0000 
     48 N           7.7450   25.0120   -3.5425 N.am      2 SEC2        0.0000 
     49 N           9.0410   24.6370   -3.3690 N.am      8 SEL2        0.0000 
     50 N           6.4490   25.3870   -3.7160 N.am      5 SEP2        0.0000 
     51 N           6.7335   22.6875   -5.0225 N.am      2 SEC2        0.0000 
     52 N           7.5580   23.3500   -5.9240 N.am      8 SEL2        0.0000 
     53 N           5.9090   22.0250   -4.1210 N.am      5 SEP2        0.0000 
     54 N           6.6345   24.5695   -6.1855 N.am      2 SEC2        0.0000 
     55 N           5.7110   25.7890   -6.4470 N.am      5 SEP2        0.0000 
     56 CA          7.2735   21.4920   -2.5885 C.3       3 GLC5        0.0000 
     57 CA          8.4650   19.9240   -2.0970 C.3       9 GLL5        0.0000 
     58 CA          6.0820   23.0600   -3.0800 C.3       6 GLP5        0.0000 
     59 N           6.7490   19.0015   -0.8465 N.am      2 SEC2        0.0000 
     60 N           7.7550   18.7020   -1.8950 N.am      8 SEL2        0.0000 
     61 O           6.9325   18.5340   -3.0310 O.2       1 ALC1        0.0000 
     62 O           7.7550   18.7020   -1.8950 O.2       7 ALL1        0.0000 
     63 O           6.1100   18.3660   -4.1670 O.2       4 ALP1        0.0000 
     64 CA          7.9840   27.6370   -5.9835 C.3       3 GLC5        0.0000 
     65 CA          8.6460   27.6390   -7.7160 C.3       9 GLL5        0.0000 
     66 CA          7.3220   27.6350   -4.2510 C.3       6 GLP5        0.0000 
     67 N           8.2845   29.3055   -6.3130 N.am      2 SEC2        0.0000 
     68 N           9.1960   28.8300   -7.1860 N.am      8 SEL2        0.0000 
     69 N           7.3730   29.7810   -5.4400 N.am      5 SEP2        0.0000 
     70 CA         11.0705   27.8950   -9.6440 C.3       3 GLC5        0.0000 
     71 CA          9.7420   26.8530   -8.4180 C.3       9 GLL5        0.0000 
     72 CA         12.3990   28.9370  -10.8700 C.3       6 GLP5        0.0000 
     73 CA         11.6390   21.2115   -4.3885 C.3       3 GLC5        0.0000 
     74 CA          9.4520   20.9990   -4.2020 C.3       9 GLL5        0.0000 
     75 CA         13.8260   21.4240   -4.5750 C.3       6 GLP5        0.0000 
     76 CA          7.7670   22.0295   -3.6410 C.3       3 GLC5        0.0000 
     77 N           7.3265   25.4145   -6.7395 N.am      2 SEC2        0.0000 
     78 N           8.9420   25.0400   -7.0320 N.am      8 SEL2        0.0000 
     79 CA         13.7350   19.8925   -1.6705 C.3       3 GLC5        0.0000 
     80 CA         12.7990   18.6470   -0.5650 C.3       9 GLL5        0.0000 
     81 CA         12.7237   17.8890    1.0680 C.3       3 GLC5        0.0000 
     82 CA          6.5735   26.7637   -8.0075 C.3       3 GLC5        0.0000 
     83 CA          5.0040   25.7110   -7.7560 C.3       6 GLP5        0.0000 
     84 CA         11.8573   25.9965   -8.5883 C.3       3 GLC5        0.0000 
     85 CA         13.7820   25.7570   -9.2010 C.3       6 GLP5        0.0000 
     86 CA         11.0633   27.4922   -6.9190 C.3       3 GLC5        0.0000 
     87 CA         10.1230   25.6190   -7.5330 C.3       9 GLL5        0.0000 
     88 CA         12.4680   28.5520   -6.0380 C.3       6 GLP5        0.0000 
@<TRIPOS>BOND
@<TRIPOS>SUBSTRUCTURE
     1 ALC1       23 GROUP        1 X    ALC  0     ROOT ALC X 1
     2 SEC2        1 GROUP        1 X    SEC  0     **** SEC X 2
     3 GLC5        4 GROUP        1 X    GLC  0     **** GLC X 6
     4 ALP1       25 GROUP        1 Y    ALP  0     ROOT ALP Y 8
     5 SEP2        3 GROUP        1 Y    SEP  0     **** SEP Y 9
     6 GLP5        6 GROUP        1 Y    GLP  0     **** GLP Y 13
     7 ALL1       24 GROUP        1 Z    ALL  0     ROOT ALL Z 15
     8 SEL2        2 GROUP        1 Z    SEL  0     **** SEL Z 16
     9 GLL5        5 GROUP        1 Z    GLL  0     **** GLL Z 20
@<TRIPOS>SET

