#    Name: 3v2b_AR6_1_ligand
#    Modification time : Mon Mar 24 23:54:10 2014

@<TRIPOS>MOLECULE
3v2b_AR6_1_ligand
   57    60     1     0     0
SMALL
NO_CHARGES


@<TRIPOS>ATOM
      1 N1         15.0790   17.2910   -0.1340 N.ar      1 AR6800      0.0000 
      2 C2         14.1510   16.8160   -0.9250 C.ar      1 AR6800      0.0000 
      3 N3         13.0160   17.4730   -1.1560 N.ar      1 AR6800      0.0000 
      4 C4         12.7990   18.6470   -0.5650 C.ar      1 AR6800      0.0000 
      5 C5         13.7510   19.1950    0.2930 C.ar      1 AR6800      0.0000 
      6 C6         14.9120   18.4810    0.4960 C.ar      1 AR6800      0.0000 
      7 N6         15.8710   18.9110    1.2680 N.pl3     1 AR6800      0.0000 
      8 N7         13.2760   20.3540    0.7280 N.2       1 AR6800      0.0000 
      9 C8         12.0590   20.5230    0.2220 C.2       1 AR6800      0.0000 
     10 N9         11.7770   19.4690   -0.5790 N.pl3     1 AR6800      0.0000 
     11 PA         10.0160   23.6200   -3.8640 P.3       1 AR6800      0.0000 
     12 PB          8.8710   23.5440   -6.5080 P.3       1 AR6800      0.0000 
     13 C1'        10.5370   19.2690   -1.3570 C.3       1 AR6800      0.0000 
     14 O1A        11.4360   23.6380   -3.5320 O.co2     1 AR6800      0.0000 
     15 O1B         9.3810   22.6910   -7.6530 O.co2     1 AR6800      0.0000 
     16 C1D         7.9750   27.0530   -9.9430 C.3       1 AR6800      0.0000 
     17 O1D         8.3030   27.8920  -11.0470 O.3       1 AR6800      0.0000 
     18 C2'         9.4170   20.1680   -0.9380 C.3       1 AR6800      0.0000 
     19 O2'         8.8580   19.7260    0.3080 O.3       1 AR6800      0.0000 
     20 O2A         9.0410   24.6370   -3.3690 O.co2     1 AR6800      0.0000 
     21 O2B         7.5580   23.3500   -5.9240 O.co2     1 AR6800      0.0000 
     22 C2D         7.6400   27.9940   -8.8020 C.3       1 AR6800      0.0000 
     23 O2D         7.8900   29.3060   -9.2550 O.3       1 AR6800      0.0000 
     24 C3'         8.4650   19.9240   -2.0970 C.3       1 AR6800      0.0000 
     25 O3'         7.7550   18.7020   -1.8950 O.3       1 AR6800      0.0000 
     26 O3A        10.0780   23.4960   -5.4770 O.3       1 AR6800      0.0000 
     27 C3D         8.6460   27.6390   -7.7160 C.3       1 AR6800      0.0000 
     28 O3D         9.1960   28.8300   -7.1860 O.3       1 AR6800      0.0000 
     29 C4'         9.4340   19.7750   -3.2590 C.3       1 AR6800      0.0000 
     30 O4'        10.7570   19.7550   -2.6660 O.3       1 AR6800      0.0000 
     31 C4D         9.7420   26.8530   -8.4180 C.3       1 AR6800      0.0000 
     32 O4D         9.1430   26.3160   -9.5680 O.3       1 AR6800      0.0000 
     33 C5'         9.4520   20.9990   -4.2020 C.3       1 AR6800      0.0000 
     34 O5'         9.3760   22.1930   -3.4290 O.3       1 AR6800      0.0000 
     35 C5D        10.1230   25.6190   -7.5330 C.3       1 AR6800      0.0000 
     36 O5D         8.9420   25.0400   -7.0320 O.3       1 AR6800      0.0000 
     37 H          14.2986   15.8757   -1.4035 H         1 AR6800      0.0000 
     38 H          16.6551   18.3001    1.3775 H         1 AR6800      0.0000 
     39 H          15.7341   19.8121    1.6795 H         1 AR6800      0.0000 
     40 H          11.4631   21.2691    0.3892 H         1 AR6800      0.0000 
     41 H          10.2156   18.2772   -1.3682 H         1 AR6800      0.0000 
     42 H           7.1508   26.4405  -10.1356 H         1 AR6800      0.0000 
     43 H           9.7359   21.1556   -0.9618 H         1 AR6800      0.0000 
     44 H           6.6780   27.8171   -8.4704 H         1 AR6800      0.0000 
     45 H           7.8751   20.7632   -2.2435 H         1 AR6800      0.0000 
     46 H           8.1823   27.0261   -7.0017 H         1 AR6800      0.0000 
     47 H           9.2493   18.9048   -3.8007 H         1 AR6800      0.0000 
     48 H          10.5692   27.4294   -8.5910 H         1 AR6800      0.0000 
     49 H           8.6050   20.8953   -4.8859 H         1 AR6800      0.0000 
     50 H          10.3736   20.9446   -4.7881 H         1 AR6800      0.0000 
     51 H          10.7821   25.9909   -6.7467 H         1 AR6800      0.0000 
     52 H          10.6922   24.9413   -8.1715 H         1 AR6800      0.0000 
     53 H           8.3457   28.8157  -10.6662 H         1 AR6800      0.0000 
     54 H           8.5299   20.5586    0.7542 H         1 AR6800      0.0000 
     55 H           8.5483   29.6835   -8.6037 H         1 AR6800      0.0000 
     56 H           7.1649   18.6101   -2.6970 H         1 AR6800      0.0000 
     57 H          10.1541   28.6121   -7.0001 H         1 AR6800      0.0000 
@<TRIPOS>BOND
     1    2    1 ar   
     2    6    1 ar   
     3    3    2 ar   
     4   37    2 1    
     5    4    3 ar   
     6    5    4 ar   
     7   10    4 1    
     8    6    5 ar   
     9    8    5 1    
    10    7    6 1    
    11   38    7 1    
    12   39    7 1    
    13    9    8 2    
    14   10    9 1    
    15   40    9 1    
    16   13   10 1    
    17   14   11 ar   
    18   20   11 ar   
    19   26   11 1    
    20   34   11 1    
    21   15   12 ar   
    22   21   12 ar   
    23   26   12 1    
    24   36   12 1    
    25   18   13 1    
    26   30   13 1    
    27   41   13 1    
    28   17   16 1    
    29   22   16 1    
    30   32   16 1    
    31   42   16 1    
    32   53   17 1    
    33   19   18 1    
    34   24   18 1    
    35   43   18 1    
    36   54   19 1    
    37   23   22 1    
    38   27   22 1    
    39   44   22 1    
    40   55   23 1    
    41   25   24 1    
    42   29   24 1    
    43   45   24 1    
    44   56   25 1    
    45   28   27 1    
    46   31   27 1    
    47   46   27 1    
    48   57   28 1    
    49   30   29 1    
    50   33   29 1    
    51   47   29 1    
    52   32   31 1    
    53   35   31 1    
    54   48   31 1    
    55   34   33 1    
    56   49   33 1    
    57   50   33 1    
    58   36   35 1    
    59   51   35 1    
    60   52   35 1    
@<TRIPOS>SUBSTRUCTURE
     1 AR6800      1 GROUP   
@<TRIPOS>SET

