#    Name: 4C1Q_1_CAVITY_N1_6.mol2
#    Modification time : Mon Mar 10 12:21:57 2014

@<TRIPOS>MOLECULE
4C1Q_1_CAVITY_N1_6.mol2
   49     0     5     0     0
SMALL
NO_CHARGES


@<TRIPOS>ATOM
      1 DU         25.0575  -22.4027  -25.3908 H         5 CUB7        0.0000 
      2 DU         24.7300  -22.5638  -23.9359 H         5 CUB7        0.0000 
      3 CZ         23.7800  -21.4062  -24.0216 C.ar      3 PHE5        0.0000 
      4 OG         23.6164  -23.5040  -24.2907 O.2       1 SER1        0.0000 
      5 OG         20.2755  -26.3246  -25.3551 O.2       1 SER1        0.0000 
      6 DU         20.1119  -28.4224  -25.6242 H         5 CUB7        0.0000 
      7 DU         19.1619  -27.2648  -25.7099 H         5 CUB7        0.0000 
      8 OG         18.2118  -26.1072  -25.7956 O.2       1 SER1        0.0000 
      9 N          18.9983  -29.3626  -25.9790 N.2       2 ALA2        0.0000 
     10 N          18.0483  -28.2050  -26.0647 N.2       2 ALA2        0.0000 
     11 N          24.4025  -22.7249  -22.4810 N.2       2 ALA2        0.0000 
     12 CA         23.4525  -21.5673  -22.5666 C.3       4 GLY6        0.0000 
     13 DU         20.8981  -27.6433  -23.8145 H         5 CUB7        0.0000 
     14 OG         19.9480  -26.4857  -23.9002 O.2       1 SER1        0.0000 
     15 DU         19.7844  -28.5835  -24.1693 H         5 CUB7        0.0000 
     16 DU         18.8344  -27.4259  -24.2550 H         5 CUB7        0.0000 
     17 OG         17.8843  -26.2683  -24.3406 O.2       1 SER1        0.0000 
     18 N          19.6209  -30.6813  -24.4385 N.2       2 ALA2        0.0000 
     19 N          18.6708  -29.5237  -24.5241 N.2       2 ALA2        0.0000 
     20 N          17.7208  -28.3661  -24.6098 N.2       2 ALA2        0.0000 
     21 N          16.7707  -27.2085  -24.6954 N.2       2 ALA2        0.0000 
     22 OG         20.7341  -25.7066  -22.0905 O.2       1 SER1        0.0000 
     23 N          16.9339  -21.0762  -22.4331 N.2       2 ALA2        0.0000 
     24 OG         20.5706  -27.8044  -22.3596 O.2       1 SER1        0.0000 
     25 CZ         19.6205  -26.6468  -22.4453 C.ar      3 PHE5        0.0000 
     26 N          18.6705  -25.4892  -22.5309 N.2       2 ALA2        0.0000 
     27 N          16.7704  -23.1740  -22.7022 N.2       2 ALA2        0.0000 
     28 CZ         15.8203  -22.0164  -22.7879 C.ar      3 PHE5        0.0000 
     29 OG         19.4569  -28.7446  -22.7144 O.2       1 SER1        0.0000 
     30 OG         18.5069  -27.5870  -22.8001 O.2       1 SER1        0.0000 
     31 CZ         17.5568  -26.4294  -22.8857 C.ar      3 PHE5        0.0000 
     32 OG         16.6068  -25.2718  -22.9714 O.2       1 SER1        0.0000 
     33 OG         14.7067  -22.9566  -23.1427 O.2       1 SER1        0.0000 
     34 OG         19.2934  -30.8424  -22.9835 O.2       1 SER1        0.0000 
     35 OG         18.3433  -29.6848  -23.0692 O.2       1 SER1        0.0000 
     36 OG         17.3933  -28.5272  -23.1549 O.2       1 SER1        0.0000 
     37 OG         16.4432  -27.3696  -23.2405 O.2       1 SER1        0.0000 
     38 N          17.2297  -30.6250  -23.4240 N.2       2 ALA2        0.0000 
     39 N          16.2796  -29.4674  -23.5097 N.2       2 ALA2        0.0000 
     40 N          15.3296  -28.3098  -23.5953 N.2       2 ALA2        0.0000 
     41 CA         16.6064  -21.2373  -20.9782 C.3       4 GLY6        0.0000 
     42 N          16.4429  -23.3351  -21.2473 N.2       2 ALA2        0.0000 
     43 OG         15.4928  -22.1775  -21.3330 O.2       1 SER1        0.0000 
     44 N          16.2793  -25.4329  -21.5165 N.2       2 ALA2        0.0000 
     45 N          15.3292  -24.2753  -21.6021 N.2       2 ALA2        0.0000 
     46 N          14.3792  -23.1177  -21.6878 N.2       2 ALA2        0.0000 
     47 OG         17.0658  -28.6883  -21.6999 O.2       1 SER1        0.0000 
     48 N          16.1157  -27.5307  -21.7856 N.2       2 ALA2        0.0000 
     49 OG         15.9521  -29.6285  -22.0547 O.2       1 SER1        0.0000 
@<TRIPOS>BOND
@<TRIPOS>SUBSTRUCTURE
     1 SER1        4 GROUP   
     2 ALA2        9 GROUP   
     3 PHE5        3 GROUP   
     4 GLY6       12 GROUP   
     5 CUB7        1 GROUP   
@<TRIPOS>SET

