#    Name: 4C1Q_1_CAVITY_N1_ALL.mol2
#    Modification time : Mon Mar 10 12:21:57 2014

@<TRIPOS>MOLECULE
4C1Q_1_CAVITY_N1_ALL.mol2
   85     0     5     0     0
SMALL
NO_CHARGES


@<TRIPOS>ATOM
      1 CA         25.2211  -20.3049  -25.1217 C.3       4 GLY6        0.0000 
      2 CA         24.2710  -19.1472  -25.2073 C.3       4 GLY6        0.0000 
      3 CA         21.4209  -15.6744  -25.4643 C.3       4 GLY6        0.0000 
      4 CA         20.4708  -14.5168  -25.5500 C.3       4 GLY6        0.0000 
      5 DU         25.0575  -22.4027  -25.3908 H         5 CUB7        0.0000 
      6 CZ         24.1075  -21.2451  -25.4765 C.ar      3 PHE5        0.0000 
      7 CA         20.3073  -16.6146  -25.8191 C.3       4 GLY6        0.0000 
      8 N          19.3572  -15.4570  -25.9048 N.2       2 ALA2        0.0000 
      9 N          24.8936  -20.4660  -23.6668 N.2       2 ALA2        0.0000 
     10 N          23.9435  -19.3084  -23.7524 N.2       2 ALA2        0.0000 
     11 N          22.9935  -18.1508  -23.8381 N.2       2 ALA2        0.0000 
     12 CZ         22.0434  -16.9931  -23.9237 C.ar      3 PHE5        0.0000 
     13 DU         21.0934  -15.8355  -24.0094 H         5 CUB7        0.0000 
     14 DU         20.1433  -14.6779  -24.0951 H         5 CUB7        0.0000 
     15 DU         19.1933  -13.5203  -24.1807 H         5 CUB7        0.0000 
     16 DU         24.7300  -22.5638  -23.9359 H         5 CUB7        0.0000 
     17 CZ         23.7800  -21.4062  -24.0216 C.ar      3 PHE5        0.0000 
     18 CZ         22.8299  -20.2486  -24.1072 C.ar      3 PHE5        0.0000 
     19 CZ         19.9798  -16.7757  -24.3642 C.ar      3 PHE5        0.0000 
     20 N          19.0297  -15.6181  -24.4498 N.2       2 ALA2        0.0000 
     21 N          18.0797  -14.4605  -24.5355 N.2       2 ALA2        0.0000 
     22 OG         23.6164  -23.5040  -24.2907 O.2       1 SER1        0.0000 
     23 CZ         18.8661  -17.7159  -24.7190 C.ar      3 PHE5        0.0000 
     24 OG         20.2755  -26.3246  -25.3551 O.2       1 SER1        0.0000 
     25 DU         20.1119  -28.4224  -25.6242 H         5 CUB7        0.0000 
     26 DU         19.1619  -27.2648  -25.7099 H         5 CUB7        0.0000 
     27 OG         18.2118  -26.1072  -25.7956 O.2       1 SER1        0.0000 
     28 N          18.9983  -29.3626  -25.9790 N.2       2 ALA2        0.0000 
     29 N          18.0483  -28.2050  -26.0647 N.2       2 ALA2        0.0000 
     30 N          24.5661  -20.6271  -22.2119 N.2       2 ALA2        0.0000 
     31 N          22.6660  -18.3119  -22.3832 N.2       2 ALA2        0.0000 
     32 N          21.7159  -17.1543  -22.4688 N.2       2 ALA2        0.0000 
     33 N          20.7659  -15.9966  -22.5545 N.2       2 ALA2        0.0000 
     34 O          19.8158  -14.8390  -22.6401 O.2       2 ALA2        0.0000 
     35 N          24.4025  -22.7249  -22.4810 N.2       2 ALA2        0.0000 
     36 CA         23.4525  -21.5673  -22.5666 C.3       4 GLY6        0.0000 
     37 CA         22.5024  -20.4097  -22.6523 C.3       4 GLY6        0.0000 
     38 CZ         21.5524  -19.2521  -22.7380 C.ar      3 PHE5        0.0000 
     39 CZ         20.6023  -18.0945  -22.8236 C.ar      3 PHE5        0.0000 
     40 N          19.6523  -16.9368  -22.9093 N.2       2 ALA2        0.0000 
     41 N          18.7022  -15.7792  -22.9949 N.2       2 ALA2        0.0000 
     42 N          18.5386  -17.8770  -23.2641 N.2       2 ALA2        0.0000 
     43 N          17.5886  -16.7194  -23.3497 N.2       2 ALA2        0.0000 
     44 N          17.4250  -18.8172  -23.6189 N.2       2 ALA2        0.0000 
     45 DU         20.8981  -27.6433  -23.8145 H         5 CUB7        0.0000 
     46 OG         19.9480  -26.4857  -23.9002 O.2       1 SER1        0.0000 
     47 DU         19.7844  -28.5835  -24.1693 H         5 CUB7        0.0000 
     48 DU         18.8344  -27.4259  -24.2550 H         5 CUB7        0.0000 
     49 OG         17.8843  -26.2683  -24.3406 O.2       1 SER1        0.0000 
     50 N          19.6209  -30.6813  -24.4385 N.2       2 ALA2        0.0000 
     51 N          18.6708  -29.5237  -24.5241 N.2       2 ALA2        0.0000 
     52 N          17.7208  -28.3661  -24.6098 N.2       2 ALA2        0.0000 
     53 N          16.7707  -27.2085  -24.6954 N.2       2 ALA2        0.0000 
     54 N          21.3884  -17.3154  -21.0139 N.2       2 ALA2        0.0000 
     55 N          20.4384  -16.1578  -21.0996 N.2       2 ALA2        0.0000 
     56 OG         20.7341  -25.7066  -22.0905 O.2       1 SER1        0.0000 
     57 N          16.9339  -21.0762  -22.4331 N.2       2 ALA2        0.0000 
     58 OG         20.5706  -27.8044  -22.3596 O.2       1 SER1        0.0000 
     59 CZ         19.6205  -26.6468  -22.4453 C.ar      3 PHE5        0.0000 
     60 N          18.6705  -25.4892  -22.5309 N.2       2 ALA2        0.0000 
     61 N          16.7704  -23.1740  -22.7022 N.2       2 ALA2        0.0000 
     62 CZ         15.8203  -22.0164  -22.7879 C.ar      3 PHE5        0.0000 
     63 CZ         14.8703  -20.8587  -22.8735 C.ar      3 PHE5        0.0000 
     64 OG         19.4569  -28.7446  -22.7144 O.2       1 SER1        0.0000 
     65 OG         18.5069  -27.5870  -22.8001 O.2       1 SER1        0.0000 
     66 CZ         17.5568  -26.4294  -22.8857 C.ar      3 PHE5        0.0000 
     67 OG         16.6068  -25.2718  -22.9714 O.2       1 SER1        0.0000 
     68 OG         14.7067  -22.9566  -23.1427 O.2       1 SER1        0.0000 
     69 OG         19.2934  -30.8424  -22.9835 O.2       1 SER1        0.0000 
     70 OG         18.3433  -29.6848  -23.0692 O.2       1 SER1        0.0000 
     71 OG         17.3933  -28.5272  -23.1549 O.2       1 SER1        0.0000 
     72 OG         16.4432  -27.3696  -23.2405 O.2       1 SER1        0.0000 
     73 N          17.2297  -30.6250  -23.4240 N.2       2 ALA2        0.0000 
     74 N          16.2796  -29.4674  -23.5097 N.2       2 ALA2        0.0000 
     75 N          15.3296  -28.3098  -23.5953 N.2       2 ALA2        0.0000 
     76 CA         16.6064  -21.2373  -20.9782 C.3       4 GLY6        0.0000 
     77 N          16.4429  -23.3351  -21.2473 N.2       2 ALA2        0.0000 
     78 OG         15.4928  -22.1775  -21.3330 O.2       1 SER1        0.0000 
     79 O          14.5428  -21.0199  -21.4186 O.2       2 ALA2        0.0000 
     80 N          16.2793  -25.4329  -21.5165 N.2       2 ALA2        0.0000 
     81 N          15.3292  -24.2753  -21.6021 N.2       2 ALA2        0.0000 
     82 N          14.3792  -23.1177  -21.6878 N.2       2 ALA2        0.0000 
     83 OG         17.0658  -28.6883  -21.6999 O.2       1 SER1        0.0000 
     84 N          16.1157  -27.5307  -21.7856 N.2       2 ALA2        0.0000 
     85 OG         15.9521  -29.6285  -22.0547 O.2       1 SER1        0.0000 
@<TRIPOS>BOND
@<TRIPOS>SUBSTRUCTURE
     1 SER1       22 GROUP   
     2 ALA2        8 GROUP   
     3 PHE5        6 GROUP   
     4 GLY6        1 GROUP   
     5 CUB7        5 GROUP   
@<TRIPOS>SET

