#    Name: 4c1q_SAH_1_INTS_M
#    Modification time : Tue Mar 25 08:38:06 2014

@<TRIPOS>MOLECULE
4c1q_SAH_1_INTS_M
   54     0     9     0     0
SMALL
NO_CHARGES


@<TRIPOS>ATOM
      1 O          14.9730  -30.9440  -24.1910 O.2       1 ALC1        0.0000 
      2 O          16.3870  -30.2430  -24.1150 O.2       7 ALL1        0.0000 
      3 O          13.5590  -31.6450  -24.2670 O.2       4 ALP1        0.0000 
      4 O          15.6655  -29.4730  -25.2115 O.2       1 ALC1        0.0000 
      5 O          14.9440  -28.7030  -26.3080 O.2       4 ALP1        0.0000 
      6 CA         13.8885  -28.4690  -21.6220 C.3       3 GLC5        0.0000 
      7 CA         15.6720  -28.6370  -22.4000 C.3       9 GLL5        0.0000 
      8 CA         12.1050  -28.3010  -20.8440 C.3       6 GLP5        0.0000 
      9 CA         17.5230  -26.7550  -20.8890 C.3       3 GLC5        0.0000 
     10 CA         17.4230  -26.6170  -22.4920 C.3       9 GLL5        0.0000 
     11 CA         17.6230  -26.8930  -19.2860 C.3       6 GLP5        0.0000 
     12 N          17.8155  -29.6965  -20.1310 N.am      2 SEC2        0.0000 
     13 N          16.7570  -30.5390  -20.5200 N.am      8 SEL2        0.0000 
     14 N          18.8740  -28.8540  -19.7420 N.am      5 SEP2        0.0000 
     15 N          15.9205  -32.9470  -22.9000 N.am      2 SEC2        0.0000 
     16 N          16.8570  -31.9940  -22.0640 N.am      8 SEL2        0.0000 
     17 N          14.9840  -33.9000  -23.7360 N.am      5 SEP2        0.0000 
     18 CA         17.6305  -24.5845  -24.9595 C.3       3 GLC5        0.0000 
     19 CA         18.3260  -26.1180  -23.9190 C.3       9 GLL5        0.0000 
     20 CA         16.9350  -23.0510  -26.0000 C.3       6 GLP5        0.0000 
     21 CA         19.4505  -24.2650  -24.3980 C.3       3 GLC5        0.0000 
     22 CA         20.5750  -22.4120  -24.8770 C.3       6 GLP5        0.0000 
     23 CA         18.3150  -30.3595  -27.3010 C.3       3 GLC5        0.0000 
     24 CA         18.8470  -28.5360  -26.3870 C.3       9 GLL5        0.0000 
     25 CA         17.7830  -32.1830  -28.2150 C.3       6 GLP5        0.0000 
     26 N          15.2425  -25.8325  -28.4790 N.am      2 SEC2        0.0000 
     27 N          16.6270  -26.6380  -28.6130 N.am      8 SEL2        0.0000 
     28 N          13.8580  -25.0270  -28.3450 N.am      5 SEP2        0.0000 
     29 CA         15.5330  -27.9695  -30.5030 C.3       3 GLC5        0.0000 
     30 CA         17.4200  -27.2630  -29.5200 C.3       9 GLL5        0.0000 
     31 CA         13.6460  -28.6760  -31.4860 C.3       6 GLP5        0.0000 
     32 CA         16.4055  -25.3405  -29.4190 C.3       3 GLC5        0.0000 
     33 CA         15.3910  -23.4180  -29.3180 C.3       6 GLP5        0.0000 
     34 CA         16.8170  -28.8815  -31.7650 C.3       3 GLC5        0.0000 
     35 CA         17.5590  -27.3180  -30.9980 C.3       9 GLL5        0.0000 
     36 CA         16.0750  -30.4450  -32.5320 C.3       6 GLP5        0.0000 
     37 O          15.3345  -25.8565  -31.4910 O.2       1 ALC1        0.0000 
     38 O          16.7250  -26.5980  -31.7560 O.2       7 ALL1        0.0000 
     39 O          13.9440  -25.1150  -31.2260 O.2       4 ALP1        0.0000 
     40 CA         17.7230  -29.6370  -31.6740 C.3       3 GLC5        0.0000 
     41 CA         19.3710  -28.8290  -30.8160 C.3       9 GLL5        0.0000 
     42 CA         18.0680  -30.0955  -29.9025 C.3       3 GLC5        0.0000 
     43 CA         16.7650  -31.3620  -28.9890 C.3       6 GLP5        0.0000 
     44 CA         20.1810  -27.0645  -29.9440 C.3       3 GLC5        0.0000 
     45 CA         20.9910  -25.3000  -29.0720 C.3       6 GLP5        0.0000 
     46 CA         19.6910  -26.6925  -28.9245 C.3       3 GLC5        0.0000 
     47 CA         18.3910  -28.0850  -28.7770 C.3       9 GLL5        0.0000 
     48 CA         16.7063  -27.4290  -21.0165 C.3       3 GLC5        0.0000 
     49 CA         15.9070  -27.2930  -23.0940 C.3       9 GLL5        0.0000 
     50 CA         20.6215  -26.3638  -27.4605 C.3       3 GLC5        0.0000 
     51 CA         20.2510  -26.8800  -25.3300 C.3       9 GLL5        0.0000 
     52 CA         17.3353  -29.5180  -29.0688 C.3       3 GLC5        0.0000 
     53 CA         18.2718  -25.5403  -29.9105 C.3       3 GLC5        0.0000 
     54 CA         19.0540  -23.7900  -29.5620 C.3       6 GLP5        0.0000 
@<TRIPOS>BOND
@<TRIPOS>SUBSTRUCTURE
     1 ALC1        1 GROUP        1 X    ALC  0     ROOT ALC X 1
     2 SEC2       12 GROUP        1 X    SEC  0     **** SEC X 2
     3 GLC5        6 GROUP        1 X    GLC  0     **** GLC X 6
     4 ALP1        3 GROUP        1 Y    ALP  0     ROOT ALP Y 8
     5 SEP2       14 GROUP        1 Y    SEP  0     **** SEP Y 9
     6 GLP5        8 GROUP        1 Y    GLP  0     **** GLP Y 13
     7 ALL1        2 GROUP        1 Z    ALL  0     ROOT ALL Z 15
     8 SEL2       13 GROUP        1 Z    SEL  0     **** SEL Z 16
     9 GLL5        7 GROUP        1 Z    GLL  0     **** GLL Z 20
@<TRIPOS>SET

