#    Name: 4c1q_SAH_1_ligand
#    Modification time : Tue Mar 25 08:38:06 2014

@<TRIPOS>MOLECULE
4c1q_SAH_1_ligand
   46    48     1     0     0
SMALL
NO_CHARGES


@<TRIPOS>ATOM
      1 N          16.3870  -30.2430  -24.1150 N.4       1 SAH394      0.0000 
      2 CA         16.7110  -29.7140  -22.7890 C.3       1 SAH394      0.0000 
      3 CB         15.6720  -28.6370  -22.4000 C.3       1 SAH394      0.0000 
      4 CG         15.9070  -27.2930  -23.0940 C.3       1 SAH394      0.0000 
      5 SD         17.4230  -26.6170  -22.4920 S.3       1 SAH394      0.0000 
      6 C          16.7750  -30.8050  -21.7360 C.2       1 SAH394      0.0000 
      7 O          16.7570  -30.5390  -20.5200 O.co2     1 SAH394      0.0000 
      8 OXT        16.8570  -31.9940  -22.0640 O.co2     1 SAH394      0.0000 
      9 C5'        18.3260  -26.1180  -23.9190 C.3       1 SAH394      0.0000 
     10 C4'        19.1590  -27.2970  -24.3820 C.3       1 SAH394      0.0000 
     11 O4'        18.3310  -28.2160  -25.0920 O.3       1 SAH394      0.0000 
     12 C3'        20.2510  -26.8800  -25.3300 C.3       1 SAH394      0.0000 
     13 O3'        21.4670  -26.8220  -24.6220 O.3       1 SAH394      0.0000 
     14 C2'        20.2530  -27.9750  -26.3680 C.3       1 SAH394      0.0000 
     15 O2'        21.0580  -29.0660  -25.9740 O.3       1 SAH394      0.0000 
     16 C1'        18.8470  -28.5360  -26.3870 C.3       1 SAH394      0.0000 
     17 N9         18.0900  -27.8970  -27.4910 N.pl3     1 SAH394      0.0000 
     18 C8         17.0530  -27.0260  -27.3860 C.2       1 SAH394      0.0000 
     19 N7         16.6270  -26.6380  -28.6130 N.2       1 SAH394      0.0000 
     20 C5         17.4200  -27.2630  -29.5200 C.ar      1 SAH394      0.0000 
     21 C6         17.5590  -27.3180  -30.9980 C.ar      1 SAH394      0.0000 
     22 N6         16.7250  -26.5980  -31.7560 N.pl3     1 SAH394      0.0000 
     23 N1         18.5180  -28.0990  -31.5750 N.ar      1 SAH394      0.0000 
     24 C2         19.3710  -28.8290  -30.8160 C.ar      1 SAH394      0.0000 
     25 N3         19.3200  -28.8240  -29.4660 N.ar      1 SAH394      0.0000 
     26 C4         18.3910  -28.0850  -28.7770 C.ar      1 SAH394      0.0000 
     27 H          17.6835  -29.2132  -22.8229 H         1 SAH394      0.0000 
     28 H          15.7066  -28.4933  -21.3132 H         1 SAH394      0.0000 
     29 H          14.6717  -29.0063  -22.6570 H         1 SAH394      0.0000 
     30 H          15.1879  -26.5632  -22.8365 H         1 SAH394      0.0000 
     31 H          16.0703  -27.3872  -24.1335 H         1 SAH394      0.0000 
     32 H          18.9068  -25.3041  -23.5738 H         1 SAH394      0.0000 
     33 H          17.5714  -25.8419  -24.6069 H         1 SAH394      0.0000 
     34 H          19.6053  -27.7719  -23.5272 H         1 SAH394      0.0000 
     35 H          19.9694  -25.9700  -25.7856 H         1 SAH394      0.0000 
     36 H          20.4795  -27.5973  -27.3119 H         1 SAH394      0.0000 
     37 H          18.9203  -29.5886  -26.5298 H         1 SAH394      0.0000 
     38 H          16.6678  -26.7216  -26.5408 H         1 SAH394      0.0000 
     39 H          15.8055  -26.4586  -31.3883 H         1 SAH394      0.0000 
     40 H          17.0957  -26.2637  -32.6225 H         1 SAH394      0.0000 
     41 H          20.1003  -29.4218  -31.2983 H         1 SAH394      0.0000 
     42 H          16.3952  -29.5267  -24.8128 H         1 SAH394      0.0000 
     43 H          17.0398  -30.9426  -24.4054 H         1 SAH394      0.0000 
     44 H          15.4794  -30.6623  -24.1360 H         1 SAH394      0.0000 
     45 H          21.8613  -27.7368  -24.7097 H         1 SAH394      0.0000 
     46 H          20.4297  -29.7031  -25.5274 H         1 SAH394      0.0000 
@<TRIPOS>BOND
     1    2    1 1    
     2   42    1 1    
     3   43    1 1    
     4   44    1 1    
     5    3    2 1    
     6    6    2 1    
     7   27    2 1    
     8    4    3 1    
     9   28    3 1    
    10   29    3 1    
    11    5    4 1    
    12   30    4 1    
    13   31    4 1    
    14    9    5 1    
    15    7    6 ar   
    16    8    6 ar   
    17   10    9 1    
    18   32    9 1    
    19   33    9 1    
    20   11   10 1    
    21   12   10 1    
    22   34   10 1    
    23   16   11 1    
    24   13   12 1    
    25   14   12 1    
    26   35   12 1    
    27   45   13 1    
    28   15   14 1    
    29   16   14 1    
    30   36   14 1    
    31   46   15 1    
    32   17   16 1    
    33   37   16 1    
    34   18   17 1    
    35   26   17 1    
    36   19   18 2    
    37   38   18 1    
    38   20   19 1    
    39   21   20 ar   
    40   26   20 ar   
    41   22   21 1    
    42   23   21 ar   
    43   39   22 1    
    44   40   22 1    
    45   24   23 ar   
    46   25   24 ar   
    47   41   24 1    
    48   26   25 ar   
@<TRIPOS>SUBSTRUCTURE
     1 SAH394      1 GROUP   
@<TRIPOS>SET

