#    Name: 1JB9_1_CAVITY_N1_ALL.mol2
#    Modification time : Tue Mar 11 10:10:06 2014

@<TRIPOS>MOLECULE
1JB9_1_CAVITY_N1_ALL.mol2
   68     0     5     0     0
SMALL
NO_CHARGES


@<TRIPOS>ATOM
      1 CA         -1.9848   22.6609   17.9128 C.3       4 GLY6        0.0000 
      2 OG         -2.5464   23.2426   19.1762 O.2       1 SER1        0.0000 
      3 DU         -2.3159   23.9283   17.1821 H         5 CUB7        0.0000 
      4 DU         -2.8775   24.5100   18.4455 H         5 CUB7        0.0000 
      5 CA         -3.2085   25.7775   17.7147 C.3       4 GLY6        0.0000 
      6 CA         -3.0047   20.8410   18.2974 C.3       4 GLY6        0.0000 
      7 O          -2.7742   21.5267   16.3033 O.2       2 ALA2        0.0000 
      8 DU         -3.3358   22.1085   17.5667 H         5 CUB7        0.0000 
      9 CA         -3.8974   22.6902   18.8301 C.3       4 GLY6        0.0000 
     10 DU         -3.1052   22.7942   15.5725 H         5 CUB7        0.0000 
     11 DU         -3.6668   23.3759   16.8359 H         5 CUB7        0.0000 
     12 OG         -4.2284   23.9576   18.0993 O.2       1 SER1        0.0000 
     13 DU         -3.9979   24.6433   16.1052 H         5 CUB7        0.0000 
     14 CA         -4.5595   25.2251   17.3686 C.3       4 GLY6        0.0000 
     15 O          -3.7940   19.7069   16.6879 O.2       2 ALA2        0.0000 
     16 N          -4.3556   20.2886   17.9513 N.2       2 ALA2        0.0000 
     17 N          -4.9172   20.8703   19.2147 N.2       2 ALA2        0.0000 
     18 CA         -3.0019   19.8108   13.4303 C.3       4 GLY6        0.0000 
     19 O          -3.5635   20.3926   14.6937 O.2       2 ALA2        0.0000 
     20 O          -4.1251   20.9743   15.9571 O.2       2 ALA2        0.0000 
     21 DU         -4.6867   21.5560   17.2205 H         5 CUB7        0.0000 
     22 OG         -5.2483   22.1378   18.4839 O.2       1 SER1        0.0000 
     23 DU         -3.8946   21.6600   13.9630 H         5 CUB7        0.0000 
     24 DU         -4.4562   22.2417   15.2264 H         5 CUB7        0.0000 
     25 DU         -5.0177   22.8235   16.4898 H         5 CUB7        0.0000 
     26 OG         -5.5793   23.4052   17.7532 O.2       1 SER1        0.0000 
     27 CZ         -4.7872   23.5092   14.4956 C.ar      3 PHE5        0.0000 
     28 DU         -5.3488   24.0909   15.7590 H         5 CUB7        0.0000 
     29 N          -5.9104   24.6726   17.0224 N.2       2 ALA2        0.0000 
     30 DU         -5.6799   25.3584   15.0283 H         5 CUB7        0.0000 
     31 N          -6.2414   25.9401   16.2917 N.2       2 ALA2        0.0000 
     32 O          -5.1450   19.1544   16.3417 O.2       2 ALA2        0.0000 
     33 N          -5.7066   19.7362   17.6051 N.2       2 ALA2        0.0000 
     34 N          -6.2682   20.3179   18.8685 N.2       2 ALA2        0.0000 
     35 CA         -4.9144   19.8401   14.3476 C.3       4 GLY6        0.0000 
     36 CZ         -5.4760   20.4219   15.6110 C.ar      3 PHE5        0.0000 
     37 DU         -6.0376   21.0036   16.8744 H         5 CUB7        0.0000 
     38 CZ         -6.5992   21.5853   18.1378 C.ar      3 PHE5        0.0000 
     39 CZ         -5.2455   21.1076   13.6168 C.ar      3 PHE5        0.0000 
     40 CZ         -5.8071   21.6893   14.8802 C.ar      3 PHE5        0.0000 
     41 CZ         -6.3687   22.2710   16.1436 C.ar      3 PHE5        0.0000 
     42 CZ         -6.9303   22.8528   17.4070 C.ar      3 PHE5        0.0000 
     43 CZ         -6.1381   22.9568   14.1495 C.ar      3 PHE5        0.0000 
     44 CZ         -6.6997   23.5385   15.4129 C.ar      3 PHE5        0.0000 
     45 N          -7.2613   24.1202   16.6763 N.2       2 ALA2        0.0000 
     46 CZ         -6.4692   24.2242   13.4187 C.ar      3 PHE5        0.0000 
     47 N          -7.0308   24.8059   14.6821 N.2       2 ALA2        0.0000 
     48 O          -5.9343   18.0203   14.7322 O.2       2 ALA2        0.0000 
     49 OG         -6.4959   18.6020   15.9956 O.2       1 SER1        0.0000 
     50 CA         -7.0575   19.1837   17.2590 C.3       4 GLY6        0.0000 
     51 O          -7.6191   19.7655   18.5224 O.2       2 ALA2        0.0000 
     52 CZ         -6.2654   19.2877   14.0014 C.ar      3 PHE5        0.0000 
     53 CZ         -6.8270   19.8695   15.2648 C.ar      3 PHE5        0.0000 
     54 OG         -7.3886   20.4512   16.5282 O.2       1 SER1        0.0000 
     55 CZ         -7.9502   21.0329   17.7916 C.ar      3 PHE5        0.0000 
     56 CZ         -7.7196   21.7186   15.7975 C.ar      3 PHE5        0.0000 
     57 CZ         -8.2812   22.3004   17.0609 C.ar      3 PHE5        0.0000 
     58 CZ         -8.0507   22.9861   15.0667 C.ar      3 PHE5        0.0000 
     59 N          -8.6123   23.5678   16.3302 N.2       2 ALA2        0.0000 
     60 OG         -8.7395   19.8988   16.1821 O.2       1 SER1        0.0000 
     61 N          -9.3011   20.4805   17.4455 N.2       2 ALA2        0.0000 
     62 CZ         -9.0705   21.1662   15.4513 C.ar      3 PHE5        0.0000 
     63 CZ         -9.6321   21.7479   16.7148 C.ar      3 PHE5        0.0000 
     64 CZ         -9.4016   22.4336   14.7206 C.ar      3 PHE5        0.0000 
     65 N          -9.9632   23.0154   15.9840 N.2       2 ALA2        0.0000 
     66 N         -10.6520   19.9281   17.0994 N.2       2 ALA2        0.0000 
     67 OG        -10.9831   21.1955   16.3686 O.2       1 SER1        0.0000 
     68 O         -11.5447   21.7772   17.6320 O.2       2 ALA2        0.0000 
@<TRIPOS>BOND
@<TRIPOS>SUBSTRUCTURE
     1 SER1        2 GROUP   
     2 ALA2        7 GROUP   
     3 PHE5       27 GROUP   
     4 GLY6        1 GROUP   
     5 CUB7        3 GROUP   
@<TRIPOS>SET

