#    Name: 1jb9_FAD_1_INTS_M
#    Modification time : Tue Mar 25 08:41:57 2014

@<TRIPOS>MOLECULE
1jb9_FAD_1_INTS_M
   88     0    12     0     0
SMALL
NO_CHARGES


@<TRIPOS>ATOM
      1 NZ         -0.3795   28.0330   19.8280 N.4       3 LYC4        0.0000 
      2 NZ         -0.1590   27.0840   18.4900 N.4      11 LYL4        0.0000 
      3 NZ         -1.8520   29.4620   21.0900 N.4       7 LYP4        0.0000 
      4 N          -0.3795   28.0330   19.8280 N.am      2 SEC2        0.0000 
      5 N          -0.1590   27.0840   18.4900 N.am     10 SEL2        0.0000 
      6 N          -0.6000   28.9820   21.1660 N.am      6 SEP2        0.0000 
      7 N           0.2635   27.6460   20.9105 N.am      2 SEC2        0.0000 
      8 N           1.1270   26.3100   20.6550 N.am     10 SEL2        0.0000 
      9 N           0.8670   25.6070   21.8215 N.am      2 SEC2        0.0000 
     10 N           0.6070   24.9040   22.9880 N.am      6 SEP2        0.0000 
     11 CA          1.0470   21.3580   18.4310 C.3       4 GLC5        0.0000 
     12 CA          2.2220   22.6680   17.6650 C.3      12 GLL5        0.0000 
     13 CA         -0.1280   20.0480   19.1970 C.3       8 GLP5        0.0000 
     14 O           4.9405   21.9885   19.8185 O.2       1 ALC1        0.0000 
     15 O           4.0050   21.5600   18.9750 O.2       9 ALL1        0.0000 
     16 O           5.8760   22.4170   20.6620 O.2       5 ALP1        0.0000 
     17 CA          9.9065   24.0220   19.1620 C.3       4 GLC5        0.0000 
     18 CA          8.8420   25.1820   18.2360 C.3      12 GLL5        0.0000 
     19 CA         10.9710   22.8620   20.0880 C.3       8 GLP5        0.0000 
     20 CA          9.8810   23.1390   18.3385 C.3       4 GLC5        0.0000 
     21 CA          8.7910   23.4160   16.5890 C.3      12 GLL5        0.0000 
     22 N          -7.4360   18.5075   19.2365 N.am      2 SEC2        0.0000 
     23 N          -7.7690   19.5850   18.3040 N.am     10 SEL2        0.0000 
     24 N          -7.1030   17.4300   20.1690 N.am      6 SEP2        0.0000 
     25 O         -10.4740   19.3165   18.5120 O.2       1 ALC1        0.0000 
     26 O          -9.8350   20.1490   17.5750 O.2       9 ALL1        0.0000 
     27 O         -11.1130   18.4840   19.4490 O.2       5 ALP1        0.0000 
     28 N         -12.8140   22.0805   16.8405 N.am      2 SEC2        0.0000 
     29 N         -11.9380   20.6280   16.8520 N.am     10 SEL2        0.0000 
     30 N         -13.6900   23.5330   16.8290 N.am      6 SEP2        0.0000 
     31 N         -12.3120   23.1575   16.1185 N.am      2 SEC2        0.0000 
     32 N         -10.9340   22.7820   15.4080 N.am     10 SEL2        0.0000 
     33 CA        -12.6905   25.6585   10.8795 C.3       4 GLC5        0.0000 
     34 CA        -11.7290   26.5000   12.4460 C.3      12 GLL5        0.0000 
     35 CA        -13.6520   24.8170    9.3130 C.3       8 GLP5        0.0000 
     36 CA         -9.9030   28.6380   13.4725 C.3       4 GLC5        0.0000 
     37 CA         -8.8420   27.1010   12.4940 C.3      12 GLL5        0.0000 
     38 CA        -10.9640   30.1750   14.4510 C.3       8 GLP5        0.0000 
     39 CA         -7.1650   22.6940   13.9745 C.3       4 GLC5        0.0000 
     40 CA         -6.7040   23.5490   15.6660 C.3      12 GLL5        0.0000 
     41 CA         -7.6260   21.8390   12.2830 C.3       8 GLP5        0.0000 
     42 CA         -7.3680   23.7605   18.4910 C.3       4 GLC5        0.0000 
     43 CA         -6.5490   24.4460   16.9450 C.3      12 GLL5        0.0000 
     44 CA         -8.1870   23.0750   20.0370 C.3       8 GLP5        0.0000 
     45 O          -8.3830   25.7320   16.9400 O.2       1 ALC1        0.0000 
     46 O          -7.1100   25.7610   16.6630 O.2       9 ALL1        0.0000 
     47 O          -9.6560   25.7030   17.2170 O.2       5 ALP1        0.0000 
     48 CA         -4.9695   26.2515   18.5320 C.3       4 GLC5        0.0000 
     49 CA         -5.0500   24.6090   17.3680 C.3      12 GLL5        0.0000 
     50 CA         -4.8890   27.8940   19.6960 C.3       8 GLP5        0.0000 
     51 CA         -6.3520   24.4060   19.0105 C.3       4 GLC5        0.0000 
     52 CA         -7.6540   24.2030   20.6530 C.3       8 GLP5        0.0000 
     53 CA         -6.2635   23.1970   18.9000 C.3       4 GLC5        0.0000 
     54 CA         -4.3400   23.3190   17.7630 C.3      12 GLL5        0.0000 
     55 O          -5.6650   23.5845   19.9090 O.2       1 ALC1        0.0000 
     56 O          -5.0260   22.8380   18.9290 O.2       9 ALL1        0.0000 
     57 O          -6.3040   24.3310   20.8890 O.2       5 ALP1        0.0000 
     58 NZ         -2.4335   27.3375   20.8190 N.4       3 LYC4        0.0000 
     59 NZ         -2.0420   26.0390   20.9320 N.4      11 LYL4        0.0000 
     60 N          -2.4335   27.3375   20.8190 N.am      2 SEC2        0.0000 
     61 N          -2.0420   26.0390   20.9320 N.am     10 SEL2        0.0000 
     62 N          -2.8250   28.6360   20.7060 N.am      6 SEP2        0.0000 
     63 N          -1.3210   27.5105   21.0490 N.am      2 SEC2        0.0000 
     64 N          -2.1175   25.8060   22.3250 N.am      2 SEC2        0.0000 
     65 N          -2.1930   25.5730   23.7180 N.am      6 SEP2        0.0000 
     66 N          -2.7835   23.3120   22.1105 N.am      2 SEC2        0.0000 
     67 N          -1.8590   23.3910   20.9720 N.am     10 SEL2        0.0000 
     68 N          -3.7080   23.2330   23.2490 N.am      6 SEP2        0.0000 
     69 N          -2.1305   22.2150   21.4455 N.am      2 SEC2        0.0000 
     70 N          -2.4020   21.0390   21.9190 N.am      6 SEP2        0.0000 
     71 CA          2.0890   22.9378   19.8015 C.3       4 GLC5        0.0000 
     72 CA          1.2880   23.1380   21.5520 C.3       8 GLP5        0.0000 
     73 CA          7.9588   23.3915   19.4695 C.3       4 GLC5        0.0000 
     74 CA          6.8710   23.9440   17.5030 C.3      12 GLL5        0.0000 
     75 CA          8.7730   22.3380   21.0210 C.3       8 GLP5        0.0000 
     76 CA        -11.3993   24.4143   16.2855 C.3       4 GLC5        0.0000 
     77 CA        -10.3660   23.8270   14.7260 C.3      12 GLL5        0.0000 
     78 CA        -11.9940   24.6150   18.2280 C.3       8 GLP5        0.0000 
     79 CA        -11.0510   27.0740   14.5469 C.3       4 GLC5        0.0000 
     80 CA        -11.2430   24.6000   13.9600 C.3      12 GLL5        0.0000 
     81 CA        -10.7330   28.3330   16.0680 C.3       8 GLP5        0.0000 
     82 CA         -9.8317   26.9582   14.8693 C.3       4 GLC5        0.0000 
     83 CA         -9.3760   25.9670   13.3120 C.3      12 GLL5        0.0000 
     84 CA         -8.4969   25.1551   11.8164 C.3       4 GLC5        0.0000 
     85 CA        -10.7750   25.6600   13.2510 C.3      12 GLL5        0.0000 
     86 CA         -7.5350   23.8530   10.7450 C.3       8 GLP5        0.0000 
     87 CA         -8.1303   24.2530   12.5650 C.3       4 GLC5        0.0000 
     88 CA         -8.4850   25.2000   14.0290 C.3      12 GLL5        0.0000 
@<TRIPOS>BOND
@<TRIPOS>SUBSTRUCTURE
     1 ALC1       14 GROUP        1 X    ALC  0     ROOT ALC X 1
     2 SEC2        4 GROUP        1 X    SEC  0     **** SEC X 2
     3 LYC4        1 GROUP        1 X    LYC  0     **** LYC X 4
     4 GLC5       11 GROUP        1 X    GLC  0     **** GLC X 6
     5 ALP1       16 GROUP        1 Y    ALP  0     ROOT ALP Y 8
     6 SEP2        6 GROUP        1 Y    SEP  0     **** SEP Y 9
     7 LYP4        3 GROUP        1 Y    LYP  0     **** LYP Y 11
     8 GLP5       13 GROUP        1 Y    GLP  0     **** GLP Y 13
     9 ALL1       15 GROUP        1 Z    ALL  0     ROOT ALL Z 15
    10 SEL2        5 GROUP        1 Z    SEL  0     **** SEL Z 16
    11 LYL4        2 GROUP        1 Z    LYL  0     **** LYL Z 18
    12 GLL5       12 GROUP        1 Z    GLL  0     **** GLL Z 20
@<TRIPOS>SET

