#    Name: 1jb9_FAD_1_ligand
#    Modification time : Tue Mar 25 08:41:57 2014

@<TRIPOS>MOLECULE
1jb9_FAD_1_ligand
   84    89     1     0     0
SMALL
NO_CHARGES


@<TRIPOS>ATOM
      1 PA          0.5240   26.0820   19.3130 P.3       1 FAD415      0.0000 
      2 O1A        -0.1590   27.0840   18.4900 O.co2     1 FAD415      0.0000 
      3 O2A         1.1270   26.3100   20.6550 O.co2     1 FAD415      0.0000 
      4 O5B         1.6620   25.3370   18.4110 O.3       1 FAD415      0.0000 
      5 C5B         1.3870   25.0100   17.0130 C.3       1 FAD415      0.0000 
      6 C4B         2.2680   23.8170   16.6980 C.3       1 FAD415      0.0000 
      7 O4B         3.6750   24.2730   16.6920 O.3       1 FAD415      0.0000 
      8 C3B         2.2220   22.6680   17.6650 C.3       1 FAD415      0.0000 
      9 O3B         2.1660   21.5050   16.9150 O.3       1 FAD415      0.0000 
     10 C2B         3.5580   22.8070   18.4370 C.3       1 FAD415      0.0000 
     11 O2B         4.0050   21.5600   18.9750 O.3       1 FAD415      0.0000 
     12 C1B         4.4510   23.1560   17.2830 C.3       1 FAD415      0.0000 
     13 N9A         5.5370   23.9630   17.8720 N.pl3     1 FAD415      0.0000 
     14 C8A         5.3420   24.9510   18.8520 C.2       1 FAD415      0.0000 
     15 N7A         6.4900   25.5560   19.1260 N.2       1 FAD415      0.0000 
     16 C5A         7.4180   24.9460   18.3330 C.ar      1 FAD415      0.0000 
     17 C6A         8.8420   25.1820   18.2360 C.ar      1 FAD415      0.0000 
     18 N6A         9.4630   26.0430   19.0070 N.pl3     1 FAD415      0.0000 
     19 N1A         9.4450   24.4000   17.2980 N.ar      1 FAD415      0.0000 
     20 C2A         8.7910   23.4160   16.5890 C.ar      1 FAD415      0.0000 
     21 N3A         7.4950   23.1490   16.6090 N.ar      1 FAD415      0.0000 
     22 C4A         6.8710   23.9440   17.5030 C.ar      1 FAD415      0.0000 
     23 N1         -7.9020   21.4210   16.9000 N.2       1 FAD415      0.0000 
     24 C2         -8.4200   20.3720   17.6240 C.2       1 FAD415      0.0000 
     25 O2         -7.7690   19.5850   18.3040 O.2       1 FAD415      0.0000 
     26 N3         -9.8350   20.1490   17.5750 N.am      1 FAD415      0.0000 
     27 C4        -10.7370   20.8770   16.8400 C.2       1 FAD415      0.0000 
     28 O4        -11.9380   20.6280   16.8520 O.2       1 FAD415      0.0000 
     29 C4X       -10.1450   22.0090   16.0960 C.2       1 FAD415      0.0000 
     30 N5        -10.9340   22.7820   15.4080 N.2       1 FAD415      0.0000 
     31 C5X       -10.3660   23.8270   14.7260 C.ar      1 FAD415      0.0000 
     32 C6        -11.2430   24.6000   13.9600 C.ar      1 FAD415      0.0000 
     33 C7        -10.7750   25.6600   13.2510 C.ar      1 FAD415      0.0000 
     34 C7M       -11.7290   26.5000   12.4460 C.3       1 FAD415      0.0000 
     35 C8         -9.3760   25.9670   13.3120 C.ar      1 FAD415      0.0000 
     36 C8M        -8.8420   27.1010   12.4940 C.3       1 FAD415      0.0000 
     37 C9         -8.4850   25.2000   14.0290 C.ar      1 FAD415      0.0000 
     38 C9A        -8.9660   24.1060   14.7410 C.ar      1 FAD415      0.0000 
     39 N10        -8.1710   23.2710   15.5050 N.pl3     1 FAD415      0.0000 
     40 C10        -8.6950   22.2160   16.2120 C.2       1 FAD415      0.0000 
     41 C1'        -6.7040   23.5490   15.6660 C.3       1 FAD415      0.0000 
     42 C2'        -6.5490   24.4460   16.9450 C.3       1 FAD415      0.0000 
     43 O2'        -7.1100   25.7610   16.6630 O.3       1 FAD415      0.0000 
     44 C3'        -5.0500   24.6090   17.3680 C.3       1 FAD415      0.0000 
     45 O3'        -4.3360   25.0070   16.1910 O.3       1 FAD415      0.0000 
     46 C4'        -4.3400   23.3190   17.7630 C.3       1 FAD415      0.0000 
     47 O4'        -5.0260   22.8380   18.9290 O.3       1 FAD415      0.0000 
     48 C5'        -2.8730   23.5620   18.2090 C.3       1 FAD415      0.0000 
     49 O5'        -2.8450   24.7890   18.9980 O.3       1 FAD415      0.0000 
     50 P          -1.8570   24.7120   20.2820 P.3       1 FAD415      0.0000 
     51 O1P        -2.0420   26.0390   20.9320 O.co2     1 FAD415      0.0000 
     52 O2P        -1.8590   23.3910   20.9720 O.co2     1 FAD415      0.0000 
     53 O3P        -0.4030   24.7490   19.4840 O.3       1 FAD415      0.0000 
     54 H           1.6553   25.8240   16.3632 H         1 FAD415      0.0000 
     55 H           0.3576   24.7308   16.8742 H         1 FAD415      0.0000 
     56 H           2.0384   23.4524   15.7017 H         1 FAD415      0.0000 
     57 H           1.4312   22.8192   18.3332 H         1 FAD415      0.0000 
     58 H           3.4986   23.5964   19.0844 H         1 FAD415      0.0000 
     59 H           4.6875   22.4657   16.6931 H         1 FAD415      0.0000 
     60 H           4.4725   25.1315   19.2456 H         1 FAD415      0.0000 
     61 H          10.4496   26.1270   18.8673 H         1 FAD415      0.0000 
     62 H           8.8929   26.5365   19.6638 H         1 FAD415      0.0000 
     63 H           9.4268   22.8036   15.9497 H         1 FAD415      0.0000 
     64 H         -10.1955   19.3413   18.1698 H         1 FAD415      0.0000 
     65 H         -12.2456   24.3505   13.9445 H         1 FAD415      0.0000 
     66 H          -7.4884   25.4248   14.0419 H         1 FAD415      0.0000 
     67 H          -6.3242   24.0955   14.8271 H         1 FAD415      0.0000 
     68 H          -6.1584   22.6417   15.8266 H         1 FAD415      0.0000 
     69 H          -7.0760   23.9717   17.7494 H         1 FAD415      0.0000 
     70 H          -4.9607   25.3261   18.1243 H         1 FAD415      0.0000 
     71 H          -4.3645   22.6263   16.9824 H         1 FAD415      0.0000 
     72 H          -2.2656   23.6472   17.3180 H         1 FAD415      0.0000 
     73 H          -2.5576   22.7066   18.7911 H         1 FAD415      0.0000 
     74 H         -11.2595   27.2465   11.9745 H         1 FAD415      0.0000 
     75 H         -12.1990   25.9613   11.7468 H         1 FAD415      0.0000 
     76 H         -12.4349   26.9142   13.0206 H         1 FAD415      0.0000 
     77 H          -7.8563   27.2158   12.6171 H         1 FAD415      0.0000 
     78 H          -9.0010   26.9611   11.5167 H         1 FAD415      0.0000 
     79 H          -9.2712   27.9703   12.7393 H         1 FAD415      0.0000 
     80 H           2.7470   20.8540   17.4034 H         1 FAD415      0.0000 
     81 H           4.9609   21.7140   19.2252 H         1 FAD415      0.0000 
     82 H          -8.0513   25.5844   16.3751 H         1 FAD415      0.0000 
     83 H          -3.6676   25.6794   16.5089 H         1 FAD415      0.0000 
     84 H          -5.2343   23.6574   19.4630 H         1 FAD415      0.0000 
@<TRIPOS>BOND
     1    2    1 ar   
     2    3    1 ar   
     3    4    1 1    
     4   53    1 1    
     5    5    4 1    
     6    6    5 1    
     7   54    5 1    
     8   55    5 1    
     9    7    6 1    
    10    8    6 1    
    11   56    6 1    
    12   12    7 1    
    13    9    8 1    
    14   10    8 1    
    15   57    8 1    
    16   80    9 1    
    17   11   10 1    
    18   12   10 1    
    19   58   10 1    
    20   81   11 1    
    21   13   12 1    
    22   59   12 1    
    23   14   13 1    
    24   22   13 1    
    25   15   14 2    
    26   60   14 1    
    27   16   15 1    
    28   17   16 ar   
    29   22   16 ar   
    30   18   17 1    
    31   19   17 ar   
    32   61   18 1    
    33   62   18 1    
    34   20   19 ar   
    35   21   20 ar   
    36   63   20 1    
    37   22   21 ar   
    38   24   23 1    
    39   40   23 2    
    40   25   24 2    
    41   26   24 am   
    42   27   26 am   
    43   64   26 1    
    44   28   27 2    
    45   29   27 1    
    46   30   29 2    
    47   40   29 1    
    48   31   30 1    
    49   32   31 ar   
    50   38   31 ar   
    51   33   32 ar   
    52   65   32 1    
    53   34   33 1    
    54   35   33 ar   
    55   74   34 1    
    56   75   34 1    
    57   76   34 1    
    58   36   35 1    
    59   37   35 ar   
    60   77   36 1    
    61   78   36 1    
    62   79   36 1    
    63   38   37 ar   
    64   66   37 1    
    65   39   38 1    
    66   40   39 1    
    67   41   39 1    
    68   42   41 1    
    69   67   41 1    
    70   68   41 1    
    71   43   42 1    
    72   44   42 1    
    73   69   42 1    
    74   82   43 1    
    75   45   44 1    
    76   46   44 1    
    77   70   44 1    
    78   83   45 1    
    79   47   46 1    
    80   48   46 1    
    81   71   46 1    
    82   84   47 1    
    83   49   48 1    
    84   72   48 1    
    85   73   48 1    
    86   50   49 1    
    87   51   50 ar   
    88   52   50 ar   
    89   53   50 1    
@<TRIPOS>SUBSTRUCTURE
     1 FAD415      1 GROUP   
@<TRIPOS>SET

