#    Name: 1fdu_EST_4_INTS_M
#    Modification time : Tue Mar 25 01:07:20 2014

@<TRIPOS>MOLECULE
1fdu_EST_4_INTS_M
   56     0     6     0     0
SMALL
NO_CHARGES


@<TRIPOS>ATOM
      1 CA          8.2805   61.2435   11.6665 C.3       2 GLC5        0.0000 
      2 CA          7.8780   60.3930    9.6660 C.3       6 GLL5        0.0000 
      3 CA          8.6830   62.0940   13.6670 C.3       4 GLP5        0.0000 
      4 CA          6.1380   60.9325    6.1825 C.3       2 GLC5        0.0000 
      5 CA          5.8730   60.3790    8.2760 C.3       6 GLL5        0.0000 
      6 CA          6.4030   61.4860    4.0890 C.3       4 GLP5        0.0000 
      7 CA          4.7125   55.9615    5.0670 C.3       2 GLC5        0.0000 
      8 CA          5.1250   56.7800    7.0620 C.3       6 GLL5        0.0000 
      9 CA          4.3000   55.1430    3.0720 C.3       4 GLP5        0.0000 
     10 CA          8.1900   56.1610    6.5575 C.3       2 GLC5        0.0000 
     11 CA          7.2790   56.8000    8.3530 C.3       6 GLL5        0.0000 
     12 CA          9.1010   55.5220    4.7620 C.3       4 GLP5        0.0000 
     13 CA          9.5615   55.8580   10.0635 C.3       2 GLC5        0.0000 
     14 CA          8.1600   56.1320    9.4150 C.3       6 GLL5        0.0000 
     15 CA         10.9630   55.5840   10.7120 C.3       4 GLP5        0.0000 
     16 CA          9.7330   54.1405    7.4745 C.3       2 GLC5        0.0000 
     17 CA          8.3660   54.6220    9.1450 C.3       6 GLL5        0.0000 
     18 CA         11.1000   53.6590    5.8040 C.3       4 GLP5        0.0000 
     19 CA          6.9795   55.2340    6.0135 C.3       2 GLC5        0.0000 
     20 CA          6.1850   54.5300    7.9020 C.3       6 GLL5        0.0000 
     21 CA          7.7740   55.9380    4.1250 C.3       4 GLP5        0.0000 
     22 CA          4.9240   53.6450    5.4240 C.3       2 GLC5        0.0000 
     23 CA          5.1560   53.4610    7.5820 C.3       6 GLL5        0.0000 
     24 CA          4.6920   53.8290    3.2660 C.3       4 GLP5        0.0000 
     25 CA          5.2700   51.2985    9.6610 C.3       2 GLC5        0.0000 
     26 CA          5.9020   52.0890    7.8010 C.3       6 GLL5        0.0000 
     27 CA          4.6380   50.5080   11.5210 C.3       4 GLP5        0.0000 
     28 CA          4.5480   50.7395    7.1640 C.3       2 GLC5        0.0000 
     29 CA          3.1940   49.3900    6.5270 C.3       4 GLP5        0.0000 
     30 N           8.3110   50.5590    9.8805 N.am      1 SEC2        0.0000 
     31 N           8.0710   51.5600    8.9660 N.am      5 SEL2        0.0000 
     32 N           8.5510   49.5580   10.7950 N.am      3 SEP2        0.0000 
     33 CA          5.5260   51.9625   10.8885 C.3       2 GLC5        0.0000 
     34 CA          6.4140   53.4170   10.2560 C.3       6 GLL5        0.0000 
     35 CA          9.2080   59.5165   11.3680 C.3       2 GLC5        0.0000 
     36 CA          8.0160   59.0230    9.4360 C.3       6 GLL5        0.0000 
     37 CA         10.4690   59.3250   13.1850 C.3       4 GLP5        0.0000 
     38 CA          6.7693   59.3615   10.8265 C.3       2 GLC5        0.0000 
     39 CA          6.1550   58.3410   12.3300 C.3       4 GLP5        0.0000 
     40 CA          6.3712   58.4900   10.3327 C.3       2 GLC5        0.0000 
     41 CA          7.1310   58.2840    8.6280 C.3       6 GLL5        0.0000 
     42 CA          6.6585   56.1668    5.8490 C.3       2 GLC5        0.0000 
     43 CA          5.9610   56.0110    8.0840 C.3       6 GLL5        0.0000 
     44 CA          6.3485   56.1273   10.3342 C.3       2 GLC5        0.0000 
     45 CA          6.0770   55.8490   12.4500 C.3       4 GLP5        0.0000 
     46 CA          9.2907   57.7430    8.2525 C.3       2 GLC5        0.0000 
     47 CA         10.8620   59.0200    7.6210 C.3       4 GLP5        0.0000 
     48 CA          7.1700   55.6130   10.8650 C.3       2 GLC5        0.0000 
     49 CA          9.4887   54.2383    9.5597 C.3       2 GLC5        0.0000 
     50 CA         11.2530   54.2440   10.0720 C.3       4 GLP5        0.0000 
     51 CA          6.4127   54.7395   11.0265 C.3       2 GLC5        0.0000 
     52 CA          7.4400   51.0882    6.9260 C.3       2 GLC5        0.0000 
     53 CA          7.3300   52.4940    8.2130 C.3       6 GLL5        0.0000 
     54 CA          8.2640   49.8850    5.8450 C.3       4 GLP5        0.0000 
     55 CA          7.5961   53.3034   11.3944 C.3       2 GLC5        0.0000 
     56 CA          8.1230   52.7820   13.1370 C.3       4 GLP5        0.0000 
@<TRIPOS>BOND
@<TRIPOS>SUBSTRUCTURE
     1 SEC2       30 GROUP        1 X    SEC  0     ROOT SEC X 2
     2 GLC5        1 GROUP        1 X    GLC  0     **** GLC X 6
     3 SEP2       32 GROUP        1 Y    SEP  0     ROOT SEP Y 9
     4 GLP5        3 GROUP        1 Y    GLP  0     **** GLP Y 13
     5 SEL2       31 GROUP        1 Z    SEL  0     ROOT SEL Z 16
     6 GLL5        2 GROUP        1 Z    GLL  0     **** GLL Z 20
@<TRIPOS>SET

