#    Name: 1fdu_EST_4_ligand
#    Modification time : Tue Mar 25 01:07:20 2014

@<TRIPOS>MOLECULE
1fdu_EST_4_ligand
   44    47     1     0     0
SMALL
NO_CHARGES


@<TRIPOS>ATOM
      1 C1          8.0160   59.0230    9.4360 C.ar      1 EST352      0.0000 
      2 C2          7.8780   60.3930    9.6660 C.ar      1 EST352      0.0000 
      3 C3          6.8200   61.0560    9.0950 C.ar      1 EST352      0.0000 
      4 O3          6.6070   62.4210    9.2720 O.3       1 EST352      0.0000 
      5 C4          5.8730   60.3790    8.2760 C.ar      1 EST352      0.0000 
      6 C5          6.0440   58.9940    8.0430 C.ar      1 EST352      0.0000 
      7 C6          5.0420   58.2770    7.1800 C.3       1 EST352      0.0000 
      8 C7          5.1250   56.7800    7.0620 C.3       1 EST352      0.0000 
      9 C8          5.9610   56.0110    8.0840 C.3       1 EST352      0.0000 
     10 C9          7.2790   56.8000    8.3530 C.3       1 EST352      0.0000 
     11 C10         7.1310   58.2840    8.6280 C.ar      1 EST352      0.0000 
     12 C11         8.1600   56.1320    9.4150 C.3       1 EST352      0.0000 
     13 C12         8.3660   54.6220    9.1450 C.3       1 EST352      0.0000 
     14 C13         7.0830   53.8430    8.9500 C.3       1 EST352      0.0000 
     15 C14         6.1850   54.5300    7.9020 C.3       1 EST352      0.0000 
     16 C15         5.1560   53.4610    7.5820 C.3       1 EST352      0.0000 
     17 C16         5.9020   52.0890    7.8010 C.3       1 EST352      0.0000 
     18 C17         7.3300   52.4940    8.2130 C.3       1 EST352      0.0000 
     19 O17         8.0710   51.5600    8.9660 O.3       1 EST352      0.0000 
     20 C18         6.4140   53.4170   10.2560 C.3       1 EST352      0.0000 
     21 H           8.8152   58.5158    9.8841 H         1 EST352      0.0000 
     22 H           8.5577   60.8838   10.2503 H         1 EST352      0.0000 
     23 H           5.0961   60.8805    7.8712 H         1 EST352      0.0000 
     24 H           5.0849   58.7195    6.1414 H         1 EST352      0.0000 
     25 H           4.0051   58.5497    7.5361 H         1 EST352      0.0000 
     26 H           5.5054   56.5169    6.0353 H         1 EST352      0.0000 
     27 H           4.0820   56.3557    7.0784 H         1 EST352      0.0000 
     28 H           5.3896   56.1341    9.0839 H         1 EST352      0.0000 
     29 H           7.8815   56.7176    7.3857 H         1 EST352      0.0000 
     30 H           7.6960   56.2525   10.3969 H         1 EST352      0.0000 
     31 H           9.1369   56.6213    9.4336 H         1 EST352      0.0000 
     32 H           8.9318   54.1950    9.9906 H         1 EST352      0.0000 
     33 H           9.0016   54.5159    8.2493 H         1 EST352      0.0000 
     34 H           6.9273   54.4411    6.9458 H         1 EST352      0.0000 
     35 H           4.8568   53.5198    6.5650 H         1 EST352      0.0000 
     36 H           4.3403   53.5095    8.2600 H         1 EST352      0.0000 
     37 H           5.9216   51.5641    6.8856 H         1 EST352      0.0000 
     38 H           5.4293   51.5681    8.5879 H         1 EST352      0.0000 
     39 H           7.8346   52.7871    7.2730 H         1 EST352      0.0000 
     40 H           7.0099   52.8303   10.8044 H         1 EST352      0.0000 
     41 H           6.1740   54.2040   10.8243 H         1 EST352      0.0000 
     42 H           5.5703   52.9060   10.0916 H         1 EST352      0.0000 
     43 H           7.1844   62.9984    9.8494 H         1 EST352      0.0000 
     44 H           8.7434   51.1873    8.3265 H         1 EST352      0.0000 
@<TRIPOS>BOND
     1    2    1 ar   
     2   11    1 ar   
     3   21    1 1    
     4    3    2 ar   
     5   22    2 1    
     6    4    3 1    
     7    5    3 ar   
     8   43    4 1    
     9    6    5 ar   
    10   23    5 1    
    11    7    6 1    
    12   11    6 ar   
    13    8    7 1    
    14   24    7 1    
    15   25    7 1    
    16    9    8 1    
    17   26    8 1    
    18   27    8 1    
    19   10    9 1    
    20   15    9 1    
    21   28    9 1    
    22   11   10 1    
    23   12   10 1    
    24   29   10 1    
    25   13   12 1    
    26   30   12 1    
    27   31   12 1    
    28   14   13 1    
    29   32   13 1    
    30   33   13 1    
    31   15   14 1    
    32   18   14 1    
    33   20   14 1    
    34   16   15 1    
    35   34   15 1    
    36   17   16 1    
    37   35   16 1    
    38   36   16 1    
    39   18   17 1    
    40   37   17 1    
    41   38   17 1    
    42   19   18 1    
    43   39   18 1    
    44   44   19 1    
    45   40   20 1    
    46   41   20 1    
    47   42   20 1    
@<TRIPOS>SUBSTRUCTURE
     1 EST352      1 GROUP   
@<TRIPOS>SET

