#    Name: 4gom_0Y0_3_INTS_M
#    Modification time : Mon Mar 24 23:27:43 2014

@<TRIPOS>MOLECULE
4gom_0Y0_3_INTS_M
   57     0    12     0     0
SMALL
NO_CHARGES


@<TRIPOS>ATOM
      1 N          91.5315   21.9570   71.6540 N.am      2 SEC2        0.0000 
      2 N          92.6830   22.4080   71.0420 N.am     10 SEL2        0.0000 
      3 N          90.3800   21.5060   72.2660 N.am      6 SEP2        0.0000 
      4 CA         92.1845   24.0290   68.8860 C.3       4 GLC5        0.0000 
      5 CA         93.2220   24.6440   70.2790 C.3      12 GLL5        0.0000 
      6 CA         91.1470   23.4140   67.4930 C.3       8 GLP5        0.0000 
      7 OD1        91.8225   26.4435   71.2125 O.co2     3 ASC3        0.0000 
      8 OD1        91.9410   25.1170   70.8280 O.co2    11 ASL3        0.0000 
      9 OD1        91.7040   27.7700   71.5970 O.co2     7 ASP3        0.0000 
     10 O          91.8225   26.4435   71.2125 O.2       1 ALC1        0.0000 
     11 O          91.9410   25.1170   70.8280 O.2       9 ALL1        0.0000 
     12 O          91.7040   27.7700   71.5970 O.2       5 ALP1        0.0000 
     13 O          91.3110   24.8425   72.1580 O.2       1 ALC1        0.0000 
     14 O          90.6810   24.5680   73.4880 O.2       5 ALP1        0.0000 
     15 CA         93.0160   23.5300   73.4390 C.3       4 GLC5        0.0000 
     16 CA         94.2880   24.9750   72.6540 C.3      12 GLL5        0.0000 
     17 CA         91.7440   22.0850   74.2240 C.3       8 GLP5        0.0000 
     18 CA         93.6200   23.9380   75.6800 C.3       4 GLC5        0.0000 
     19 CA         95.2050   24.8330   74.8640 C.3      12 GLL5        0.0000 
     20 CA         92.0350   23.0430   76.4960 C.3       8 GLP5        0.0000 
     21 N          99.5985   25.3870   74.5125 N.am      2 SEC2        0.0000 
     22 N          98.5360   25.4350   75.8200 N.am     10 SEL2        0.0000 
     23 N         100.6610   25.3390   73.2050 N.am      6 SEP2        0.0000 
     24 O          99.1365   25.4450   77.4600 O.2       1 ALC1        0.0000 
     25 O          98.5360   25.4350   75.8200 O.2       9 ALL1        0.0000 
     26 O          99.7370   25.4550   79.1000 O.2       5 ALP1        0.0000 
     27 O          98.7120   26.2575   76.7870 O.2       1 ALC1        0.0000 
     28 O          98.8880   27.0800   77.7540 O.2       5 ALP1        0.0000 
     29 O          99.2945   24.4500   78.2525 O.2       1 ALC1        0.0000 
     30 O          98.8520   23.4450   77.4050 O.2       9 ALL1        0.0000 
     31 CA         94.9115   25.2725   78.3160 C.3       4 GLC5        0.0000 
     32 CA         96.6760   24.3210   77.8830 C.3      12 GLL5        0.0000 
     33 CA         93.1470   26.2240   78.7490 C.3       8 GLP5        0.0000 
     34 CA         97.5285   23.3535   79.5935 C.3       4 GLC5        0.0000 
     35 CA         98.3810   22.3860   81.3040 C.3       8 GLP5        0.0000 
     36 N          97.2165   25.4350   81.2115 N.am      2 SEC2        0.0000 
     37 N          95.6090   25.3540   80.5930 N.am     10 SEL2        0.0000 
     38 N          98.8240   25.5160   81.8300 N.am      6 SEP2        0.0000 
     39 CA         96.5890   24.4190   82.1625 C.3       4 GLC5        0.0000 
     40 CA         95.0510   25.6040   81.8020 C.3      12 GLL5        0.0000 
     41 CA         98.1270   23.2340   82.5230 C.3       8 GLP5        0.0000 
     42 CA         94.9100   25.7210   83.9395 C.3       4 GLC5        0.0000 
     43 CA         94.7690   25.8380   86.0770 C.3       8 GLP5        0.0000 
     44 CA         93.5685   26.7305   82.9960 C.3       4 GLC5        0.0000 
     45 CA         92.0860   27.8570   84.1900 C.3       8 GLP5        0.0000 
     46 N          93.6870   25.7175   83.5650 N.am      2 SEC2        0.0000 
     47 N          94.3540   24.6380   82.4710 N.am     10 SEL2        0.0000 
     48 N          93.0200   26.7970   84.6590 N.am      6 SEP2        0.0000 
     49 CA         96.1765   23.3195   82.2300 C.3       4 GLC5        0.0000 
     50 CA         94.2260   23.4050   81.9370 C.3      12 GLL5        0.0000 
     51 CA         93.2565   26.3208   69.5113 C.3       4 GLC5        0.0000 
     52 CA         94.4000   25.1590   71.1500 C.3      12 GLL5        0.0000 
     53 CA         92.7020   27.7400   68.3080 C.3       8 GLP5        0.0000 
     54 CA         94.8975   26.5587   76.2925 C.3       4 GLC5        0.0000 
     55 CA         94.0920   28.0690   77.2460 C.3       8 GLP5        0.0000 
     56 CA         96.7643   23.0035   80.8335 C.3       4 GLC5        0.0000 
     57 CA         95.5000   24.1300   80.0230 C.3      12 GLL5        0.0000 
@<TRIPOS>BOND
@<TRIPOS>SUBSTRUCTURE
     1 ALC1       10 GROUP        1 X    ALC  0     ROOT ALC X 1
     2 SEC2        1 GROUP        1 X    SEC  0     **** SEC X 2
     3 ASC3        7 GROUP        1 X    ASC  0     **** ASC X 3
     4 GLC5        4 GROUP        1 X    GLC  0     **** GLC X 6
     5 ALP1       12 GROUP        1 Y    ALP  0     ROOT ALP Y 8
     6 SEP2        3 GROUP        1 Y    SEP  0     **** SEP Y 9
     7 ASP3        9 GROUP        1 Y    ASP  0     **** ASP Y 10
     8 GLP5        6 GROUP        1 Y    GLP  0     **** GLP Y 13
     9 ALL1       11 GROUP        1 Z    ALL  0     ROOT ALL Z 15
    10 SEL2        2 GROUP        1 Z    SEL  0     **** SEL Z 16
    11 ASL3        8 GROUP        1 Z    ASL  0     **** ASL Z 17
    12 GLL5        5 GROUP        1 Z    GLL  0     **** GLL Z 20
@<TRIPOS>SET

