#    Name: 4gom_0Y0_3_ligand
#    Modification time : Mon Mar 24 23:27:43 2014

@<TRIPOS>MOLECULE
4gom_0Y0_3_ligand
   46    48     1     0     0
SMALL
NO_CHARGES


@<TRIPOS>ATOM
      1 O          92.6830   22.4080   71.0420 O.co2     1 0Y0301      0.0000 
      2 C          93.3550   23.1670   70.2540 C.2       1 0Y0301      0.0000 
      3 OXT        94.1880   22.6120   69.4160 O.co2     1 0Y0301      0.0000 
      4 CA         93.2220   24.6440   70.2790 C.3       1 0Y0301      0.0000 
      5 N          91.9410   25.1170   70.8280 N.4       1 0Y0301      0.0000 
      6 CB         94.4000   25.1590   71.1500 C.3       1 0Y0301      0.0000 
      7 CAS        94.2880   24.9750   72.6540 C.3       1 0Y0301      0.0000 
      8 NAR        95.5000   24.9340   73.4280 N.4       1 0Y0301      0.0000 
      9 CAF        95.2050   24.8330   74.8640 C.3       1 0Y0301      0.0000 
     10 CAA        96.2010   25.2640   75.8140 C.3       1 0Y0301      0.0000 
     11 OAE        95.6350   24.9230   77.0830 O.3       1 0Y0301      0.0000 
     12 CAB        97.5140   24.5380   75.7590 C.3       1 0Y0301      0.0000 
     13 OAH        98.5360   25.4350   75.8200 O.3       1 0Y0301      0.0000 
     14 CAC        97.5660   23.6140   76.9180 C.3       1 0Y0301      0.0000 
     15 OAI        98.8520   23.4450   77.4050 O.3       1 0Y0301      0.0000 
     16 CAD        96.6760   24.3210   77.8830 C.3       1 0Y0301      0.0000 
     17 N9         95.9580   23.5550   78.8880 N.pl3     1 0Y0301      0.0000 
     18 C8         95.5230   22.2670   78.8210 C.2       1 0Y0301      0.0000 
     19 N7         94.8340   22.0050   79.9510 N.2       1 0Y0301      0.0000 
     20 C5         94.7950   23.1120   80.7030 C.ar      1 0Y0301      0.0000 
     21 C4         95.5000   24.1300   80.0230 C.ar      1 0Y0301      0.0000 
     22 N3         95.6090   25.3540   80.5930 N.ar      1 0Y0301      0.0000 
     23 C2         95.0510   25.6040   81.8020 C.ar      1 0Y0301      0.0000 
     24 N1         94.3540   24.6380   82.4710 N.ar      1 0Y0301      0.0000 
     25 C6         94.2260   23.4050   81.9370 C.ar      1 0Y0301      0.0000 
     26 N6         93.4930   22.3260   82.6370 N.pl3     1 0Y0301      0.0000 
     27 H          93.3862   25.0356   69.2848 H         1 0Y0301      0.0000 
     28 H          94.5420   26.2427   70.9247 H         1 0Y0301      0.0000 
     29 H          95.3323   24.6624   70.7902 H         1 0Y0301      0.0000 
     30 H          93.6801   24.0353   72.8296 H         1 0Y0301      0.0000 
     31 H          93.6057   25.7933   73.0391 H         1 0Y0301      0.0000 
     32 H          94.9130   23.7541   75.0911 H         1 0Y0301      0.0000 
     33 H          94.2297   25.3889   75.0657 H         1 0Y0301      0.0000 
     34 H          96.3609   26.3145   75.7705 H         1 0Y0301      0.0000 
     35 H          97.5233   23.9477   74.8522 H         1 0Y0301      0.0000 
     36 H          97.0751   22.7025   76.6328 H         1 0Y0301      0.0000 
     37 H          97.2272   25.1360   78.3525 H         1 0Y0301      0.0000 
     38 H          95.6818   21.6590   78.0958 H         1 0Y0301      0.0000 
     39 H          95.1527   26.5508   82.2347 H         1 0Y0301      0.0000 
     40 H          93.4682   21.4395   82.1750 H         1 0Y0301      0.0000 
     41 H          93.0821   22.5711   83.5151 H         1 0Y0301      0.0000 
     42 H          91.2449   25.2133   70.1166 H         1 0Y0301      0.0000 
     43 H          91.5750   24.4867   71.5128 H         1 0Y0301      0.0000 
     44 H          92.0333   26.0091   71.2704 H         1 0Y0301      0.0000 
     45 H          98.3789   25.9492   76.6631 H         1 0Y0301      0.0000 
     46 H          99.0003   24.2206   78.0186 H         1 0Y0301      0.0000 
@<TRIPOS>BOND
     1    2    1 ar   
     2    3    2 ar   
     3    4    2 1    
     4    5    4 1    
     5    6    4 1    
     6   27    4 1    
     7   42    5 1    
     8   43    5 1    
     9   44    5 1    
    10    7    6 1    
    11   28    6 1    
    12   29    6 1    
    13    8    7 1    
    14   30    7 1    
    15   31    7 1    
    16    9    8 1    
    17   10    9 1    
    18   32    9 1    
    19   33    9 1    
    20   11   10 1    
    21   12   10 1    
    22   34   10 1    
    23   16   11 1    
    24   13   12 1    
    25   14   12 1    
    26   35   12 1    
    27   45   13 1    
    28   15   14 1    
    29   16   14 1    
    30   36   14 1    
    31   46   15 1    
    32   17   16 1    
    33   37   16 1    
    34   18   17 1    
    35   21   17 1    
    36   19   18 2    
    37   38   18 1    
    38   20   19 1    
    39   21   20 ar   
    40   25   20 ar   
    41   22   21 ar   
    42   23   22 ar   
    43   24   23 ar   
    44   39   23 1    
    45   25   24 ar   
    46   26   25 1    
    47   40   26 1    
    48   41   26 1    
@<TRIPOS>SUBSTRUCTURE
     1 0Y0301      1 GROUP   
@<TRIPOS>SET

