#    Name: 3h5n_ATP_4_INTS_M
#    Modification time : Tue Mar 25 13:37:56 2014

@<TRIPOS>MOLECULE
3h5n_ATP_4_INTS_M
   70     0    15     0     0
SMALL
NO_CHARGES


@<TRIPOS>ATOM
      1 NZ         32.7475   -5.3245   45.5185 N.4       3 LYC4        0.0000 
      2 NZ         32.8530   -7.2870   45.6510 N.4      13 LYL4        0.0000 
      3 NZ         32.6420   -3.3620   45.3860 N.4       8 LYP4        0.0000 
      4 N          33.7925   -6.6335   46.3250 N.am      2 SEC2        0.0000 
      5 N          32.8530   -7.2870   45.6510 N.am     12 SEL2        0.0000 
      6 N          34.7320   -5.9800   46.9990 N.am      7 SEP2        0.0000 
      7 Zn         30.0000   -9.1635   46.8145 Zn        4 ZIC7        0.0000 
      8 Zn         31.1200   -9.0210   46.3090 Zn       14 ZIL7        0.0000 
      9 Zn         28.8800   -9.3060   47.3200 Zn        9 ZIP7        0.0000 
     10 NZ         31.3140   -6.6170   51.2860 N.4       3 LYC4        0.0000 
     11 NZ         31.8200   -7.3250   50.2740 N.4      13 LYL4        0.0000 
     12 NZ         30.8080   -5.9090   52.2980 N.4       8 LYP4        0.0000 
     13 N          33.1980   -6.4215   50.0565 N.am      2 SEC2        0.0000 
     14 N          31.8200   -7.3250   50.2740 N.am     12 SEL2        0.0000 
     15 N          34.5760   -5.5180   49.8390 N.am      7 SEP2        0.0000 
     16 N          31.3140   -6.6170   51.2860 N.am      2 SEC2        0.0000 
     17 N          30.8080   -5.9090   52.2980 N.am      7 SEP2        0.0000 
     18 Zn         29.5325   -9.0815   48.1350 Zn        4 ZIC7        0.0000 
     19 Zn         30.1850   -8.8570   48.9500 Zn       14 ZIL7        0.0000 
     20 N          28.5460   -3.5220   48.0530 N.am      2 SEC2        0.0000 
     21 N          28.8110   -4.8570   47.3480 N.am     12 SEL2        0.0000 
     22 N          28.2810   -2.1870   48.7580 N.am      7 SEP2        0.0000 
     23 Zn         28.6180   -8.3620   47.3140 Zn        4 ZIC7        0.0000 
     24 Zn         28.3560   -7.4180   47.3080 Zn       14 ZIL7        0.0000 
     25 N          30.6430   -4.9585   49.2425 N.am      2 SEC2        0.0000 
     26 N          29.7510   -6.3390   49.1820 N.am     12 SEL2        0.0000 
     27 N          31.5350   -3.5780   49.3030 N.am      7 SEP2        0.0000 
     28 CA         24.8145   -6.0720   52.1430 C.3       5 GLC5        0.0000 
     29 CA         26.3950   -6.8100   51.0160 C.3      15 GLL5        0.0000 
     30 CA         23.2340   -5.3340   53.2700 C.3      10 GLP5        0.0000 
     31 N          29.5015   -6.2010   52.4595 N.am      2 SEC2        0.0000 
     32 N          28.1950   -6.4930   52.6210 N.am     12 SEL2        0.0000 
     33 O          27.4130   -6.3085   53.7055 O.2       1 ALC1        0.0000 
     34 O          28.1950   -6.4930   52.6210 O.2      11 ALL1        0.0000 
     35 O          26.6310   -6.1240   54.7900 O.2       6 ALP1        0.0000 
     36 O          27.7670   -8.3870   54.6330 O.2       1 ALC1        0.0000 
     37 O          27.9690   -8.9650   53.4560 O.2      11 ALL1        0.0000 
     38 O          27.5650   -7.8090   55.8100 O.2       6 ALP1        0.0000 
     39 O          27.3000   -7.5445   54.1230 O.2       1 ALC1        0.0000 
     40 CA         24.4920   -6.8985   52.8915 C.3       5 GLC5        0.0000 
     41 CA         25.7500   -8.4630   52.5130 C.3      15 GLL5        0.0000 
     42 CA         23.6090   -8.6495   52.1105 C.3       5 GLC5        0.0000 
     43 CA         21.4680   -8.8360   51.7080 C.3      10 GLP5        0.0000 
     44 N          23.4945  -12.2225   50.2710 N.am      2 SEC2        0.0000 
     45 N          24.0660  -11.6310   51.7560 N.am     12 SEL2        0.0000 
     46 N          22.9230  -12.8140   48.7860 N.am      7 SEP2        0.0000 
     47 CA         23.2280  -12.4730   56.0390 C.3       5 GLC5        0.0000 
     48 CA         22.7200  -12.1010   53.9740 C.3      15 GLL5        0.0000 
     49 CA         23.7360  -12.8450   58.1040 C.3      10 GLP5        0.0000 
     50 CA         21.0085  -12.7350   55.0280 C.3       5 GLC5        0.0000 
     51 CA         19.2970  -13.3690   56.0820 C.3      10 GLP5        0.0000 
     52 O          21.5905  -14.3895   54.3685 O.2       1 ALC1        0.0000 
     53 O          22.1190  -13.2760   53.6760 O.2      11 ALL1        0.0000 
     54 O          21.0620  -15.5030   55.0610 O.2       6 ALP1        0.0000 
     55 O          22.2365  -13.7650   52.4240 O.2       1 ALC1        0.0000 
     56 O          22.3540  -14.2540   51.1720 O.2       6 ALP1        0.0000 
     57 N          22.0550  -12.4550   56.1505 N.am      2 SEC2        0.0000 
     58 N          22.5300  -11.5150   55.1790 N.am     12 SEL2        0.0000 
     59 N          21.5800  -13.3950   57.1220 N.am      7 SEP2        0.0000 
     60 CA         23.4255  -11.5965   56.8135 C.3       5 GLC5        0.0000 
     61 CA         23.1150  -10.3480   55.5230 C.3      15 GLL5        0.0000 
     62 CA         21.1095  -11.1400   56.0645 C.3       5 GLC5        0.0000 
     63 CA         19.1040  -11.9320   56.6060 C.3      10 GLP5        0.0000 
     64 CA         22.2915   -9.5920   53.6155 C.3       5 GLC5        0.0000 
     65 CA         27.5930   -5.1785   50.9356 C.3       5 GLC5        0.0000 
     66 CA         28.1520   -3.2260   50.9310 C.3      10 GLP5        0.0000 
     67 CA         21.4782  -11.8167   52.4853 C.3       5 GLC5        0.0000 
     68 CA         23.6190  -11.4160   53.0110 C.3      15 GLL5        0.0000 
     69 CA         19.7870  -11.8750   51.4780 C.3      10 GLP5        0.0000 
     70 CA         22.5824   -9.8964   52.5931 C.3       5 GLC5        0.0000 
@<TRIPOS>BOND
@<TRIPOS>SUBSTRUCTURE
     1 ALC1       33 GROUP        1 X    ALC  0     ROOT ALC X 1
     2 SEC2        4 GROUP        1 X    SEC  0     **** SEC X 2
     3 LYC4        1 GROUP        1 X    LYC  0     **** LYC X 4
     4 ZIC7        7 GROUP        1 X    ZIC  0     **** ZIC X 5
     5 GLC5       28 GROUP        1 X    GLC  0     **** GLC X 6
     6 ALP1       35 GROUP        1 Y    ALP  0     ROOT ALP Y 8
     7 SEP2        6 GROUP        1 Y    SEP  0     **** SEP Y 9
     8 LYP4        3 GROUP        1 Y    LYP  0     **** LYP Y 11
     9 ZIP7        9 GROUP        1 Y    ZIP  0     **** ZIP Y 12
    10 GLP5       30 GROUP        1 Y    GLP  0     **** GLP Y 13
    11 ALL1       34 GROUP        1 Z    ALL  0     ROOT ALL Z 15
    12 SEL2        5 GROUP        1 Z    SEL  0     **** SEL Z 16
    13 LYL4        2 GROUP        1 Z    LYL  0     **** LYL Z 18
    14 ZIL7        8 GROUP        1 Z    ZIL  0     **** ZIL Z 19
    15 GLL5       29 GROUP        1 Z    GLL  0     **** GLL Z 20
@<TRIPOS>SET

