#    Name: 3h5n_ATP_4_ligand
#    Modification time : Tue Mar 25 13:37:57 2014

@<TRIPOS>MOLECULE
3h5n_ATP_4_ligand
   43    45     1     0     0
SMALL
NO_CHARGES


@<TRIPOS>ATOM
      1 PG         32.3010   -8.1870   46.7450 P.3       1 ATP502      0.0000 
      2 O1G        33.3400   -8.9740   47.4990 O.co2     1 ATP502      0.0000 
      3 O2G        32.8530   -7.2870   45.6510 O.co2     1 ATP502      0.0000 
      4 O3G        31.1200   -9.0210   46.3090 O.co2     1 ATP502      0.0000 
      5 PB         30.8710   -7.5130   49.1130 P.3       1 ATP502      0.0000 
      6 O1B        31.8200   -7.3250   50.2740 O.co2     1 ATP502      0.0000 
      7 O2B        30.1850   -8.8570   48.9500 O.co2     1 ATP502      0.0000 
      8 O3B        31.7120   -7.1110   47.7950 O.3       1 ATP502      0.0000 
      9 PA         28.5560   -6.1420   48.0890 P.3       1 ATP502      0.0000 
     10 O1A        28.8110   -4.8570   47.3480 O.co2     1 ATP502      0.0000 
     11 O2A        28.3560   -7.4180   47.3080 O.co2     1 ATP502      0.0000 
     12 O3A        29.7510   -6.3390   49.1820 O.3       1 ATP502      0.0000 
     13 O5'        27.2510   -5.8930   49.0030 O.3       1 ATP502      0.0000 
     14 C5'        26.4110   -6.9380   49.4950 C.3       1 ATP502      0.0000 
     15 C4'        26.3950   -6.8100   51.0160 C.3       1 ATP502      0.0000 
     16 O4'        25.2820   -7.5520   51.5140 O.3       1 ATP502      0.0000 
     17 C3'        27.6650   -7.3880   51.6250 C.3       1 ATP502      0.0000 
     18 O3'        28.1950   -6.4930   52.6210 O.3       1 ATP502      0.0000 
     19 C2'        27.2310   -8.6920   52.2560 C.3       1 ATP502      0.0000 
     20 O2'        27.9690   -8.9650   53.4560 O.3       1 ATP502      0.0000 
     21 C1'        25.7500   -8.4630   52.5130 C.3       1 ATP502      0.0000 
     22 N9         24.9690   -9.7190   52.4530 N.pl3     1 ATP502      0.0000 
     23 C8         24.8840  -10.5990   51.4280 C.2       1 ATP502      0.0000 
     24 N7         24.0660  -11.6310   51.7560 N.2       1 ATP502      0.0000 
     25 C5         23.6190  -11.4160   53.0110 C.ar      1 ATP502      0.0000 
     26 C6         22.7200  -12.1010   53.9740 C.ar      1 ATP502      0.0000 
     27 N6         22.1190  -13.2760   53.6760 N.pl3     1 ATP502      0.0000 
     28 N1         22.5300  -11.5150   55.1790 N.ar      1 ATP502      0.0000 
     29 C2         23.1150  -10.3480   55.5230 C.ar      1 ATP502      0.0000 
     30 N3         23.9390   -9.6730   54.7000 N.ar      1 ATP502      0.0000 
     31 C4         24.2240  -10.1550   53.4640 C.ar      1 ATP502      0.0000 
     32 H          26.7940   -7.9207   49.2443 H         1 ATP502      0.0000 
     33 H          25.3915   -6.8429   49.1389 H         1 ATP502      0.0000 
     34 H          26.3224   -5.7768   51.2757 H         1 ATP502      0.0000 
     35 H          28.3505   -7.5940   50.8441 H         1 ATP502      0.0000 
     36 H          27.3225   -9.4594   51.5180 H         1 ATP502      0.0000 
     37 H          25.6502   -8.0169   53.4953 H         1 ATP502      0.0000 
     38 H          25.3454  -10.5062   50.5725 H         1 ATP502      0.0000 
     39 H          21.9425  -13.8879   54.4470 H         1 ATP502      0.0000 
     40 H          21.9046  -13.4283   52.7112 H         1 ATP502      0.0000 
     41 H          22.9153   -9.9461   56.4857 H         1 ATP502      0.0000 
     42 H          27.4967   -6.4589   53.3360 H         1 ATP502      0.0000 
     43 H          27.5952   -8.3366   54.1382 H         1 ATP502      0.0000 
@<TRIPOS>BOND
     1    2    1 ar   
     2    3    1 ar   
     3    4    1 ar   
     4    8    1 1    
     5    6    5 ar   
     6    7    5 ar   
     7    8    5 1    
     8   12    5 1    
     9   10    9 ar   
    10   11    9 ar   
    11   12    9 1    
    12   13    9 1    
    13   14   13 1    
    14   15   14 1    
    15   32   14 1    
    16   33   14 1    
    17   16   15 1    
    18   17   15 1    
    19   34   15 1    
    20   21   16 1    
    21   18   17 1    
    22   19   17 1    
    23   35   17 1    
    24   42   18 1    
    25   20   19 1    
    26   21   19 1    
    27   36   19 1    
    28   43   20 1    
    29   22   21 1    
    30   37   21 1    
    31   23   22 1    
    32   31   22 1    
    33   24   23 2    
    34   38   23 1    
    35   25   24 1    
    36   26   25 ar   
    37   31   25 ar   
    38   27   26 1    
    39   28   26 ar   
    40   39   27 1    
    41   40   27 1    
    42   29   28 ar   
    43   30   29 ar   
    44   41   29 1    
    45   31   30 ar   
@<TRIPOS>SUBSTRUCTURE
     1 ATP502      1 GROUP   
@<TRIPOS>SET

