#    Name: 3rll_RLL_1_INTS_M
#    Modification time : Mon Apr  7 20:26:40 2014

@<TRIPOS>MOLECULE
3rll_RLL_1_INTS_M
  105     0     9     0     0
SMALL
NO_CHARGES


@<TRIPOS>ATOM
      1 CA         30.0560   -1.6040    1.0530 C.3       3 GLC5        0.0000 
      2 CA         29.3660   -1.0770    2.7010 C.3       9 GLL5        0.0000 
      3 CA         30.7460   -2.1310   -0.5950 C.3       6 GLP5        0.0000 
      4 CA         27.5915   -1.4330    1.9905 C.3       3 GLC5        0.0000 
      5 CA         25.8170   -1.7890    1.2800 C.3       6 GLP5        0.0000 
      6 CA         28.9005   -2.8645    1.9820 C.3       3 GLC5        0.0000 
      7 CA         28.4350   -4.6520    1.2630 C.3       6 GLP5        0.0000 
      8 N          25.2025    8.3770    4.3315 N.am      2 SEC2        0.0000 
      9 N          23.9830    7.2500    4.1600 N.am      8 SEL2        0.0000 
     10 N          26.4220    9.5040    4.5030 N.am      5 SEP2        0.0000 
     11 N          23.4935    8.6240    3.6560 N.am      2 SEC2        0.0000 
     12 N          23.0040    9.9980    3.1520 N.am      5 SEP2        0.0000 
     13 N          27.3855    0.5550   12.9410 N.am      2 SEC2        0.0000 
     14 N          28.5000    0.2350   12.1990 N.am      8 SEL2        0.0000 
     15 N          26.2710    0.8750   13.6830 N.am      5 SEP2        0.0000 
     16 O          31.7715    0.5785    2.9655 O.2       1 ALC1        0.0000 
     17 O          30.5510    1.0350    2.9850 O.2       7 ALL1        0.0000 
     18 O          32.9920    0.1220    2.9460 O.2       4 ALP1        0.0000 
     19 CA         24.2360    1.4770    6.1085 C.3       3 GLC5        0.0000 
     20 CA         23.5160    2.2890    4.2090 C.3       9 GLL5        0.0000 
     21 CA         24.9560    0.6650    8.0080 C.3       6 GLP5        0.0000 
     22 CA         22.7975    0.8685    4.8280 C.3       3 GLC5        0.0000 
     23 CA         22.0790   -0.5520    5.4470 C.3       6 GLP5        0.0000 
     24 CA         24.2375    2.2660    6.8435 C.3       3 GLC5        0.0000 
     25 CA         23.5190    3.8670    5.6790 C.3       9 GLL5        0.0000 
     26 CA         21.4540    4.3580    5.2410 C.3       3 GLC5        0.0000 
     27 CA         22.8570    4.2560    3.6580 C.3       9 GLL5        0.0000 
     28 CA         20.0510    4.4600    6.8240 C.3       6 GLP5        0.0000 
     29 CA         21.7620    5.7335    3.4735 C.3       3 GLC5        0.0000 
     30 CA         20.6670    7.2110    3.2890 C.3       6 GLP5        0.0000 
     31 CA         22.6790    6.7895    3.6635 C.3       3 GLC5        0.0000 
     32 CA         24.6910    6.3680    4.0380 C.3       9 GLL5        0.0000 
     33 CA         24.5145    5.6585    2.2145 C.3       3 GLC5        0.0000 
     34 CA         24.3380    4.9490    0.3910 C.3       6 GLP5        0.0000 
     35 CA         29.4170    1.8300   11.6025 C.3       3 GLC5        0.0000 
     36 CA         28.7460    0.3860   11.0980 C.3       9 GLL5        0.0000 
     37 CA         30.0880    3.2740   12.1070 C.3       6 GLP5        0.0000 
     38 CA         27.2865   -1.0505   11.4265 C.3       3 GLC5        0.0000 
     39 CA         25.8270   -2.4870   11.7550 C.3       6 GLP5        0.0000 
     40 CA         30.1680    0.3620   12.6930 C.3       3 GLC5        0.0000 
     41 CA         31.5900    0.3380   14.2880 C.3       6 GLP5        0.0000 
     42 CA         29.0965   -1.4830   12.0860 C.3       3 GLC5        0.0000 
     43 CA         29.4470   -3.3520   13.0740 C.3       6 GLP5        0.0000 
     44 CA         31.7875    0.2760    8.6180 C.3       3 GLC5        0.0000 
     45 CA         29.8420   -0.3870    9.0660 C.3       9 GLL5        0.0000 
     46 CA         33.7330    0.9390    8.1700 C.3       6 GLP5        0.0000 
     47 CA         31.2495   -1.4555    9.5615 C.3       3 GLC5        0.0000 
     48 CA         32.6570   -2.5240   10.0570 C.3       6 GLP5        0.0000 
     49 CA         31.7500    0.5000    7.0740 C.3       3 GLC5        0.0000 
     50 CA         30.1460   -0.2400    7.7170 C.3       9 GLL5        0.0000 
     51 CA         33.3540    1.2400    6.4310 C.3       6 GLP5        0.0000 
     52 CA         31.5840   -1.3530    8.1420 C.3       3 GLC5        0.0000 
     53 CA         33.0220   -2.4660    8.5670 C.3       6 GLP5        0.0000 
     54 CA         27.5520    3.5460   11.5205 C.3       3 GLC5        0.0000 
     55 CA         27.7880    2.6170    9.6430 C.3       9 GLL5        0.0000 
     56 CA         27.3160    4.4750   13.3980 C.3       6 GLP5        0.0000 
     57 CA         29.7455   -1.9490    6.0850 C.3       3 GLC5        0.0000 
     58 CA         29.9590   -0.1870    4.9640 C.3       9 GLL5        0.0000 
     59 CA         29.5320   -3.7110    7.2060 C.3       6 GLP5        0.0000 
     60 CA         31.6565    0.5265    5.6975 C.3       3 GLC5        0.0000 
     61 O          29.6995    3.2690    3.0140 O.2       1 ALC1        0.0000 
     62 O          28.4040    2.2820    3.5220 O.2       7 ALL1        0.0000 
     63 O          30.9950    4.2560    2.5060 O.2       4 ALP1        0.0000 
     64 CA         29.6623    0.9595    1.5855 C.3       3 GLC5        0.0000 
     65 CA         29.5490    0.1850    3.5490 C.3       9 GLL5        0.0000 
     66 CA         29.8670    2.3650    0.0460 C.3       6 GLP5        0.0000 
     67 CA         23.8667    5.0147    6.4527 C.3       3 GLC5        0.0000 
     68 CA         23.7360    3.5860    4.3980 C.3       9 GLL5        0.0000 
     69 CA         24.1060    6.3030    7.8670 C.3       6 GLP5        0.0000 
     70 CA         22.1112    2.7146    6.0261 C.3       3 GLC5        0.0000 
     71 CA         20.6500    2.0270    7.0610 C.3       6 GLP5        0.0000 
     72 CA         23.5418    3.6174    2.2084 C.3       3 GLC5        0.0000 
     73 CA         23.8420    3.6380    0.4360 C.3       6 GLP5        0.0000 
     74 CA         21.6762    2.6439    3.5649 C.3       3 GLC5        0.0000 
     75 CA         20.1110    1.6910    3.1490 C.3       6 GLP5        0.0000 
     76 CA         24.6232    6.0597    5.9125 C.3       3 GLC5        0.0000 
     77 CA         25.5900    5.2650    3.8780 C.3       9 GLL5        0.0000 
     78 CA         25.9663    2.7908   10.0033 C.3       3 GLC5        0.0000 
     79 CA         24.3860    2.4170   10.7180 C.3       6 GLP5        0.0000 
     80 CA         26.3315    5.3788    8.4730 C.3       3 GLC5        0.0000 
     81 CA         27.3050    3.7120    8.9340 C.3       9 GLL5        0.0000 
     82 CA         25.2030    6.9730    8.6860 C.3       6 GLP5        0.0000 
     83 CA         29.3780    4.7570    6.5245 C.3       3 GLC5        0.0000 
     84 CA         27.6150    3.8570    7.5860 C.3       9 GLL5        0.0000 
     85 CA         30.7450    6.1320    5.7800 C.3       6 GLP5        0.0000 
     86 CA         26.4835    2.0235    7.6385 C.3       3 GLC5        0.0000 
     87 CA         28.4070    2.9070    6.9520 C.3       9 GLL5        0.0000 
     88 CA         27.6385    3.5960    1.4688 C.3       3 GLC5        0.0000 
     89 CA         27.4500    3.2090    3.5840 C.3       9 GLL5        0.0000 
     90 CA         27.6310    3.3210   -0.5680 C.3       6 GLP5        0.0000 
     91 CA         27.7118    6.5537    2.2748 C.3       3 GLC5        0.0000 
     92 CA         27.8420    4.5330    3.4270 C.3       9 GLL5        0.0000 
     93 CA         28.0450    8.0630    1.0490 C.3       6 GLP5        0.0000 
     94 CA         29.0617    5.5882    4.6402 C.3       3 GLC5        0.0000 
     95 CA         26.9150    5.5560    3.5740 C.3       9 GLL5        0.0000 
     96 CA         28.1085   -0.4378    8.2913 C.3       3 GLC5        0.0000 
     97 CA         26.2230   -0.5620    8.1910 C.3       6 GLP5        0.0000 
     98 CA         29.7630   -2.0122    7.7988 C.3       3 GLC5        0.0000 
     99 CA         27.7510    0.3875    7.7650 C.3       3 GLC5        0.0000 
    100 CA         29.6690    0.8610    7.0160 C.3       9 GLL5        0.0000 
    101 CA         30.7798    2.1807    6.8643 C.3       3 GLC5        0.0000 
    102 CA         28.8890    1.8130    7.6620 C.3       9 GLL5        0.0000 
    103 CA         32.4010    2.7510    6.5670 C.3       6 GLP5        0.0000 
    104 CA         27.4824    0.2542    8.9496 C.3       3 GLC5        0.0000 
    105 CA         28.5810    1.6660    9.0110 C.3       9 GLL5        0.0000 
@<TRIPOS>BOND
@<TRIPOS>SUBSTRUCTURE
     1 ALC1       16 GROUP        1 X    ALC  0     ROOT ALC X 1
     2 SEC2        8 GROUP        1 X    SEC  0     **** SEC X 2
     3 GLC5        1 GROUP        1 X    GLC  0     **** GLC X 6
     4 ALP1       18 GROUP        1 Y    ALP  0     ROOT ALP Y 8
     5 SEP2       10 GROUP        1 Y    SEP  0     **** SEP Y 9
     6 GLP5        3 GROUP        1 Y    GLP  0     **** GLP Y 13
     7 ALL1       17 GROUP        1 Z    ALL  0     ROOT ALL Z 15
     8 SEL2        9 GROUP        1 Z    SEL  0     **** SEL Z 16
     9 GLL5        2 GROUP        1 Z    GLL  0     **** GLL Z 20
@<TRIPOS>SET

