#    Name: 3rll_RLL_1_ligand
#    Modification time : Mon Apr  7 20:26:40 2014

@<TRIPOS>MOLECULE
3rll_RLL_1_ligand
   48    50     1     0     0
SMALL
NO_CHARGES


@<TRIPOS>ATOM
      1 CAA        29.3660   -1.0770    2.7010 C.3       1 RLL1        0.0000 
      2 NAB        23.9830    7.2500    4.1600 N.1       1 RLL1        0.0000 
      3 NAC        28.5000    0.2350   12.1990 N.1       1 RLL1        0.0000 
      4 OAD        27.1670    0.3930    3.8330 O.2       1 RLL1        0.0000 
      5 OAE        30.5510    1.0350    2.9850 O.3       1 RLL1        0.0000 
      6 FAF        23.5160    2.2890    4.2090 F         1 RLL1        0.0000 
      7 FAG        23.5190    3.8670    5.6790 F         1 RLL1        0.0000 
      8 FAH        22.8570    4.2560    3.6580 F         1 RLL1        0.0000 
      9 CAI        24.6910    6.3680    4.0380 C.1       1 RLL1        0.0000 
     10 CAJ        28.7460    0.3860   11.0980 C.1       1 RLL1        0.0000 
     11 CAK        27.3050    3.7120    8.9340 C.ar      1 RLL1        0.0000 
     12 CAL        27.6150    3.8570    7.5860 C.ar      1 RLL1        0.0000 
     13 CAM        27.8420    4.5330    3.4270 C.ar      1 RLL1        0.0000 
     14 CAN        26.9150    5.5560    3.5740 C.ar      1 RLL1        0.0000 
     15 CAO        29.8420   -0.3870    9.0660 C.ar      1 RLL1        0.0000 
     16 CAP        30.1460   -0.2400    7.7170 C.ar      1 RLL1        0.0000 
     17 CAQ        27.7880    2.6170    9.6430 C.ar      1 RLL1        0.0000 
     18 CAR        28.4070    2.9070    6.9520 C.ar      1 RLL1        0.0000 
     19 CAS        26.1220    2.9220    3.8830 C.ar      1 RLL1        0.0000 
     20 CAT        29.9590   -0.1870    4.9640 C.3       1 RLL1        0.0000 
     21 NAU        28.4040    2.2820    3.5220 N.am      1 RLL1        0.0000 
     22 OAV        29.9750    1.0430    5.7030 O.3       1 RLL1        0.0000 
     23 CAW        28.2380    0.9670    3.6430 C.2       1 RLL1        0.0000 
     24 CAX        27.4500    3.2090    3.5840 C.ar      1 RLL1        0.0000 
     25 CAY        25.5900    5.2650    3.8780 C.ar      1 RLL1        0.0000 
     26 CAZ        29.0590    0.5640    9.7130 C.ar      1 RLL1        0.0000 
     27 CBA        29.6690    0.8610    7.0160 C.ar      1 RLL1        0.0000 
     28 CBB        25.1840    3.9410    4.0340 C.ar      1 RLL1        0.0000 
     29 CBC        28.5810    1.6660    9.0110 C.ar      1 RLL1        0.0000 
     30 CBD        28.8890    1.8130    7.6620 C.ar      1 RLL1        0.0000 
     31 CBE        29.5490    0.1850    3.5490 C.3       1 RLL1        0.0000 
     32 CBF        23.7360    3.5860    4.3980 C.3       1 RLL1        0.0000 
     33 H          26.7199    4.4127    9.4057 H         1 RLL1        0.0000 
     34 H          27.2591    4.6648    7.0603 H         1 RLL1        0.0000 
     35 H          28.8217    4.7550    3.2013 H         1 RLL1        0.0000 
     36 H          27.2100    6.5372    3.4572 H         1 RLL1        0.0000 
     37 H          30.1966   -1.2004    9.5870 H         1 RLL1        0.0000 
     38 H          30.7222   -0.9443    7.2399 H         1 RLL1        0.0000 
     39 H          27.5567    2.5105   10.6415 H         1 RLL1        0.0000 
     40 H          28.6375    3.0134    5.9542 H         1 RLL1        0.0000 
     41 H          25.8255    1.9370    3.9951 H         1 RLL1        0.0000 
     42 H          29.2334   -0.8838    5.3577 H         1 RLL1        0.0000 
     43 H          30.9358   -0.6470    4.9267 H         1 RLL1        0.0000 
     44 H          29.4235    2.6361    3.3554 H         1 RLL1        0.0000 
     45 H          30.2102   -1.6096    2.6407 H         1 RLL1        0.0000 
     46 H          28.6650   -1.6809    3.0803 H         1 RLL1        0.0000 
     47 H          29.0896   -0.8587    1.7651 H         1 RLL1        0.0000 
     48 H          31.4034    0.5182    3.0646 H         1 RLL1        0.0000 
@<TRIPOS>BOND
     1   31    1 1    
     2   45    1 1    
     3   46    1 1    
     4   47    1 1    
     5    9    2 3    
     6   10    3 3    
     7   23    4 2    
     8   31    5 1    
     9   48    5 1    
    10   32    6 1    
    11   32    7 1    
    12   32    8 1    
    13   25    9 1    
    14   26   10 1    
    15   12   11 ar   
    16   17   11 ar   
    17   33   11 1    
    18   18   12 ar   
    19   34   12 1    
    20   14   13 ar   
    21   24   13 ar   
    22   35   13 1    
    23   25   14 ar   
    24   36   14 1    
    25   16   15 ar   
    26   26   15 ar   
    27   37   15 1    
    28   27   16 ar   
    29   38   16 1    
    30   29   17 ar   
    31   39   17 1    
    32   30   18 ar   
    33   40   18 1    
    34   24   19 ar   
    35   28   19 ar   
    36   41   19 1    
    37   22   20 1    
    38   31   20 1    
    39   42   20 1    
    40   43   20 1    
    41   23   21 am   
    42   24   21 1    
    43   44   21 1    
    44   27   22 1    
    45   31   23 1    
    46   28   25 ar   
    47   29   26 ar   
    48   30   27 ar   
    49   32   28 1    
    50   30   29 ar   
@<TRIPOS>SUBSTRUCTURE
     1 RLL1        1 GROUP   
@<TRIPOS>SET

