#    Name: 3puw_ADP_2_INTS_M
#    Modification time : Tue Mar 25 08:33:56 2014

@<TRIPOS>MOLECULE
3puw_ADP_2_INTS_M
   62     0    15     0     0
SMALL
NO_CHARGES


@<TRIPOS>ATOM
      1 NZ         32.6630  107.6280    5.9210 N.4       3 LYC4        0.0000 
      2 NZ         32.6060  108.9180    6.6180 N.4      13 LYL4        0.0000 
      3 NZ         32.7200  106.3380    5.2240 N.4       8 LYP4        0.0000 
      4 N          33.7225  109.8260    6.6970 N.am      2 SEC2        0.0000 
      5 N          32.6060  108.9180    6.6180 N.am     12 SEL2        0.0000 
      6 N          34.8390  110.7340    6.7760 N.am      7 SEP2        0.0000 
      7 N          32.6855  109.9445    5.7720 N.am      2 SEC2        0.0000 
      8 N          32.7650  110.9710    4.9260 N.am      7 SEP2        0.0000 
      9 N          32.6630  107.6280    5.9210 N.am      2 SEC2        0.0000 
     10 N          32.7200  106.3380    5.2240 N.am      7 SEP2        0.0000 
     11 Zn         29.2580  108.8630    7.1795 Zn        4 ZIC7        0.0000 
     12 Zn         30.1770  109.4800    7.1270 Zn       14 ZIL7        0.0000 
     13 Zn         28.3390  108.2460    7.2320 Zn        9 ZIP7        0.0000 
     14 N          30.0345  110.4860    6.0545 N.am      2 SEC2        0.0000 
     15 N          30.1770  109.4800    7.1270 N.am     12 SEL2        0.0000 
     16 N          29.8920  111.4920    4.9820 N.am      7 SEP2        0.0000 
     17 NZ         32.0325  106.9590    6.7830 N.4       3 LYC4        0.0000 
     18 NZ         31.3450  107.5800    8.3420 N.4      13 LYL4        0.0000 
     19 N          32.5570  107.0745    8.8195 N.am      2 SEC2        0.0000 
     20 N          31.3450  107.5800    8.3420 N.am     12 SEL2        0.0000 
     21 N          33.7690  106.5690    9.2970 N.am      7 SEP2        0.0000 
     22 N          30.6945  113.1390    7.0190 N.am      2 SEC2        0.0000 
     23 N          31.3700  112.2520    7.9190 N.am     12 SEL2        0.0000 
     24 N          30.0190  114.0260    6.1190 N.am      7 SEP2        0.0000 
     25 N          31.4930  113.5485    8.1445 N.am      2 SEC2        0.0000 
     26 N          31.6160  114.8450    8.3700 N.am      7 SEP2        0.0000 
     27 CA         33.8945  109.9305   10.0070 C.3       5 GLC5        0.0000 
     28 CA         33.6460  112.0400   10.0660 C.3      15 GLL5        0.0000 
     29 CA         34.1430  107.8210    9.9480 C.3      10 GLP5        0.0000 
     30 CA         33.9825  112.0500    8.2510 C.3       5 GLC5        0.0000 
     31 CA         34.3190  112.0600    6.4360 C.3      10 GLP5        0.0000 
     32 CA         32.3640  109.7075   12.0190 C.3       5 GLC5        0.0000 
     33 CA         34.0950  110.9630   12.3250 C.3      15 GLL5        0.0000 
     34 CA         30.6330  108.4520   11.7130 C.3      10 GLP5        0.0000 
     35 CA         34.1190  109.3920   11.1365 C.3       5 GLC5        0.0000 
     36 N          35.1020  108.9350   13.3490 N.am      2 SEC2        0.0000 
     37 N          35.3430  110.3510   12.6650 N.am     12 SEL2        0.0000 
     38 N          34.8610  107.5190   14.0330 N.am      7 SEP2        0.0000 
     39 O          35.6645  109.8440   11.3140 O.2       1 ALC1        0.0000 
     40 O          35.3430  110.3510   12.6650 O.2      11 ALL1        0.0000 
     41 O          35.9860  109.3370    9.9630 O.2       6 ALP1        0.0000 
     42 CA         31.7515  110.9105   14.8640 C.3       5 GLC5        0.0000 
     43 CA         33.4230  111.5640   13.5520 C.3      15 GLL5        0.0000 
     44 CA         30.0800  110.2570   16.1760 C.3      10 GLP5        0.0000 
     45 N          34.1615  111.4755   16.0130 N.am      2 SEC2        0.0000 
     46 N          33.8910  110.9650   14.7670 N.am     12 SEL2        0.0000 
     47 N          34.4320  111.9860   17.2590 N.am      7 SEP2        0.0000 
     48 O          33.3580  109.6750   14.5905 O.2       1 ALC1        0.0000 
     49 O          33.8910  110.9650   14.7670 O.2      11 ALL1        0.0000 
     50 O          32.8250  108.3850   14.4140 O.2       6 ALP1        0.0000 
     51 CA         30.8545  114.4855   16.8005 C.3       5 GLC5        0.0000 
     52 CA         31.9460  115.4240   15.5240 C.3      15 GLL5        0.0000 
     53 CA         29.7630  113.5470   18.0770 C.3      10 GLP5        0.0000 
     54 CA         31.3320  115.2800   17.8360 C.3       5 GLC5        0.0000 
     55 CA         31.9990  116.3670   16.5480 C.3      15 GLL5        0.0000 
     56 CA         30.6650  114.1930   19.1240 C.3      10 GLP5        0.0000 
     57 CA         34.2830  114.3895   18.3815 C.3       5 GLC5        0.0000 
     58 CA         34.3040  115.9810   16.7930 C.3      15 GLL5        0.0000 
     59 CA         34.2620  112.7980   19.9700 C.3      10 GLP5        0.0000 
     60 CA         34.7993  113.7165   10.2695 C.3       5 GLC5        0.0000 
     61 CA         34.3630  112.1500   11.4060 C.3      15 GLL5        0.0000 
     62 CA         35.5940  115.3380    9.8030 C.3      10 GLP5        0.0000 
@<TRIPOS>BOND
@<TRIPOS>SUBSTRUCTURE
     1 ALC1       39 GROUP        1 X    ALC  0     ROOT ALC X 1
     2 SEC2        4 GROUP        1 X    SEC  0     **** SEC X 2
     3 LYC4        1 GROUP        1 X    LYC  0     **** LYC X 4
     4 ZIC7       11 GROUP        1 X    ZIC  0     **** ZIC X 5
     5 GLC5       27 GROUP        1 X    GLC  0     **** GLC X 6
     6 ALP1       41 GROUP        1 Y    ALP  0     ROOT ALP Y 8
     7 SEP2        6 GROUP        1 Y    SEP  0     **** SEP Y 9
     8 LYP4        3 GROUP        1 Y    LYP  0     **** LYP Y 11
     9 ZIP7       13 GROUP        1 Y    ZIP  0     **** ZIP Y 12
    10 GLP5       29 GROUP        1 Y    GLP  0     **** GLP Y 13
    11 ALL1       40 GROUP        1 Z    ALL  0     ROOT ALL Z 15
    12 SEL2        5 GROUP        1 Z    SEL  0     **** SEL Z 16
    13 LYL4        2 GROUP        1 Z    LYL  0     **** LYL Z 18
    14 ZIL7       12 GROUP        1 Z    ZIL  0     **** ZIL Z 19
    15 GLL5       28 GROUP        1 Z    GLL  0     **** GLL Z 20
@<TRIPOS>SET

