#    Name: 3puw_ADP_2_ligand
#    Modification time : Tue Mar 25 08:33:56 2014

@<TRIPOS>MOLECULE
3puw_ADP_2_ligand
   39    41     1     0     0
SMALL
NO_CHARGES


@<TRIPOS>ATOM
      1 PB         31.4810  108.9050    7.6270 P.3       1 ADP2502     0.0000 
      2 O1B        32.6060  108.9180    6.6180 O.co2     1 ADP2502     0.0000 
      3 O2B        30.1770  109.4800    7.1270 O.co2     1 ADP2502     0.0000 
      4 O3B        31.3450  107.5800    8.3420 O.co2     1 ADP2502     0.0000 
      5 PA         31.2750  111.3410    9.1230 P.3       1 ADP2502     0.0000 
      6 O1A        29.9300  111.0760    9.7460 O.co2     1 ADP2502     0.0000 
      7 O2A        31.3700  112.2520    7.9190 O.co2     1 ADP2502     0.0000 
      8 O3A        31.9840  109.9300    8.7690 O.3       1 ADP2502     0.0000 
      9 O5'        32.2390  111.9380   10.2650 O.3       1 ADP2502     0.0000 
     10 C5'        33.6460  112.0400   10.0660 C.3       1 ADP2502     0.0000 
     11 C4'        34.3630  112.1500   11.4060 C.3       1 ADP2502     0.0000 
     12 O4'        33.9320  113.3280   12.1010 O.3       1 ADP2502     0.0000 
     13 C3'        34.0950  110.9630   12.3250 C.3       1 ADP2502     0.0000 
     14 O3'        35.3430  110.3510   12.6650 O.3       1 ADP2502     0.0000 
     15 C2'        33.4230  111.5640   13.5520 C.3       1 ADP2502     0.0000 
     16 O2'        33.8910  110.9650   14.7670 O.3       1 ADP2502     0.0000 
     17 C1'        33.8010  113.0350   13.4920 C.3       1 ADP2502     0.0000 
     18 N9         32.8150  113.9270   14.1670 N.pl3     1 ADP2502     0.0000 
     19 C8         31.5010  114.0370   13.9040 C.2       1 ADP2502     0.0000 
     20 N7         30.9560  114.9540   14.7380 N.2       1 ADP2502     0.0000 
     21 C5         31.9460  115.4240   15.5240 C.ar      1 ADP2502     0.0000 
     22 C6         31.9990  116.3670   16.5480 C.ar      1 ADP2502     0.0000 
     23 N6         30.8790  117.0210   16.9300 N.pl3     1 ADP2502     0.0000 
     24 N1         33.1820  116.6250   17.1620 N.ar      1 ADP2502     0.0000 
     25 C2         34.3040  115.9810   16.7930 C.ar      1 ADP2502     0.0000 
     26 N3         34.2780  115.0680   15.8070 N.ar      1 ADP2502     0.0000 
     27 C4         33.1150  114.7720   15.1610 C.ar      1 ADP2502     0.0000 
     28 H          33.9097  112.9261    9.4713 H         1 ADP2502     0.0000 
     29 H          34.0477  111.1609    9.5423 H         1 ADP2502     0.0000 
     30 H          35.4318  112.1972   11.2259 H         1 ADP2502     0.0000 
     31 H          33.4212  110.3110   11.8434 H         1 ADP2502     0.0000 
     32 H          32.3673  111.4890   13.4243 H         1 ADP2502     0.0000 
     33 H          34.7749  113.1318   13.9759 H         1 ADP2502     0.0000 
     34 H          31.0155  113.5408   13.2258 H         1 ADP2502     0.0000 
     35 H          30.9919  117.7006   17.6549 H         1 ADP2502     0.0000 
     36 H          30.0371  116.7671   16.4538 H         1 ADP2502     0.0000 
     37 H          35.2076  116.1938   17.2798 H         1 ADP2502     0.0000 
     38 H          35.6625  109.9269   11.8176 H         1 ADP2502     0.0000 
     39 H          33.5513  110.0249   14.7395 H         1 ADP2502     0.0000 
@<TRIPOS>BOND
     1    2    1 ar   
     2    3    1 ar   
     3    4    1 ar   
     4    8    1 1    
     5    6    5 ar   
     6    7    5 ar   
     7    8    5 1    
     8    9    5 1    
     9   10    9 1    
    10   11   10 1    
    11   28   10 1    
    12   29   10 1    
    13   12   11 1    
    14   13   11 1    
    15   30   11 1    
    16   17   12 1    
    17   14   13 1    
    18   15   13 1    
    19   31   13 1    
    20   38   14 1    
    21   16   15 1    
    22   17   15 1    
    23   32   15 1    
    24   39   16 1    
    25   18   17 1    
    26   33   17 1    
    27   19   18 1    
    28   27   18 1    
    29   20   19 2    
    30   34   19 1    
    31   21   20 1    
    32   22   21 ar   
    33   27   21 ar   
    34   23   22 1    
    35   24   22 ar   
    36   35   23 1    
    37   36   23 1    
    38   25   24 ar   
    39   26   25 ar   
    40   37   25 1    
    41   27   26 ar   
@<TRIPOS>SUBSTRUCTURE
     1 ADP2502     1 GROUP   
@<TRIPOS>SET

