#    Name: 2pwy_SAH_2_INTS_M
#    Modification time : Mon Mar 24 19:27:53 2014

@<TRIPOS>MOLECULE
2pwy_SAH_2_INTS_M
   78     0    12     0     0
SMALL
NO_CHARGES


@<TRIPOS>ATOM
      1 OD1       -12.7670   19.3435  -18.1705 O.co2     3 ASC3        0.0000 
      2 OD1       -12.4830   19.0850  -16.8180 O.co2    11 ASL3        0.0000 
      3 OD1       -13.0510   19.6020  -19.5230 O.co2     7 ASP3        0.0000 
      4 O         -11.4920   19.7530  -17.6165 O.2       1 ALC1        0.0000 
      5 O         -12.4830   19.0850  -16.8180 O.2       9 ALL1        0.0000 
      6 O         -10.5010   20.4210  -18.4150 O.2       5 ALP1        0.0000 
      7 O         -12.7670   19.3435  -18.1705 O.2       1 ALC1        0.0000 
      8 O         -13.0510   19.6020  -19.5230 O.2       5 ALP1        0.0000 
      9 CA        -14.6595   19.2320  -18.2290 C.3       4 GLC5        0.0000 
     10 CA        -14.7550   17.2140  -17.7740 C.3      12 GLL5        0.0000 
     11 CA        -14.5640   21.2500  -18.6840 C.3       8 GLP5        0.0000 
     12 CA        -15.2660   14.3925  -18.8800 C.3       4 GLC5        0.0000 
     13 CA        -15.5520   16.1340  -18.9730 C.3      12 GLL5        0.0000 
     14 CA        -14.9800   12.6510  -18.7870 C.3       8 GLP5        0.0000 
     15 N          -9.7765   17.8350  -17.6860 N.am      2 SEC2        0.0000 
     16 N         -10.2260   17.7060  -16.2830 N.am     10 SEL2        0.0000 
     17 N          -9.3270   17.9640  -19.0890 N.am      6 SEP2        0.0000 
     18 N          -9.5430   18.5140  -15.3120 N.am      2 SEC2        0.0000 
     19 N          -8.8600   19.3220  -14.3410 N.am      6 SEP2        0.0000 
     20 N         -11.0580   18.1830  -14.9550 N.am      2 SEC2        0.0000 
     21 N         -11.8900   18.6600  -13.6270 N.am      6 SEP2        0.0000 
     22 N         -12.0015   14.8425  -15.1785 N.am      2 SEC2        0.0000 
     23 N         -11.1970   15.8990  -15.6720 N.am     10 SEL2        0.0000 
     24 N         -12.8060   13.7860  -14.6850 N.am      6 SEP2        0.0000 
     25 N         -10.1215   16.1745  -14.5955 N.am      2 SEC2        0.0000 
     26 N          -9.0460   16.4500  -13.5190 N.am      6 SEP2        0.0000 
     27 CA        -18.1740   18.5705  -19.5200 C.3       4 GLC5        0.0000 
     28 CA        -17.2350   16.7770  -18.7520 C.3      12 GLL5        0.0000 
     29 CA        -19.1130   20.3640  -20.2880 C.3       8 GLP5        0.0000 
     30 CA        -18.0950   17.5275  -16.0455 C.3       4 GLC5        0.0000 
     31 CA        -17.9360   16.2170  -17.5070 C.3      12 GLL5        0.0000 
     32 CA        -18.2540   18.8380  -14.5840 C.3       8 GLP5        0.0000 
     33 CA        -16.7245   13.7175  -18.2185 C.3       4 GLC5        0.0000 
     34 CA        -18.4690   14.7840  -17.6500 C.3      12 GLL5        0.0000 
     35 N         -18.0790   12.6020  -16.6220 N.am      2 SEC2        0.0000 
     36 N         -17.9860   13.9640  -16.6050 N.am     10 SEL2        0.0000 
     37 N         -18.1720   11.2400  -16.6390 N.am      6 SEP2        0.0000 
     38 O         -18.1730   14.4260  -15.3590 O.2       1 ALC1        0.0000 
     39 O         -17.9860   13.9640  -16.6050 O.2       9 ALL1        0.0000 
     40 O         -18.3600   14.8880  -14.1130 O.2       5 ALP1        0.0000 
     41 O         -20.4070   13.7565  -15.6565 O.2       1 ALC1        0.0000 
     42 O         -20.6590   13.8730  -16.9470 O.2       9 ALL1        0.0000 
     43 O         -20.1550   13.6400  -14.3660 O.2       5 ALP1        0.0000 
     44 CA        -19.1995   17.5235  -15.6825 C.3       4 GLC5        0.0000 
     45 CA        -20.1450   16.2090  -16.7810 C.3      12 GLL5        0.0000 
     46 CA        -25.0785   18.9195  -14.1570 C.3       4 GLC5        0.0000 
     47 CA        -23.8260   19.2300  -15.8950 C.3      12 GLL5        0.0000 
     48 CA        -26.3310   18.6090  -12.4190 C.3       8 GLP5        0.0000 
     49 O         -25.8330   20.6425  -15.8790 O.2       1 ALC1        0.0000 
     50 O         -24.7790   19.9850  -16.4430 O.2       9 ALL1        0.0000 
     51 O         -26.8870   21.3000  -15.3150 O.2       5 ALP1        0.0000 
     52 N         -24.4370   19.9800  -13.4800 N.am      2 SEC2        0.0000 
     53 N         -23.6690   19.2030  -14.5170 N.am     10 SEL2        0.0000 
     54 N         -25.2050   20.7570  -12.4430 N.am      6 SEP2        0.0000 
     55 CA        -21.4135   20.1135  -13.7420 C.3       4 GLC5        0.0000 
     56 CA        -22.6900   18.4400  -13.9270 C.3      12 GLL5        0.0000 
     57 CA        -20.1370   21.7870  -13.5570 C.3       8 GLP5        0.0000 
     58 CA        -21.6090   17.2585  -12.7380 C.3       4 GLC5        0.0000 
     59 CA        -20.5280   16.0770  -11.5490 C.3       8 GLP5        0.0000 
     60 CA        -23.5455   16.7125  -14.0645 C.3       4 GLC5        0.0000 
     61 CA        -24.4010   14.9850  -14.2020 C.3       8 GLP5        0.0000 
     62 CA        -24.5105   18.5245  -13.1730 C.3       4 GLC5        0.0000 
     63 N         -22.1425   16.4380  -13.7255 N.am      2 SEC2        0.0000 
     64 N         -21.8430   17.6860  -14.7140 N.am     10 SEL2        0.0000 
     65 N         -22.4420   15.1900  -12.7370 N.am      6 SEP2        0.0000 
     66 CA        -20.1265   18.2650  -15.3235 C.3       4 GLC5        0.0000 
     67 CA        -21.9990   17.6920  -16.0630 C.3      12 GLL5        0.0000 
     68 CA        -23.2000   16.3385  -15.1325 C.3       4 GLC5        0.0000 
     69 CA        -11.2280   16.4160  -17.8822 C.3       4 GLC5        0.0000 
     70 CA        -13.2880   16.8430  -17.5880 C.3      12 GLL5        0.0000 
     71 CA         -9.5000   15.5820  -18.7350 C.3       8 GLP5        0.0000 
     72 CA        -14.0045   15.9440  -16.0093 C.3       4 GLC5        0.0000 
     73 CA        -15.0530   14.6380  -14.9890 C.3       8 GLP5        0.0000 
     74 CA        -15.1032   15.6560  -16.6813 C.3       4 GLC5        0.0000 
     75 CA        -16.6278   15.0693  -16.2837 C.3       4 GLC5        0.0000 
     76 CA        -21.9516   19.9349  -16.6736 C.3       4 GLC5        0.0000 
     77 CA        -22.9730   18.4650  -16.6840 C.3      12 GLL5        0.0000 
     78 CA        -21.2040   21.6000  -17.1710 C.3       8 GLP5        0.0000 
@<TRIPOS>BOND
@<TRIPOS>SUBSTRUCTURE
     1 ALC1        4 GROUP        1 X    ALC  0     ROOT ALC X 1
     2 SEC2       15 GROUP        1 X    SEC  0     **** SEC X 2
     3 ASC3        1 GROUP        1 X    ASC  0     **** ASC X 3
     4 GLC5        9 GROUP        1 X    GLC  0     **** GLC X 6
     5 ALP1        6 GROUP        1 Y    ALP  0     ROOT ALP Y 8
     6 SEP2       17 GROUP        1 Y    SEP  0     **** SEP Y 9
     7 ASP3        3 GROUP        1 Y    ASP  0     **** ASP Y 10
     8 GLP5       11 GROUP        1 Y    GLP  0     **** GLP Y 13
     9 ALL1        5 GROUP        1 Z    ALL  0     ROOT ALL Z 15
    10 SEL2       16 GROUP        1 Z    SEL  0     **** SEL Z 16
    11 ASL3        2 GROUP        1 Z    ASL  0     **** ASL Z 17
    12 GLL5       10 GROUP        1 Z    GLL  0     **** GLL Z 20
@<TRIPOS>SET

