#    Name: 2pwy_SAH_2_ligand
#    Modification time : Mon Mar 24 19:27:53 2014

@<TRIPOS>MOLECULE
2pwy_SAH_2_ligand
   46    48     1     0     0
SMALL
NO_CHARGES


@<TRIPOS>ATOM
      1 N         -12.4830   19.0850  -16.8180 N.4       1 SAH502      0.0000 
      2 CA        -12.6240   17.6570  -16.4710 C.3       1 SAH502      0.0000 
      3 CB        -13.2880   16.8430  -17.5880 C.3       1 SAH502      0.0000 
      4 CG        -14.7550   17.2140  -17.7740 C.3       1 SAH502      0.0000 
      5 SD        -15.5520   16.1340  -18.9730 S.3       1 SAH502      0.0000 
      6 C         -11.2740   17.0540  -16.1240 C.2       1 SAH502      0.0000 
      7 O         -10.2260   17.7060  -16.2830 O.co2     1 SAH502      0.0000 
      8 OXT       -11.1970   15.8990  -15.6720 O.co2     1 SAH502      0.0000 
      9 C5'       -17.2350   16.7770  -18.7520 C.3       1 SAH502      0.0000 
     10 C4'       -17.9360   16.2170  -17.5070 C.3       1 SAH502      0.0000 
     11 O4'       -19.0570   17.0270  -17.2140 O.3       1 SAH502      0.0000 
     12 C3'       -18.4690   14.7840  -17.6500 C.3       1 SAH502      0.0000 
     13 O3'       -17.9860   13.9640  -16.6050 O.3       1 SAH502      0.0000 
     14 C2'       -19.9890   14.9380  -17.5850 C.3       1 SAH502      0.0000 
     15 O2'       -20.6590   13.8730  -16.9470 O.3       1 SAH502      0.0000 
     16 C1'       -20.1450   16.2090  -16.7810 C.3       1 SAH502      0.0000 
     17 N9        -21.3140   17.0470  -17.0490 N.pl3     1 SAH502      0.0000 
     18 C8        -21.8420   17.4260  -18.2640 C.2       1 SAH502      0.0000 
     19 N7        -22.8630   18.2840  -18.0290 N.2       1 SAH502      0.0000 
     20 C5        -22.9730   18.4650  -16.6840 C.ar      1 SAH502      0.0000 
     21 C6        -23.8260   19.2300  -15.8950 C.ar      1 SAH502      0.0000 
     22 N6        -24.7790   19.9850  -16.4430 N.pl3     1 SAH502      0.0000 
     23 N1        -23.6690   19.2030  -14.5170 N.ar      1 SAH502      0.0000 
     24 C2        -22.6900   18.4400  -13.9270 C.ar      1 SAH502      0.0000 
     25 N3        -21.8430   17.6860  -14.7140 N.ar      1 SAH502      0.0000 
     26 C4        -21.9990   17.6920  -16.0630 C.ar      1 SAH502      0.0000 
     27 H         -13.2598   17.5637  -15.5785 H         1 SAH502      0.0000 
     28 H         -13.2122   15.7790  -17.3453 H         1 SAH502      0.0000 
     29 H         -12.7493   17.0186  -18.5238 H         1 SAH502      0.0000 
     30 H         -14.8986   18.1826  -18.1993 H         1 SAH502      0.0000 
     31 H         -15.3459   17.0670  -16.8972 H         1 SAH502      0.0000 
     32 H         -17.7119   16.4950  -19.6717 H         1 SAH502      0.0000 
     33 H         -17.0725   17.8374  -18.7079 H         1 SAH502      0.0000 
     34 H         -17.2384   16.2336  -16.6784 H         1 SAH502      0.0000 
     35 H         -18.2127   14.4388  -18.6242 H         1 SAH502      0.0000 
     36 H         -20.3384   15.1453  -18.5752 H         1 SAH502      0.0000 
     37 H         -20.0358   16.0055  -15.7452 H         1 SAH502      0.0000 
     38 H         -21.5312   17.1269  -19.1183 H         1 SAH502      0.0000 
     39 H         -24.8537   19.9448  -17.4394 H         1 SAH502      0.0000 
     40 H         -25.3332   20.5235  -15.8082 H         1 SAH502      0.0000 
     41 H         -22.5865   18.4290  -12.9016 H         1 SAH502      0.0000 
     42 H         -12.8496   19.2843  -17.7268 H         1 SAH502      0.0000 
     43 H         -12.9673   19.6740  -16.1710 H         1 SAH502      0.0000 
     44 H         -11.5258   19.3744  -16.8181 H         1 SAH502      0.0000 
     45 H         -18.2160   14.4541  -15.7642 H         1 SAH502      0.0000 
     46 H         -20.3436   13.9002  -15.9984 H         1 SAH502      0.0000 
@<TRIPOS>BOND
     1    2    1 1    
     2   42    1 1    
     3   43    1 1    
     4   44    1 1    
     5    3    2 1    
     6    6    2 1    
     7   27    2 1    
     8    4    3 1    
     9   28    3 1    
    10   29    3 1    
    11    5    4 1    
    12   30    4 1    
    13   31    4 1    
    14    9    5 1    
    15    7    6 ar   
    16    8    6 ar   
    17   10    9 1    
    18   32    9 1    
    19   33    9 1    
    20   11   10 1    
    21   12   10 1    
    22   34   10 1    
    23   16   11 1    
    24   13   12 1    
    25   14   12 1    
    26   35   12 1    
    27   45   13 1    
    28   15   14 1    
    29   16   14 1    
    30   36   14 1    
    31   46   15 1    
    32   17   16 1    
    33   37   16 1    
    34   18   17 1    
    35   26   17 1    
    36   19   18 2    
    37   38   18 1    
    38   20   19 1    
    39   21   20 ar   
    40   26   20 ar   
    41   22   21 1    
    42   23   21 ar   
    43   39   22 1    
    44   40   22 1    
    45   24   23 ar   
    46   25   24 ar   
    47   41   24 1    
    48   26   25 ar   
@<TRIPOS>SUBSTRUCTURE
     1 SAH502      1 GROUP   
@<TRIPOS>SET

