#    Name: 2dkn_NAI_1_INTS_M
#    Modification time : Tue Mar 25 10:09:49 2014

@<TRIPOS>MOLECULE
2dkn_NAI_1_INTS_M
  100     0     9     0     0
SMALL
NO_CHARGES


@<TRIPOS>ATOM
      1 N          18.9475   -6.7985    0.1320 N.am      2 SEC2        0.0000 
      2 N          18.8720   -5.5300   -0.1810 N.am      8 SEL2        0.0000 
      3 N          19.0230   -8.0670    0.4450 N.am      5 SEP2        0.0000 
      4 CA         12.8485   -6.4800   -0.3985 C.3       3 GLC5        0.0000 
      5 CA         14.4170   -6.3150   -1.4050 C.3       9 GLL5        0.0000 
      6 CA         11.2800   -6.6450    0.6080 C.3       6 GLP5        0.0000 
      7 CA         12.5680   -5.0615   -1.6700 C.3       3 GLC5        0.0000 
      8 CA         10.7190   -3.8080   -1.9350 C.3       6 GLP5        0.0000 
      9 O          13.6540   -9.0320   -0.5820 O.2       1 ALC1        0.0000 
     10 O          14.8500   -8.6740   -1.0060 O.2       7 ALL1        0.0000 
     11 O          12.4580   -9.3900   -0.1580 O.2       4 ALP1        0.0000 
     12 N          13.9630   -9.7830   -4.8660 N.am      2 SEC2        0.0000 
     13 N          14.1690   -9.2200   -3.5340 N.am      8 SEL2        0.0000 
     14 N          13.7570  -10.3460   -6.1980 N.am      5 SEP2        0.0000 
     15 N          15.0895   -9.6215   -4.6755 N.am      2 SEC2        0.0000 
     16 N          16.0100  -10.0230   -5.8170 N.am      5 SEP2        0.0000 
     17 O          13.3265   -9.8805   -2.7845 O.2       1 ALC1        0.0000 
     18 O          14.1690   -9.2200   -3.5340 O.2       7 ALL1        0.0000 
     19 O          12.4840  -10.5410   -2.0350 O.2       4 ALP1        0.0000 
     20 CA         12.1090   -6.9160   -1.1470 C.3       3 GLC5        0.0000 
     21 CA         12.9380   -7.1870   -2.9020 C.3       9 GLL5        0.0000 
     22 CA         11.3085   -5.9845   -2.7080 C.3       3 GLC5        0.0000 
     23 CA          9.6790   -4.7820   -2.5140 C.3       6 GLP5        0.0000 
     24 CA          7.8475   -7.0325   -6.1505 C.3       3 GLC5        0.0000 
     25 CA          9.7410   -7.6430   -6.5430 C.3       9 GLL5        0.0000 
     26 CA          5.9540   -6.4220   -5.7580 C.3       6 GLP5        0.0000 
     27 O           8.6920   -8.4040   -8.8295 O.2       1 ALC1        0.0000 
     28 O           9.5230   -7.5040   -7.8680 O.2       7 ALL1        0.0000 
     29 O           7.8610   -9.3040   -9.7910 O.2       4 ALP1        0.0000 
     30 N           7.5405   -8.4130   -6.4670 N.am      2 SEC2        0.0000 
     31 N           8.8530   -8.4080   -5.8120 N.am      8 SEL2        0.0000 
     32 N           6.2280   -8.4180   -7.1220 N.am      5 SEP2        0.0000 
     33 CA          9.3295   -9.8025   -2.8390 C.3       3 GLC5        0.0000 
     34 CA          9.0990   -8.7280   -4.4950 C.3       9 GLL5        0.0000 
     35 CA          9.5600  -10.8770   -1.1830 C.3       6 GLP5        0.0000 
     36 CA         10.2305   -9.8575   -5.3380 C.3       3 GLC5        0.0000 
     37 CA         11.3620  -10.9870   -6.1810 C.3       6 GLP5        0.0000 
     38 CA          7.4225   -7.9485   -4.4655 C.3       3 GLC5        0.0000 
     39 CA          5.7460   -7.1690   -4.4360 C.3       6 GLP5        0.0000 
     40 CA          9.3890   -6.7550   -3.5045 C.3       3 GLC5        0.0000 
     41 N          17.3715   -3.2410    2.6310 N.am      2 SEC2        0.0000 
     42 N          17.3320   -3.0150    1.2520 N.am      8 SEL2        0.0000 
     43 N          17.4110   -3.4670    4.0100 N.am      5 SEP2        0.0000 
     44 N          20.1175   -1.9210   -0.0075 N.am      2 SEC2        0.0000 
     45 N          18.8800   -1.4550    0.0050 N.am      8 SEL2        0.0000 
     46 N          21.3550   -2.3870   -0.0200 N.am      5 SEP2        0.0000 
     47 CA         13.8875    1.2615    0.7390 C.3       3 GLC5        0.0000 
     48 CA         14.5750   -0.1200   -0.3320 C.3       9 GLL5        0.0000 
     49 CA         13.2000    2.6430    1.8100 C.3       6 GLP5        0.0000 
     50 CA         13.4965   -0.9995   -3.2415 C.3       3 GLC5        0.0000 
     51 CA         14.3970   -0.0560   -1.8470 C.3       9 GLL5        0.0000 
     52 CA         12.5960   -1.9430   -4.6360 C.3       6 GLP5        0.0000 
     53 N          12.7340    1.8025   -2.6375 N.am      2 SEC2        0.0000 
     54 N          13.1340    0.5440   -2.1070 N.am      8 SEL2        0.0000 
     55 N          12.3340    3.0610   -3.1680 N.am      5 SEP2        0.0000 
     56 CA         14.2560    2.4000   -3.2660 C.3       3 GLC5        0.0000 
     57 CA         15.4770    0.9330   -2.2810 C.3       9 GLL5        0.0000 
     58 CA         13.0350    3.8670   -4.2510 C.3       6 GLP5        0.0000 
     59 N          15.9880    2.6785   -3.9065 N.am      2 SEC2        0.0000 
     60 N          15.0900    1.6410   -3.4260 N.am      8 SEL2        0.0000 
     61 N          16.8860    3.7160   -4.3870 N.am      5 SEP2        0.0000 
     62 N          13.7120    2.3510   -3.2970 N.am      2 SEC2        0.0000 
     63 CA         14.3720    2.2500    0.3685 C.3       3 GLC5        0.0000 
     64 CA         15.5440    1.8570   -1.0730 C.3       9 GLL5        0.0000 
     65 CA         17.4875    1.3265    1.1115 C.3       3 GLC5        0.0000 
     66 CA         18.0050    1.9660   -0.8690 C.3       9 GLL5        0.0000 
     67 CA         16.9700    0.6870    3.0920 C.3       6 GLP5        0.0000 
     68 N          22.2705    2.9750    0.5245 N.am      2 SEC2        0.0000 
     69 N          21.6310    2.7560   -0.6690 N.am      8 SEL2        0.0000 
     70 N          22.9100    3.1940    1.7180 N.am      5 SEP2        0.0000 
     71 O          21.9190    0.5650    0.4380 O.2       1 ALC1        0.0000 
     72 O          20.5470    0.6440   -0.3430 O.2       7 ALL1        0.0000 
     73 O          23.2910    0.4860    1.2190 O.2       4 ALP1        0.0000 
     74 CA         16.4595    4.4310    0.8370 C.3       3 GLC5        0.0000 
     75 CA         16.7590    4.0020   -0.9960 C.3       9 GLL5        0.0000 
     76 CA         16.1600    4.8600    2.6700 C.3       6 GLP5        0.0000 
     77 CA         16.2155   -7.7428   -0.4872 C.3       3 GLC5        0.0000 
     78 CA         17.6900   -8.5260    0.6810 C.3       6 GLP5        0.0000 
     79 CA         10.3498   -6.0700   -3.8822 C.3       3 GLC5        0.0000 
     80 CA         10.9060   -7.1840   -5.9160 C.3       9 GLL5        0.0000 
     81 CA          9.9857   -5.5127   -6.6218 C.3       3 GLC5        0.0000 
     82 CA          9.6480   -3.6120   -7.0140 C.3       6 GLP5        0.0000 
     83 CA         11.0456   -9.2299   -5.7941 C.3       3 GLC5        0.0000 
     84 CA         15.9393   -0.0372    1.5000 C.3       3 GLC5        0.0000 
     85 CA         15.2420   -1.4030    0.1480 C.3       9 GLL5        0.0000 
     86 CA         13.8418   -1.2792    1.2945 C.3       3 GLC5        0.0000 
     87 CA         12.7750   -1.7970    2.6810 C.3       6 GLP5        0.0000 
     88 CA         16.5125   -0.3867   -3.0805 C.3       3 GLC5        0.0000 
     89 CA         18.0880   -1.2120   -4.0970 C.3       6 GLP5        0.0000 
     90 CA         19.4080    1.2390   -2.5817 C.3       3 GLC5        0.0000 
     91 CA         20.2210    0.1510   -4.3360 C.3       6 GLP5        0.0000 
     92 CA         19.7987    3.2365    1.1812 C.3       3 GLC5        0.0000 
     93 CA         19.1850    2.6880   -0.7860 C.3       9 GLL5        0.0000 
     94 CA         20.4250    3.0810    3.1650 C.3       6 GLP5        0.0000 
     95 CA         18.0630    4.8850    0.9248 C.3       3 GLC5        0.0000 
     96 CA         19.1600    4.0960   -0.8190 C.3       9 GLL5        0.0000 
     97 CA         17.5870    5.3420    2.7120 C.3       6 GLP5        0.0000 
     98 CA         16.3758    5.6515   -1.9520 C.3       3 GLC5        0.0000 
     99 CA         17.9180    4.7600   -0.9060 C.3       9 GLL5        0.0000 
    100 CA         15.4130    6.9220   -2.9530 C.3       6 GLP5        0.0000 
@<TRIPOS>BOND
@<TRIPOS>SUBSTRUCTURE
     1 ALC1        9 GROUP        1 X    ALC  0     ROOT ALC X 1
     2 SEC2        1 GROUP        1 X    SEC  0     **** SEC X 2
     3 GLC5        4 GROUP        1 X    GLC  0     **** GLC X 6
     4 ALP1       11 GROUP        1 Y    ALP  0     ROOT ALP Y 8
     5 SEP2        3 GROUP        1 Y    SEP  0     **** SEP Y 9
     6 GLP5        6 GROUP        1 Y    GLP  0     **** GLP Y 13
     7 ALL1       10 GROUP        1 Z    ALL  0     ROOT ALL Z 15
     8 SEL2        2 GROUP        1 Z    SEL  0     **** SEL Z 16
     9 GLL5        5 GROUP        1 Z    GLL  0     **** GLL Z 20
@<TRIPOS>SET

