#    Name: 2dkn_NAI_1_ligand
#    Modification time : Tue Mar 25 10:09:49 2014

@<TRIPOS>MOLECULE
2dkn_NAI_1_ligand
   71    75     1     0     0
SMALL
NO_CHARGES


@<TRIPOS>ATOM
      1 PA         17.9240   -4.9790   -1.1770 P.3       1 NAI4000     0.0000 
      2 O1A        18.1010   -5.3800   -2.5840 O.co2     1 NAI4000     0.0000 
      3 O2A        18.8720   -5.5300   -0.1810 O.co2     1 NAI4000     0.0000 
      4 O5B        16.4420   -5.3500   -0.6950 O.3       1 NAI4000     0.0000 
      5 C5B        15.3350   -5.1050   -1.5130 C.3       1 NAI4000     0.0000 
      6 C4B        14.4170   -6.3150   -1.4050 C.3       1 NAI4000     0.0000 
      7 O4B        13.3190   -6.0170   -2.2470 O.3       1 NAI4000     0.0000 
      8 C3B        15.0650   -7.6040   -1.9060 C.3       1 NAI4000     0.0000 
      9 O3B        14.8500   -8.6740   -1.0060 O.3       1 NAI4000     0.0000 
     10 C2B        14.2860   -7.8580   -3.1840 C.3       1 NAI4000     0.0000 
     11 O2B        14.1690   -9.2200   -3.5340 O.3       1 NAI4000     0.0000 
     12 C1B        12.9380   -7.1870   -2.9020 C.3       1 NAI4000     0.0000 
     13 N9A        12.3150   -6.9690   -4.2150 N.pl3     1 NAI4000     0.0000 
     14 C8A        12.8440   -6.2990   -5.3000 C.2       1 NAI4000     0.0000 
     15 N7A        11.9650   -6.4260   -6.3260 N.2       1 NAI4000     0.0000 
     16 C5A        10.9060   -7.1840   -5.9160 C.ar      1 NAI4000     0.0000 
     17 C6A         9.7410   -7.6430   -6.5430 C.ar      1 NAI4000     0.0000 
     18 N6A         9.5230   -7.5040   -7.8680 N.pl3     1 NAI4000     0.0000 
     19 N1A         8.8530   -8.4080   -5.8120 N.ar      1 NAI4000     0.0000 
     20 C2A         9.0990   -8.7280   -4.4950 C.ar      1 NAI4000     0.0000 
     21 N3A        10.2440   -8.2830   -3.8730 N.ar      1 NAI4000     0.0000 
     22 C4A        11.1350   -7.5320   -4.5850 C.ar      1 NAI4000     0.0000 
     23 O3         17.9360   -3.3760   -1.2170 O.3       1 NAI4000     0.0000 
     24 PN         17.7020   -2.3410   -0.0040 P.3       1 NAI4000     0.0000 
     25 O1N        17.3320   -3.0150    1.2520 O.co2     1 NAI4000     0.0000 
     26 O2N        18.8800   -1.4550    0.0050 O.co2     1 NAI4000     0.0000 
     27 O5D        16.4490   -1.5290   -0.5900 O.3       1 NAI4000     0.0000 
     28 C5D        15.2420   -1.4030    0.1480 C.3       1 NAI4000     0.0000 
     29 C4D        14.5750   -0.1200   -0.3320 C.3       1 NAI4000     0.0000 
     30 O4D        15.4220    0.9690    0.0180 O.3       1 NAI4000     0.0000 
     31 C3D        14.3970   -0.0560   -1.8470 C.3       1 NAI4000     0.0000 
     32 O3D        13.1340    0.5440   -2.1070 O.3       1 NAI4000     0.0000 
     33 C2D        15.4770    0.9330   -2.2810 C.3       1 NAI4000     0.0000 
     34 O2D        15.0900    1.6410   -3.4260 O.3       1 NAI4000     0.0000 
     35 C1D        15.5440    1.8570   -1.0730 C.3       1 NAI4000     0.0000 
     36 N1N        16.8150    2.6270   -0.9920 N.pl3     1 NAI4000     0.0000 
     37 C2N        18.0050    1.9660   -0.8690 C.2       1 NAI4000     0.0000 
     38 C3N        19.1850    2.6880   -0.7860 C.2       1 NAI4000     0.0000 
     39 C7N        20.4950    1.9670   -0.5900 C.2       1 NAI4000     0.0000 
     40 O7N        21.6310    2.7560   -0.6690 O.2       1 NAI4000     0.0000 
     41 N7N        20.5470    0.6440   -0.3430 N.am      1 NAI4000     0.0000 
     42 C4N        19.1600    4.0960   -0.8190 C.3       1 NAI4000     0.0000 
     43 C5N        17.9180    4.7600   -0.9060 C.2       1 NAI4000     0.0000 
     44 C6N        16.7590    4.0020   -0.9960 C.2       1 NAI4000     0.0000 
     45 H          15.6051   -4.9881   -2.5631 H         1 NAI4000     0.0000 
     46 H          14.7655   -4.2294   -1.1995 H         1 NAI4000     0.0000 
     47 H          14.1102   -6.4323   -0.3956 H         1 NAI4000     0.0000 
     48 H          16.0606   -7.4136   -2.1498 H         1 NAI4000     0.0000 
     49 H          14.7618   -7.2572   -3.9626 H         1 NAI4000     0.0000 
     50 H          12.3838   -7.8493   -2.3041 H         1 NAI4000     0.0000 
     51 H          13.6760   -5.8360   -5.3122 H         1 NAI4000     0.0000 
     52 H           9.9412   -6.7057   -8.3014 H         1 NAI4000     0.0000 
     53 H           8.9627   -8.2117   -8.2984 H         1 NAI4000     0.0000 
     54 H           8.4193   -9.3061   -3.9703 H         1 NAI4000     0.0000 
     55 H          15.4200   -1.3105    1.2135 H         1 NAI4000     0.0000 
     56 H          14.5600   -2.2253   -0.0368 H         1 NAI4000     0.0000 
     57 H          13.6177   -0.0200    0.1347 H         1 NAI4000     0.0000 
     58 H          14.5544   -0.9691   -2.2676 H         1 NAI4000     0.0000 
     59 H          16.3895    0.4158   -2.3528 H         1 NAI4000     0.0000 
     60 H          14.6990    2.5165   -1.1190 H         1 NAI4000     0.0000 
     61 H          18.0337    0.9362   -0.8373 H         1 NAI4000     0.0000 
     62 H          19.6673    0.1715   -0.2891 H         1 NAI4000     0.0000 
     63 H          21.4607    0.2520   -0.2355 H         1 NAI4000     0.0000 
     64 H          19.8370    4.4612   -1.6756 H         1 NAI4000     0.0000 
     65 H          19.7343    4.5008    0.0930 H         1 NAI4000     0.0000 
     66 H          17.8840    5.7765   -0.9020 H         1 NAI4000     0.0000 
     67 H          15.8430    4.4819   -1.0669 H         1 NAI4000     0.0000 
     68 H          13.8620   -8.6883   -0.8524 H         1 NAI4000     0.0000 
     69 H          13.9236   -9.6855   -2.6836 H         1 NAI4000     0.0000 
     70 H          12.8214    0.1290   -2.9615 H         1 NAI4000     0.0000 
     71 H          15.4396    1.1032   -4.1932 H         1 NAI4000     0.0000 
@<TRIPOS>BOND
     1    2    1 ar   
     2    3    1 ar   
     3    4    1 1    
     4   23    1 1    
     5    5    4 1    
     6    6    5 1    
     7   45    5 1    
     8   46    5 1    
     9    7    6 1    
    10    8    6 1    
    11   47    6 1    
    12   12    7 1    
    13    9    8 1    
    14   10    8 1    
    15   48    8 1    
    16   68    9 1    
    17   11   10 1    
    18   12   10 1    
    19   49   10 1    
    20   69   11 1    
    21   13   12 1    
    22   50   12 1    
    23   14   13 1    
    24   22   13 1    
    25   15   14 2    
    26   51   14 1    
    27   16   15 1    
    28   17   16 ar   
    29   22   16 ar   
    30   18   17 1    
    31   19   17 ar   
    32   52   18 1    
    33   53   18 1    
    34   20   19 ar   
    35   21   20 ar   
    36   54   20 1    
    37   22   21 ar   
    38   24   23 1    
    39   25   24 ar   
    40   26   24 ar   
    41   27   24 1    
    42   28   27 1    
    43   29   28 1    
    44   55   28 1    
    45   56   28 1    
    46   30   29 1    
    47   31   29 1    
    48   57   29 1    
    49   35   30 1    
    50   32   31 1    
    51   33   31 1    
    52   58   31 1    
    53   70   32 1    
    54   34   33 1    
    55   35   33 1    
    56   59   33 1    
    57   71   34 1    
    58   36   35 1    
    59   60   35 1    
    60   37   36 1    
    61   44   36 1    
    62   38   37 2    
    63   61   37 1    
    64   39   38 1    
    65   42   38 1    
    66   40   39 2    
    67   41   39 am   
    68   62   41 1    
    69   63   41 1    
    70   43   42 1    
    71   64   42 1    
    72   65   42 1    
    73   44   43 2    
    74   66   43 1    
    75   67   44 1    
@<TRIPOS>SUBSTRUCTURE
     1 NAI4000     1 GROUP   
@<TRIPOS>SET

