#    Name: 4k6m_SAH_1_INTS_M
#    Modification time : Tue Mar 25 07:21:47 2014

@<TRIPOS>MOLECULE
4k6m_SAH_1_INTS_M
   53     0    12     0     0
SMALL
NO_CHARGES


@<TRIPOS>ATOM
      1 OD1       -11.0380  -60.3790   64.0945 O.co2     3 ASC3        0.0000 
      2 OD1       -10.0040  -59.7140   63.5270 O.co2    11 ASL3        0.0000 
      3 OD1       -12.0720  -61.0440   64.6620 O.co2     7 ASP3        0.0000 
      4 O         -11.0380  -60.3790   64.0945 O.2       1 ALC1        0.0000 
      5 O         -10.0040  -59.7140   63.5270 O.2       9 ALL1        0.0000 
      6 O         -12.0720  -61.0440   64.6620 O.2       5 ALP1        0.0000 
      7 CA         -9.0805  -59.2440   64.2165 C.3       4 GLC5        0.0000 
      8 CA        -10.2720  -58.3620   63.0270 C.3      12 GLL5        0.0000 
      9 CA         -7.8890  -60.1260   65.4060 C.3       8 GLP5        0.0000 
     10 CA        -11.5205  -57.5355   60.1325 C.3       4 GLC5        0.0000 
     11 CA        -12.3110  -58.6730   61.6410 C.3      12 GLL5        0.0000 
     12 CA        -10.7300  -56.3980   58.6240 C.3       8 GLP5        0.0000 
     13 N          -9.3890  -55.3700   64.5140 N.am      2 SEC2        0.0000 
     14 N          -9.4250  -56.1100   63.2580 N.am     10 SEL2        0.0000 
     15 N          -9.3530  -54.6300   65.7700 N.am      6 SEP2        0.0000 
     16 N          -7.9040  -55.9330   63.1765 N.am      2 SEC2        0.0000 
     17 N          -6.3830  -55.7560   63.0950 N.am      6 SEP2        0.0000 
     18 CA        -12.5685  -60.4400   58.0445 C.3       4 GLC5        0.0000 
     19 CA        -13.9440  -59.0700   58.8230 C.3      12 GLL5        0.0000 
     20 CA        -11.1930  -61.8100   57.2660 C.3       8 GLP5        0.0000 
     21 CA        -12.3370  -57.7340   58.7235 C.3       4 GLC5        0.0000 
     22 O         -17.2350  -56.8575   55.8100 O.2       1 ALC1        0.0000 
     23 O         -16.0040  -57.4800   56.3930 O.2       9 ALL1        0.0000 
     24 O         -18.4660  -56.2350   55.2270 O.2       5 ALP1        0.0000 
     25 CA        -12.9560  -60.6575   56.9765 C.3       4 GLC5        0.0000 
     26 CA        -14.7190  -59.5050   56.6870 C.3      12 GLL5        0.0000 
     27 CA        -13.9960  -64.4375   53.3450 C.3       4 GLC5        0.0000 
     28 CA        -15.5190  -62.9000   53.2450 C.3      12 GLL5        0.0000 
     29 CA        -12.4730  -65.9750   53.4450 C.3       8 GLP5        0.0000 
     30 O         -16.1805  -64.2795   51.2635 O.2       1 ALC1        0.0000 
     31 O         -16.4230  -63.7530   52.7590 O.2       9 ALL1        0.0000 
     32 O         -15.9380  -64.8060   49.7680 O.2       5 ALP1        0.0000 
     33 N         -13.5130  -63.7675   51.6695 N.am      2 SEC2        0.0000 
     34 N         -14.2570  -62.8060   52.6690 N.am     10 SEL2        0.0000 
     35 N         -12.7690  -64.7290   50.6700 N.am      6 SEP2        0.0000 
     36 CA        -11.9215  -60.5970   53.5010 C.3       4 GLC5        0.0000 
     37 CA        -13.3200  -61.9230   53.1850 C.3      12 GLL5        0.0000 
     38 CA        -10.5230  -59.2710   53.8170 C.3       8 GLP5        0.0000 
     39 CA        -14.1750  -60.2845   52.7245 C.3       4 GLC5        0.0000 
     40 CA        -15.0300  -58.6460   52.2640 C.3       8 GLP5        0.0000 
     41 CA        -13.5400  -62.5660   51.1275 C.3       4 GLC5        0.0000 
     42 CA        -13.7600  -63.2090   49.0700 C.3       8 GLP5        0.0000 
     43 CA        -12.0055  -63.1610   52.9440 C.3       4 GLC5        0.0000 
     44 CA        -10.6910  -64.3990   52.7030 C.3       8 GLP5        0.0000 
     45 CA        -13.4910  -63.3800   54.7980 C.3       4 GLC5        0.0000 
     46 CA        -13.6620  -64.8370   56.4110 C.3       8 GLP5        0.0000 
     47 CA        -13.0245  -61.5065   56.0495 C.3       4 GLC5        0.0000 
     48 CA        -14.8560  -61.2030   54.8330 C.3      12 GLL5        0.0000 
     49 CA        -11.9370  -60.5252   62.5932 C.3       4 GLC5        0.0000 
     50 CA        -11.8280  -62.6400   62.8870 C.3       8 GLP5        0.0000 
     51 CA        -15.1469  -60.2474   53.2885 C.3       4 GLC5        0.0000 
     52 CA        -15.8240  -62.0890   54.3410 C.3      12 GLL5        0.0000 
     53 CA        -14.4629  -63.3429   55.3620 C.3       4 GLC5        0.0000 
@<TRIPOS>BOND
@<TRIPOS>SUBSTRUCTURE
     1 ALC1        4 GROUP        1 X    ALC  0     ROOT ALC X 1
     2 SEC2       13 GROUP        1 X    SEC  0     **** SEC X 2
     3 ASC3        1 GROUP        1 X    ASC  0     **** ASC X 3
     4 GLC5        7 GROUP        1 X    GLC  0     **** GLC X 6
     5 ALP1        6 GROUP        1 Y    ALP  0     ROOT ALP Y 8
     6 SEP2       15 GROUP        1 Y    SEP  0     **** SEP Y 9
     7 ASP3        3 GROUP        1 Y    ASP  0     **** ASP Y 10
     8 GLP5        9 GROUP        1 Y    GLP  0     **** GLP Y 13
     9 ALL1        5 GROUP        1 Z    ALL  0     ROOT ALL Z 15
    10 SEL2       14 GROUP        1 Z    SEL  0     **** SEL Z 16
    11 ASL3        2 GROUP        1 Z    ASL  0     **** ASL Z 17
    12 GLL5        8 GROUP        1 Z    GLL  0     **** GLL Z 20
@<TRIPOS>SET

