#    Name: 4k6m_SAH_1_ligand
#    Modification time : Tue Mar 25 07:21:47 2014

@<TRIPOS>MOLECULE
4k6m_SAH_1_ligand
   46    48     1     0     0
SMALL
NO_CHARGES


@<TRIPOS>ATOM
      1 N         -10.0040  -59.7140   63.5270 N.4       1 SAH1001     0.0000 
      2 CA        -10.2720  -58.3620   63.0270 C.3       1 SAH1001     0.0000 
      3 CB        -11.7810  -58.1480   62.9580 C.3       1 SAH1001     0.0000 
      4 CG        -12.3110  -58.6730   61.6410 C.3       1 SAH1001     0.0000 
      5 SD        -14.0850  -58.4170   61.4840 S.3       1 SAH1001     0.0000 
      6 C          -9.5750  -57.2150   63.7790 C.2       1 SAH1001     0.0000 
      7 O          -9.4250  -56.1100   63.2580 O.co2     1 SAH1001     0.0000 
      8 OXT        -9.1490  -57.3590   64.9240 O.co2     1 SAH1001     0.0000 
      9 C5'       -14.1280  -59.7020   60.2000 C.3       1 SAH1001     0.0000 
     10 C4'       -13.9440  -59.0700   58.8230 C.3       1 SAH1001     0.0000 
     11 O4'       -14.0010  -60.0360   57.7870 O.3       1 SAH1001     0.0000 
     12 C3'       -15.0430  -58.0500   58.5530 C.3       1 SAH1001     0.0000 
     13 O3'       -14.4710  -56.7680   58.4170 O.3       1 SAH1001     0.0000 
     14 C2'       -15.7190  -58.5260   57.2830 C.3       1 SAH1001     0.0000 
     15 O2'       -16.0040  -57.4800   56.3930 O.3       1 SAH1001     0.0000 
     16 C1'       -14.7190  -59.5050   56.6870 C.3       1 SAH1001     0.0000 
     17 N9        -15.4120  -60.5410   55.8970 N.pl3     1 SAH1001     0.0000 
     18 C8        -16.7050  -61.0130   56.0530 C.2       1 SAH1001     0.0000 
     19 N7        -16.9430  -61.9510   55.1020 N.2       1 SAH1001     0.0000 
     20 C5        -15.8240  -62.0890   54.3410 C.ar      1 SAH1001     0.0000 
     21 C6        -15.5190  -62.9000   53.2450 C.ar      1 SAH1001     0.0000 
     22 N6        -16.4230  -63.7530   52.7590 N.pl3     1 SAH1001     0.0000 
     23 N1        -14.2570  -62.8060   52.6690 N.ar      1 SAH1001     0.0000 
     24 C2        -13.3200  -61.9230   53.1850 C.ar      1 SAH1001     0.0000 
     25 N3        -13.6260  -61.1210   54.2730 N.ar      1 SAH1001     0.0000 
     26 C4        -14.8560  -61.2030   54.8330 C.ar      1 SAH1001     0.0000 
     27 H          -9.9184  -58.3085   61.9627 H         1 SAH1001     0.0000 
     28 H         -11.9953  -57.0868   63.0415 H         1 SAH1001     0.0000 
     29 H         -12.2545  -58.6768   63.7796 H         1 SAH1001     0.0000 
     30 H         -12.2196  -59.7355   61.5325 H         1 SAH1001     0.0000 
     31 H         -11.9255  -58.1563   60.7846 H         1 SAH1001     0.0000 
     32 H         -15.0844  -60.1374   60.3470 H         1 SAH1001     0.0000 
     33 H         -13.3296  -60.3383   60.4893 H         1 SAH1001     0.0000 
     34 H         -12.9998  -58.5401   58.8114 H         1 SAH1001     0.0000 
     35 H         -15.7467  -58.1170   59.3574 H         1 SAH1001     0.0000 
     36 H         -16.5867  -59.0961   57.5702 H         1 SAH1001     0.0000 
     37 H         -14.0608  -58.9271   56.0457 H         1 SAH1001     0.0000 
     38 H         -17.3183  -60.7152   56.7275 H         1 SAH1001     0.0000 
     39 H         -17.0858  -64.1131   53.4156 H         1 SAH1001     0.0000 
     40 H         -16.3563  -63.9554   51.7819 H         1 SAH1001     0.0000 
     41 H         -12.3819  -61.8628   52.7522 H         1 SAH1001     0.0000 
     42 H          -9.1407  -59.7598   64.0296 H         1 SAH1001     0.0000 
     43 H         -10.7217  -60.0294   64.1479 H         1 SAH1001     0.0000 
     44 H          -9.9459  -60.3802   62.7835 H         1 SAH1001     0.0000 
     45 H         -14.6117  -56.5223   57.4579 H         1 SAH1001     0.0000 
     46 H         -17.0019  -57.4182   56.3775 H         1 SAH1001     0.0000 
@<TRIPOS>BOND
     1    2    1 1    
     2   42    1 1    
     3   43    1 1    
     4   44    1 1    
     5    3    2 1    
     6    6    2 1    
     7   27    2 1    
     8    4    3 1    
     9   28    3 1    
    10   29    3 1    
    11    5    4 1    
    12   30    4 1    
    13   31    4 1    
    14    9    5 1    
    15    7    6 ar   
    16    8    6 ar   
    17   10    9 1    
    18   32    9 1    
    19   33    9 1    
    20   11   10 1    
    21   12   10 1    
    22   34   10 1    
    23   16   11 1    
    24   13   12 1    
    25   14   12 1    
    26   35   12 1    
    27   45   13 1    
    28   15   14 1    
    29   16   14 1    
    30   36   14 1    
    31   46   15 1    
    32   17   16 1    
    33   37   16 1    
    34   18   17 1    
    35   26   17 1    
    36   19   18 2    
    37   38   18 1    
    38   20   19 1    
    39   21   20 ar   
    40   26   20 ar   
    41   22   21 1    
    42   23   21 ar   
    43   39   22 1    
    44   40   22 1    
    45   24   23 ar   
    46   25   24 ar   
    47   41   24 1    
    48   26   25 ar   
@<TRIPOS>SUBSTRUCTURE
     1 SAH1001     1 GROUP   
@<TRIPOS>SET

