#    Name: 1cxv_CBP_2_INTS_M
#    Modification time : Mon Mar 24 21:06:52 2014

@<TRIPOS>MOLECULE
1cxv_CBP_2_INTS_M
   54     0    12     0     0
SMALL
NO_CHARGES


@<TRIPOS>ATOM
      1 Zn         41.1380   -3.6295   73.1985 Zn        3 ZIC7        0.0000 
      2 Zn         40.9830   -2.6230   73.4490 Zn       11 ZIL7        0.0000 
      3 Zn         41.2930   -4.6360   72.9480 Zn        7 ZIP7        0.0000 
      4 O          41.9660   -1.2505   73.2330 O.2       1 ALC1        0.0000 
      5 O          40.9830   -2.6230   73.4490 O.2       9 ALL1        0.0000 
      6 O          42.9490    0.1220   73.0170 O.2       5 ALP1        0.0000 
      7 O          41.8265   -1.8860   74.1160 O.2       1 ALC1        0.0000 
      8 O          42.6700   -1.1490   74.7830 O.2       5 ALP1        0.0000 
      9 Zn         40.0500   -4.5255   73.2735 Zn        3 ZIC7        0.0000 
     10 Zn         38.8070   -4.4150   73.5990 Zn       11 ZIL7        0.0000 
     11 CA         37.1830   -7.3130   74.5425 C.3       4 GLC5        0.0000 
     12 CA         36.0450   -5.5220   74.4340 C.3      12 GLL5        0.0000 
     13 CA         38.3210   -9.1040   74.6510 C.3       8 GLP5        0.0000 
     14 N          37.3175   -0.2135   77.8985 N.am      2 SEC2        0.0000 
     15 N          37.6250   -1.2610   77.1290 N.am     10 SEL2        0.0000 
     16 N          37.0100    0.8340   78.6680 N.am      6 SEP2        0.0000 
     17 N          38.4175    0.1775   77.0835 N.am      2 SEC2        0.0000 
     18 N          39.2100    1.6160   77.0380 N.am      6 SEP2        0.0000 
     19 CA         39.7660   -1.1270   78.4645 C.3       4 GLC5        0.0000 
     20 CA         40.4490   -2.5760   77.0600 C.3      12 GLL5        0.0000 
     21 CA         39.0830    0.3220   79.8690 C.3       8 GLP5        0.0000 
     22 CA         42.7315   -1.5015   78.1955 C.3       4 GLC5        0.0000 
     23 CA         41.7670   -3.0430   77.3620 C.3      12 GLL5        0.0000 
     24 CA         43.6960    0.0400   79.0290 C.3       8 GLP5        0.0000 
     25 CA         44.0065   -6.0730   77.0110 C.3       4 GLC5        0.0000 
     26 CA         43.4760   -7.1890   78.5410 C.3      12 GLL5        0.0000 
     27 CA         44.5370   -4.9570   75.4810 C.3       8 GLP5        0.0000 
     28 CA         42.1260   -7.0660   80.3165 C.3       4 GLC5        0.0000 
     29 CA         40.7760   -6.9430   82.0920 C.3       8 GLP5        0.0000 
     30 CA         43.9295  -10.0470   82.8215 C.3       4 GLC5        0.0000 
     31 CA         45.3160   -9.6440   81.1000 C.3      12 GLL5        0.0000 
     32 CA         42.5430  -10.4500   84.5430 C.3       8 GLP5        0.0000 
     33 CA         33.8878   -1.8173   75.4923 C.3       4 GLC5        0.0000 
     34 CA         35.2240   -2.9920   75.7290 C.3      12 GLL5        0.0000 
     35 CA         32.9140   -0.3610   75.9000 C.3       8 GLP5        0.0000 
     36 CA         42.5430   -3.9274   76.2405 C.3       4 GLC5        0.0000 
     37 CA         41.9460   -4.2100   78.1990 C.3      12 GLL5        0.0000 
     38 CA         43.5590   -4.3450   74.7760 C.3       8 GLP5        0.0000 
     39 CA         39.7210   -2.9878   79.8972 C.3       4 GLC5        0.0000 
     40 CA         40.7810   -4.9050   78.7410 C.3      12 GLL5        0.0000 
     41 CA         39.3550   -1.6070   81.4210 C.3       8 GLP5        0.0000 
     42 CA         40.2177   -5.1088   80.5582 C.3       4 GLC5        0.0000 
     43 CA         39.4880   -4.4160   78.4280 C.3      12 GLL5        0.0000 
     44 CA         40.3010   -5.5570   82.5320 C.3       8 GLP5        0.0000 
     45 CA         44.8907   -5.1082   78.0085 C.3       4 GLC5        0.0000 
     46 CA         43.7240   -5.8880   79.1330 C.3      12 GLL5        0.0000 
     47 CA         45.6770   -4.3910   76.2680 C.3       8 GLP5        0.0000 
     48 CA         46.3358   -5.9087   81.3863 C.3       4 GLC5        0.0000 
     49 CA         44.4850   -5.7630   80.3650 C.3      12 GLL5        0.0000 
     50 CA         47.9340   -5.4570   82.0960 C.3       8 GLP5        0.0000 
     51 CA         42.6616   -6.6674   81.2302 C.3       4 GLC5        0.0000 
     52 CA         44.9900   -6.9580   80.9880 C.3      12 GLL5        0.0000 
     53 CA         46.2935   -7.6414   79.0625 C.3       4 GLC5        0.0000 
     54 CA         48.1640   -7.2980   78.1940 C.3       8 GLP5        0.0000 
@<TRIPOS>BOND
@<TRIPOS>SUBSTRUCTURE
     1 ALC1        4 GROUP        1 X    ALC  0     ROOT ALC X 1
     2 SEC2       14 GROUP        1 X    SEC  0     **** SEC X 2
     3 ZIC7        1 GROUP        1 X    ZIC  0     **** ZIC X 5
     4 GLC5       11 GROUP        1 X    GLC  0     **** GLC X 6
     5 ALP1        6 GROUP        1 Y    ALP  0     ROOT ALP Y 8
     6 SEP2       16 GROUP        1 Y    SEP  0     **** SEP Y 9
     7 ZIP7        3 GROUP        1 Y    ZIP  0     **** ZIP Y 12
     8 GLP5       13 GROUP        1 Y    GLP  0     **** GLP Y 13
     9 ALL1        5 GROUP        1 Z    ALL  0     ROOT ALL Z 15
    10 SEL2       15 GROUP        1 Z    SEL  0     **** SEL Z 16
    11 ZIL7        2 GROUP        1 Z    ZIL  0     **** ZIL Z 19
    12 GLL5       12 GROUP        1 Z    GLL  0     **** GLL Z 20
@<TRIPOS>SET

