#    Name: 1cxv_CBP_2_ligand
#    Modification time : Mon Mar 24 21:06:52 2014

@<TRIPOS>MOLECULE
1cxv_CBP_2_ligand
   48    50     1     0     0
SMALL
NO_CHARGES


@<TRIPOS>ATOM
      1 O1         40.9830   -2.6230   73.4490 O.3       1 CBP11       0.0000 
      2 N2         39.6350   -2.4630   73.0840 N.am      1 CBP11       0.0000 
      3 C3         38.7050   -3.2390   73.7890 C.2       1 CBP11       0.0000 
      4 O4         38.8070   -4.4150   73.5990 O.2       1 CBP11       0.0000 
      5 C5         37.5590   -2.5840   74.5600 C.3       1 CBP11       0.0000 
      6 C6         36.7690   -3.3390   75.7100 C.3       1 CBP11       0.0000 
      7 C7         35.2240   -2.9920   75.7290 C.3       1 CBP11       0.0000 
      8 C8         34.4990   -3.5550   74.4400 C.3       1 CBP11       0.0000 
      9 O9         34.6730   -5.0060   74.3140 O.3       1 CBP11       0.0000 
     10 C10        36.0450   -5.5220   74.4340 C.3       1 CBP11       0.0000 
     11 C11        36.8210   -4.9260   75.6610 C.3       1 CBP11       0.0000 
     12 S12        37.6520   -2.7230   77.2370 S.o2      1 CBP11       0.0000 
     13 O13        36.8380   -3.2950   78.3220 O.2       1 CBP11       0.0000 
     14 O14        37.6250   -1.2610   77.1290 O.2       1 CBP11       0.0000 
     15 C15        39.2980   -3.2480   77.5840 C.ar      1 CBP11       0.0000 
     16 C16        40.4490   -2.5760   77.0600 C.ar      1 CBP11       0.0000 
     17 C17        41.7670   -3.0430   77.3620 C.ar      1 CBP11       0.0000 
     18 C18        41.9460   -4.2100   78.1990 C.ar      1 CBP11       0.0000 
     19 C19        40.7810   -4.9050   78.7410 C.ar      1 CBP11       0.0000 
     20 C20        39.4880   -4.4160   78.4280 C.ar      1 CBP11       0.0000 
     21 O21        43.2230   -4.7110   78.5060 O.3       1 CBP11       0.0000 
     22 C22        43.7240   -5.8880   79.1330 C.ar      1 CBP11       0.0000 
     23 C23        44.4850   -5.7630   80.3650 C.ar      1 CBP11       0.0000 
     24 C24        44.9900   -6.9580   80.9880 C.ar      1 CBP11       0.0000 
     25 C25        44.7340   -8.2530   80.3860 C.ar      1 CBP11       0.0000 
     26 C26        43.9840   -8.3640   79.1750 C.ar      1 CBP11       0.0000 
     27 C27        43.4760   -7.1890   78.5410 C.ar      1 CBP11       0.0000 
     28 CL28       45.3160   -9.6440   81.1000 Cl        1 CBP11       0.0000 
     29 H          39.3578   -1.8315   72.3628 H         1 CBP11       0.0000 
     30 H          36.7794   -2.2251   73.8161 H         1 CBP11       0.0000 
     31 H          37.9344   -1.6120   75.0120 H         1 CBP11       0.0000 
     32 H          35.1093   -1.9207   75.7524 H         1 CBP11       0.0000 
     33 H          34.7785   -3.4401   76.6021 H         1 CBP11       0.0000 
     34 H          34.9200   -3.0246   73.5812 H         1 CBP11       0.0000 
     35 H          33.4429   -3.2837   74.5252 H         1 CBP11       0.0000 
     36 H          36.6346   -5.2897   73.5338 H         1 CBP11       0.0000 
     37 H          36.0466   -6.6167   74.5503 H         1 CBP11       0.0000 
     38 H          36.3831   -5.3099   76.5779 H         1 CBP11       0.0000 
     39 H          37.8618   -5.2314   75.6046 H         1 CBP11       0.0000 
     40 H          40.3271   -1.7566   76.4658 H         1 CBP11       0.0000 
     41 H          42.5782   -2.5629   76.9943 H         1 CBP11       0.0000 
     42 H          40.9144   -5.7120   79.3223 H         1 CBP11       0.0000 
     43 H          38.6562   -4.8873   78.7987 H         1 CBP11       0.0000 
     44 H          44.6507   -4.8624   80.7663 H         1 CBP11       0.0000 
     45 H          45.5229   -6.9006   81.8440 H         1 CBP11       0.0000 
     46 H          43.8124   -9.2769   78.7656 H         1 CBP11       0.0000 
     47 H          42.9454   -7.2534   77.6841 H         1 CBP11       0.0000 
     48 H          41.2151   -1.7910   73.9528 H         1 CBP11       0.0000 
@<TRIPOS>BOND
     1    2    1 1    
     2   48    1 1    
     3    3    2 am   
     4   29    2 1    
     5    4    3 2    
     6    5    3 1    
     7    6    5 1    
     8   30    5 1    
     9   31    5 1    
    10    7    6 1    
    11   11    6 1    
    12   12    6 1    
    13    8    7 1    
    14   32    7 1    
    15   33    7 1    
    16    9    8 1    
    17   34    8 1    
    18   35    8 1    
    19   10    9 1    
    20   11   10 1    
    21   36   10 1    
    22   37   10 1    
    23   38   11 1    
    24   39   11 1    
    25   13   12 2    
    26   14   12 2    
    27   15   12 1    
    28   16   15 ar   
    29   20   15 ar   
    30   17   16 ar   
    31   40   16 1    
    32   18   17 ar   
    33   41   17 1    
    34   19   18 ar   
    35   21   18 1    
    36   20   19 ar   
    37   42   19 1    
    38   43   20 1    
    39   22   21 1    
    40   23   22 ar   
    41   27   22 ar   
    42   24   23 ar   
    43   44   23 1    
    44   25   24 ar   
    45   45   24 1    
    46   26   25 ar   
    47   28   25 1    
    48   27   26 ar   
    49   46   26 1    
    50   47   27 1    
@<TRIPOS>SUBSTRUCTURE
     1 CBP11       1 GROUP   
@<TRIPOS>SET

