#    Name: 2wbb_RO3_8_INTS_M
#    Modification time : Tue Mar 25 03:58:13 2014

@<TRIPOS>MOLECULE
2wbb_RO3_8_INTS_M
   50     0     6     0     0
SMALL
NO_CHARGES


@<TRIPOS>ATOM
      1 CA         33.5035   51.0975  -19.5420 C.3       2 GLC5        0.0000 
      2 CA         34.9070   50.8250  -17.8350 C.3       6 GLL5        0.0000 
      3 CA         32.1000   51.3700  -21.2490 C.3       4 GLP5        0.0000 
      4 CA         38.7990   53.4610  -16.0215 C.3       2 GLC5        0.0000 
      5 CA         38.2570   51.5440  -16.2260 C.3       6 GLL5        0.0000 
      6 CA         39.3410   55.3780  -15.8170 C.3       4 GLP5        0.0000 
      7 CA         38.6180   51.0355  -14.2330 C.3       2 GLC5        0.0000 
      8 CA         38.9790   50.5270  -12.2400 C.3       4 GLP5        0.0000 
      9 N          32.1315   54.0885  -15.3695 N.am      1 SEC2        0.0000 
     10 N          31.8930   54.0480  -16.6240 N.am      5 SEL2        0.0000 
     11 N          32.3700   54.1290  -14.1150 N.am      3 SEP2        0.0000 
     12 N          31.4605   51.4300  -14.5970 N.am      1 SEC2        0.0000 
     13 N          31.6180   51.3090  -16.1080 N.am      5 SEL2        0.0000 
     14 N          31.3030   51.5510  -13.0860 N.am      3 SEP2        0.0000 
     15 CA         29.2295   60.2885  -17.7965 C.3       2 GLC5        0.0000 
     16 CA         30.0380   59.4210  -16.4810 C.3       6 GLL5        0.0000 
     17 CA         28.4210   61.1560  -19.1120 C.3       4 GLP5        0.0000 
     18 CA         28.6250   60.2520  -15.1995 C.3       2 GLC5        0.0000 
     19 CA         27.2120   61.0830  -13.9180 C.3       4 GLP5        0.0000 
     20 CA         31.1730   61.2945  -16.0730 C.3       2 GLC5        0.0000 
     21 CA         32.3080   63.1680  -15.6650 C.3       4 GLP5        0.0000 
     22 CA         30.9940   59.2190  -14.9665 C.3       2 GLC5        0.0000 
     23 CA         31.9500   59.0170  -13.4520 C.3       4 GLP5        0.0000 
     24 CA         31.5430   59.3060  -18.0510 C.3       2 GLC5        0.0000 
     25 CA         33.0480   59.1910  -19.6210 C.3       4 GLP5        0.0000 
     26 CA         32.5085   57.3195  -15.8265 C.3       2 GLC5        0.0000 
     27 CA         30.9470   56.5280  -17.0940 C.3       6 GLL5        0.0000 
     28 CA         34.0700   58.1110  -14.5590 C.3       4 GLP5        0.0000 
     29 CA         29.9195   54.6700  -16.9045 C.3       2 GLC5        0.0000 
     30 CA         28.8920   52.8120  -16.7150 C.3       4 GLP5        0.0000 
     31 CA         35.4130   53.1485  -13.7205 C.3       2 GLC5        0.0000 
     32 CA         35.8670   52.0730  -15.5610 C.3       6 GLL5        0.0000 
     33 CA         34.9590   54.2240  -11.8800 C.3       4 GLP5        0.0000 
     34 CA         35.4220   52.7898  -17.7282 C.3       2 GLC5        0.0000 
     35 CA         36.2770   50.8720  -17.6040 C.3       6 GLL5        0.0000 
     36 CA         35.2520   54.7310  -17.7370 C.3       4 GLP5        0.0000 
     37 CA         36.3840   51.4498  -19.3233 C.3       2 GLC5        0.0000 
     38 CA         37.1760   52.0510  -20.9270 C.3       4 GLP5        0.0000 
     39 CA         35.3890   49.6627  -15.8703 C.3       2 GLC5        0.0000 
     40 CA         35.1860   48.4770  -14.0210 C.3       4 GLP5        0.0000 
     41 CA         35.7840   53.2593  -16.8753 C.3       2 GLC5        0.0000 
     42 CA         36.7650   51.5020  -16.4660 C.3       6 GLL5        0.0000 
     43 CA         35.7510   50.1322  -15.0173 C.3       2 GLC5        0.0000 
     44 CA         29.3682   59.5320  -18.7032 C.3       2 GLC5        0.0000 
     45 CA         30.4070   57.9060  -17.6250 C.3       6 GLL5        0.0000 
     46 CA         34.7488   53.2208  -17.0550 C.3       2 GLC5        0.0000 
     47 CA         34.4880   52.0250  -15.8020 C.3       6 GLL5        0.0000 
     48 CA         33.4633   50.2888  -15.2400 C.3       2 GLC5        0.0000 
     49 CA         32.6810   48.8670  -14.1070 C.3       4 GLP5        0.0000 
     50 CA         31.8396   58.2045  -18.6576 C.3       2 GLC5        0.0000 
@<TRIPOS>BOND
@<TRIPOS>SUBSTRUCTURE
     1 SEC2        9 GROUP        1 X    SEC  0     ROOT SEC X 2
     2 GLC5        1 GROUP        1 X    GLC  0     **** GLC X 6
     3 SEP2       11 GROUP        1 Y    SEP  0     ROOT SEP Y 9
     4 GLP5        3 GROUP        1 Y    GLP  0     **** GLP Y 13
     5 SEL2       10 GROUP        1 Z    SEL  0     ROOT SEL Z 16
     6 GLL5        2 GROUP        1 Z    GLL  0     **** GLL Z 20
@<TRIPOS>SET

