#    Name: 2wbb_RO3_8_ligand
#    Modification time : Tue Mar 25 03:58:13 2014

@<TRIPOS>MOLECULE
2wbb_RO3_8_ligand
   30    31     1     0     0
SMALL
NO_CHARGES


@<TRIPOS>ATOM
      1 C5         36.2770   50.8720  -17.6040 C.ar      1 RO31336     0.0000 
      2 C6         34.9070   50.8250  -17.8350 C.ar      1 RO31336     0.0000 
      3 C9         38.2570   51.5440  -16.2260 C.3       1 RO31336     0.0000 
      4 C10        36.7650   51.5020  -16.4660 C.ar      1 RO31336     0.0000 
      5 C1         31.7510   53.7190  -17.7920 C.2       1 RO31336     0.0000 
      6 O1         31.8930   54.0480  -16.6240 O.2       1 RO31336     0.0000 
      7 N1         31.3560   54.5830  -18.7400 N.2       1 RO31336     0.0000 
      8 C4         31.0060   55.8660  -18.5360 C.2       1 RO31336     0.0000 
      9 O3         32.1550   50.0860  -17.9710 O.2       1 RO31336     0.0000 
     10 C15        30.2240   57.9100  -18.9640 C.2       1 RO31336     0.0000 
     11 C14        30.4070   57.9060  -17.6250 C.2       1 RO31336     0.0000 
     12 C12        34.4880   52.0250  -15.8020 C.ar      1 RO31336     0.0000 
     13 O2         31.6180   51.3090  -16.1080 O.2       1 RO31336     0.0000 
     14 BR2        30.0380   59.4210  -16.4810 Br        1 RO31336     0.0000 
     15 S16        30.9470   56.5280  -17.0940 S.3       1 RO31336     0.0000 
     16 N17        30.5670   56.7270  -19.4550 N.pl3     1 RO31336     0.0000 
     17 N5         31.9930   52.4660  -18.1820 N.am      1 RO31336     0.0000 
     18 S2         32.4350   51.3160  -17.2780 S.o2      1 RO31336     0.0000 
     19 C11        34.0030   51.3960  -16.9440 C.ar      1 RO31336     0.0000 
     20 C8         35.8670   52.0730  -15.5610 C.ar      1 RO31336     0.0000 
     21 H          36.9268   50.4417  -18.2735 H         1 RO31336     0.0000 
     22 H          34.5505   50.3551  -18.6884 H         1 RO31336     0.0000 
     23 H          29.8913   58.6707  -19.4751 H         1 RO31336     0.0000 
     24 H          33.8389   52.4553  -15.1333 H         1 RO31336     0.0000 
     25 H          30.5031   56.4953  -20.4346 H         1 RO31336     0.0000 
     26 H          31.8905   52.1669  -19.1949 H         1 RO31336     0.0000 
     27 H          36.2195   52.5326  -14.7105 H         1 RO31336     0.0000 
     28 H          38.6489   50.6262  -16.1620 H         1 RO31336     0.0000 
     29 H          38.7386   52.0176  -16.9634 H         1 RO31336     0.0000 
     30 H          38.4832   52.0192  -15.3757 H         1 RO31336     0.0000 
@<TRIPOS>BOND
     1    2    1 ar   
     2    4    1 ar   
     3   21    1 1    
     4   19    2 ar   
     5   22    2 1    
     6    4    3 1    
     7   28    3 1    
     8   29    3 1    
     9   30    3 1    
    10   20    4 ar   
    11    6    5 2    
    12    7    5 1    
    13   17    5 am   
    14    8    7 2    
    15   15    8 1    
    16   16    8 1    
    17   18    9 2    
    18   11   10 2    
    19   16   10 1    
    20   23   10 1    
    21   14   11 1    
    22   15   11 1    
    23   19   12 ar   
    24   20   12 ar   
    25   24   12 1    
    26   18   13 2    
    27   25   16 1    
    28   18   17 1    
    29   26   17 1    
    30   19   18 1    
    31   27   20 1    
@<TRIPOS>SUBSTRUCTURE
     1 RO31336     1 GROUP   
@<TRIPOS>SET

