#    Name: 3ugc_046_1_INTS_M
#    Modification time : Mon Mar 24 22:20:14 2014

@<TRIPOS>MOLECULE
3ugc_046_1_INTS_M
  112     0     9     0     0
SMALL
NO_CHARGES


@<TRIPOS>ATOM
      1 CA         23.5090  -16.5060  -12.2555 C.3       3 GLC5        0.0000 
      2 CA         23.2040  -17.8200  -13.1770 C.3       9 GLL5        0.0000 
      3 CA         23.8140  -15.1920  -11.3340 C.3       6 GLP5        0.0000 
      4 CA         21.9990  -17.3350  -11.8355 C.3       3 GLC5        0.0000 
      5 CA         20.7940  -16.8500  -10.4940 C.3       6 GLP5        0.0000 
      6 CA         22.9490  -16.3650  -14.8495 C.3       3 GLC5        0.0000 
      7 CA         22.6940  -14.9100  -16.5220 C.3       6 GLP5        0.0000 
      8 CA         25.3850  -19.8735  -11.8745 C.3       3 GLC5        0.0000 
      9 CA         24.2100  -19.7150  -13.2050 C.3       9 GLL5        0.0000 
     10 CA         26.5600  -20.0320  -10.5440 C.3       6 GLP5        0.0000 
     11 CA         20.7965  -20.3635  -14.7405 C.3       3 GLC5        0.0000 
     12 CA         22.1430  -19.6200  -13.7860 C.3       9 GLL5        0.0000 
     13 CA         19.4500  -21.1070  -15.6950 C.3       6 GLP5        0.0000 
     14 CA         24.9295  -18.7485  -19.6660 C.3       3 GLC5        0.0000 
     15 CA         24.3850  -18.1430  -17.9460 C.3       9 GLL5        0.0000 
     16 CA         25.4740  -19.3540  -21.3860 C.3       6 GLP5        0.0000 
     17 CA         21.1110  -19.9775  -15.9955 C.3       3 GLC5        0.0000 
     18 CA         22.7720  -18.8480  -16.2960 C.3       9 GLL5        0.0000 
     19 O          22.8495  -18.3690  -19.9530 O.2       1 ALC1        0.0000 
     20 O          22.1800  -18.6790  -18.6960 O.2       7 ALL1        0.0000 
     21 O          23.5190  -18.0590  -21.2100 O.2       4 ALP1        0.0000 
     22 N          20.3645  -17.1470  -16.8260 N.am      2 SEC2        0.0000 
     23 N          20.2380  -18.3620  -17.5360 N.am      8 SEL2        0.0000 
     24 N          20.4910  -15.9320  -16.1160 N.am      5 SEP2        0.0000 
     25 CA         21.9630  -20.7670  -20.3715 C.3       3 GLC5        0.0000 
     26 CA         20.6690  -19.3950  -20.9030 C.3       9 GLL5        0.0000 
     27 CA         23.2570  -22.1390  -19.8400 C.3       6 GLP5        0.0000 
     28 CA         20.1055  -21.4320  -20.7040 C.3       3 GLC5        0.0000 
     29 CA         19.5420  -23.4690  -20.5050 C.3       6 GLP5        0.0000 
     30 CA         16.6300  -17.3510  -17.2720 C.3       3 GLC5        0.0000 
     31 CA         17.8830  -17.8800  -18.9580 C.3       9 GLL5        0.0000 
     32 CA         15.3770  -16.8220  -15.5860 C.3       6 GLP5        0.0000 
     33 CA         18.5700  -15.9455  -19.4105 C.3       3 GLC5        0.0000 
     34 CA         19.2570  -14.0110  -19.8630 C.3       6 GLP5        0.0000 
     35 CA         14.9515  -17.5920  -18.1785 C.3       3 GLC5        0.0000 
     36 CA         16.5570  -17.6820  -19.3710 C.3       9 GLL5        0.0000 
     37 CA         13.3460  -17.5020  -16.9860 C.3       6 GLP5        0.0000 
     38 CA         15.2880  -18.0345  -22.6115 C.3       3 GLC5        0.0000 
     39 CA         16.1410  -18.0930  -20.6360 C.3       9 GLL5        0.0000 
     40 CA         14.4350  -17.9760  -24.5870 C.3       6 GLP5        0.0000 
     41 CA         16.7205  -17.5730  -23.1070 C.3       3 GLC5        0.0000 
     42 CA         17.0150  -18.6910  -21.5370 C.3       9 GLL5        0.0000 
     43 CA         16.4260  -16.4550  -24.6770 C.3       6 GLP5        0.0000 
     44 CA         14.1330  -18.2890  -22.5115 C.3       3 GLC5        0.0000 
     45 CA         13.8310  -18.6020  -20.4360 C.3       9 GLL5        0.0000 
     46 CA         13.2355  -21.0455  -21.0160 C.3       3 GLC5        0.0000 
     47 CA         13.0870  -20.4760  -19.2610 C.3       9 GLL5        0.0000 
     48 CA         13.3840  -21.6150  -22.7710 C.3       6 GLP5        0.0000 
     49 CA         11.8915  -22.0820  -19.5895 C.3       3 GLC5        0.0000 
     50 CA         10.6960  -23.6880  -19.9180 C.3       6 GLP5        0.0000 
     51 CA         12.4115  -21.2075  -17.4645 C.3       3 GLC5        0.0000 
     52 CA         11.7360  -21.9390  -15.6680 C.3       6 GLP5        0.0000 
     53 CA         13.2165  -18.9890  -18.1235 C.3       3 GLC5        0.0000 
     54 N          10.9785  -21.0705  -18.7475 N.am      2 SEC2        0.0000 
     55 N          11.8220  -20.0160  -19.3410 N.am      8 SEL2        0.0000 
     56 N          10.1350  -22.1250  -18.1540 N.am      5 SEP2        0.0000 
     57 O           9.4070  -19.0750  -18.8015 O.2       1 ALC1        0.0000 
     58 O          10.1730  -18.4790  -19.8140 O.2       7 ALL1        0.0000 
     59 O           8.6410  -19.6710  -17.7890 O.2       4 ALP1        0.0000 
     60 CA          8.3390  -17.1805  -22.0290 C.3       3 GLC5        0.0000 
     61 CA          8.1610  -17.1710  -20.0410 C.3       9 GLL5        0.0000 
     62 CA          8.5170  -17.1900  -24.0170 C.3       6 GLP5        0.0000 
     63 CA          8.1305  -18.8700  -20.9050 C.3       3 GLC5        0.0000 
     64 CA          8.1000  -20.5690  -21.7690 C.3       6 GLP5        0.0000 
     65 CA          8.6810  -16.4270  -18.4770 C.3       3 GLC5        0.0000 
     66 CA          9.2010  -15.6830  -16.9130 C.3       6 GLP5        0.0000 
     67 CA         26.3270  -19.0620  -12.5210 C.3       3 GLC5        0.0000 
     68 CA         26.0940  -18.0920  -14.4980 C.3       9 GLL5        0.0000 
     69 CA         29.2590  -18.2540  -12.6560 C.3       3 GLC5        0.0000 
     70 CA         28.3190  -17.2630  -14.1020 C.3       9 GLL5        0.0000 
     71 CA         30.1990  -19.2450  -11.2100 C.3       6 GLP5        0.0000 
     72 CA         27.7805  -15.6900  -12.6010 C.3       3 GLC5        0.0000 
     73 CA         27.2420  -14.1170  -11.1000 C.3       6 GLP5        0.0000 
     74 CA         26.9395  -14.9540  -13.0470 C.3       3 GLC5        0.0000 
     75 CA         26.6370  -15.7910  -14.9940 C.3       9 GLL5        0.0000 
     76 CA         24.6655  -15.3505  -15.7580 C.3       3 GLC5        0.0000 
     77 CA         30.4310  -12.1140  -14.5600 C.3       3 GLC5        0.0000 
     78 CA         29.9200  -13.9700  -15.1630 C.3       9 GLL5        0.0000 
     79 CA         30.9420  -10.2580  -13.9570 C.3       6 GLP5        0.0000 
     80 CA         24.1659  -21.0841  -13.4774 C.3       3 GLC5        0.0000 
     81 CA         25.3820  -22.6850  -13.2940 C.3       6 GLP5        0.0000 
     82 CA         22.2374  -21.0341  -12.8724 C.3       3 GLC5        0.0000 
     83 CA         21.5250  -22.5850  -12.0840 C.3       6 GLP5        0.0000 
     84 CA         21.1116  -18.1893  -14.0514 C.3       3 GLC5        0.0000 
     85 CA         19.5250  -17.3690  -14.4490 C.3       6 GLP5        0.0000 
     86 CA         21.3847  -18.0670  -15.1212 C.3       3 GLC5        0.0000 
     87 CA         23.5323  -16.7003  -15.9815 C.3       3 GLC5        0.0000 
     88 CA         23.7170  -18.6820  -15.2910 C.3       9 GLL5        0.0000 
     89 CA         23.7780  -16.4958  -16.9795 C.3       3 GLC5        0.0000 
     90 CA         25.3390  -18.0200  -16.9280 C.3       9 GLL5        0.0000 
     91 CA         23.0879  -20.5232  -16.9966 C.3       3 GLC5        0.0000 
     92 CA         23.0970  -18.5460  -17.6170 C.3       9 GLL5        0.0000 
     93 CA         23.0050  -22.3910  -17.2880 C.3       6 GLP5        0.0000 
     94 CA         22.8142  -16.8035  -16.7392 C.3       3 GLC5        0.0000 
     95 CA         20.5630  -18.4495  -23.0033 C.3       3 GLC5        0.0000 
     96 CA         21.0510  -17.4510  -24.6140 C.3       6 GLP5        0.0000 
     97 CA         21.0950  -20.5315  -22.3158 C.3       3 GLC5        0.0000 
     98 CA         19.4810  -19.5010  -21.8820 C.3       9 GLL5        0.0000 
     99 CA         22.1150  -21.6150  -23.2390 C.3       6 GLP5        0.0000 
    100 CA         18.0044  -20.8922  -21.4096 C.3       3 GLC5        0.0000 
    101 CA         18.0530  -22.8410  -21.2960 C.3       6 GLP5        0.0000 
    102 CA         11.3255  -18.4715  -22.0855 C.3       3 GLC5        0.0000 
    103 CA         12.5410  -18.0710  -20.4990 C.3       9 GLL5        0.0000 
    104 CA         10.6070  -18.4840  -23.9610 C.3       6 GLP5        0.0000 
    105 CA         12.8753  -20.1034  -21.4826 C.3       3 GLC5        0.0000 
    106 CA         11.5470  -18.8470  -19.9210 C.3       9 GLL5        0.0000 
    107 CA         12.8562  -18.0469  -18.5901 C.3       3 GLC5        0.0000 
    108 CA         26.7759  -19.7119  -15.6129 C.3       3 GLC5        0.0000 
    109 CA         25.0240  -18.2990  -15.5910 C.3       9 GLL5        0.0000 
    110 CA         27.9140  -21.2980  -15.8470 C.3       6 GLP5        0.0000 
    111 CA         29.4372  -18.1030  -15.8777 C.3       3 GLC5        0.0000 
    112 CA         30.0110  -19.4250  -17.3910 C.3       6 GLP5        0.0000 
@<TRIPOS>BOND
@<TRIPOS>SUBSTRUCTURE
     1 ALC1       19 GROUP        1 X    ALC  0     ROOT ALC X 1
     2 SEC2       22 GROUP        1 X    SEC  0     **** SEC X 2
     3 GLC5        1 GROUP        1 X    GLC  0     **** GLC X 6
     4 ALP1       21 GROUP        1 Y    ALP  0     ROOT ALP Y 8
     5 SEP2       24 GROUP        1 Y    SEP  0     **** SEP Y 9
     6 GLP5        3 GROUP        1 Y    GLP  0     **** GLP Y 13
     7 ALL1       20 GROUP        1 Z    ALL  0     ROOT ALL Z 15
     8 SEL2       23 GROUP        1 Z    SEL  0     **** SEL Z 16
     9 GLL5        2 GROUP        1 Z    GLL  0     **** GLL Z 20
@<TRIPOS>SET

