#    Name: 3ugc_046_1_ligand
#    Modification time : Mon Mar 24 22:20:14 2014

@<TRIPOS>MOLECULE
3ugc_046_1_ligand
   72    76     1     0     0
SMALL
NO_CHARGES


@<TRIPOS>ATOM
      1 F1         23.2040  -17.8200  -13.1770 F         1 0461201     0.0000 
      2 C2         23.3030  -18.9780  -13.8660 C.3       1 0461201     0.0000 
      3 F3         24.2100  -19.7150  -13.2050 F         1 0461201     0.0000 
      4 F4         22.1430  -19.6200  -13.7860 F         1 0461201     0.0000 
      5 C5         23.7170  -18.6820  -15.2910 C.ar      1 0461201     0.0000 
      6 C6         25.0240  -18.2990  -15.5910 C.ar      1 0461201     0.0000 
      7 C7         25.3390  -18.0200  -16.9280 C.ar      1 0461201     0.0000 
      8 C9         24.3850  -18.1430  -17.9460 C.ar      1 0461201     0.0000 
      9 C11        23.0970  -18.5460  -17.6170 C.ar      1 0461201     0.0000 
     10 C12        22.7720  -18.8480  -16.2960 C.ar      1 0461201     0.0000 
     11 N14        22.1800  -18.6790  -18.6960 N.am      1 0461201     0.0000 
     12 C16        20.8360  -18.5630  -18.5920 C.2       1 0461201     0.0000 
     13 O17        20.2380  -18.3620  -17.5360 O.2       1 0461201     0.0000 
     14 N18        20.1120  -18.7560  -19.7090 N.am      1 0461201     0.0000 
     15 C19        20.6690  -19.3950  -20.9030 C.3       1 0461201     0.0000 
     16 C22        19.4810  -19.5010  -21.8820 C.3       1 0461201     0.0000 
     17 C25        18.3120  -18.8910  -21.1370 C.ar      1 0461201     0.0000 
     18 C26        18.7410  -18.5030  -19.8780 C.ar      1 0461201     0.0000 
     19 C27        17.8830  -17.8800  -18.9580 C.ar      1 0461201     0.0000 
     20 C29        16.5570  -17.6820  -19.3710 C.ar      1 0461201     0.0000 
     21 C31        16.1410  -18.0930  -20.6360 C.ar      1 0461201     0.0000 
     22 C32        17.0150  -18.6910  -21.5370 C.ar      1 0461201     0.0000 
     23 O34        14.8270  -17.8770  -21.0130 O.3       1 0461201     0.0000 
     24 C35        13.8310  -18.6020  -20.4360 C.ar      1 0461201     0.0000 
     25 N36        14.0700  -19.7500  -19.8030 N.ar      1 0461201     0.0000 
     26 C37        13.0870  -20.4760  -19.2610 C.ar      1 0461201     0.0000 
     27 N39        11.8220  -20.0160  -19.3410 N.ar      1 0461201     0.0000 
     28 C40        11.5470  -18.8470  -19.9210 C.ar      1 0461201     0.0000 
     29 C41        12.5410  -18.0710  -20.4990 C.ar      1 0461201     0.0000 
     30 N43        10.1730  -18.4790  -19.8140 N.am      1 0461201     0.0000 
     31 C45         9.6470  -17.3300  -20.2790 C.2       1 0461201     0.0000 
     32 O46        10.2470  -16.4800  -20.8640 O.2       1 0461201     0.0000 
     33 C47         8.1610  -17.1710  -20.0410 C.3       1 0461201     0.0000 
     34 C51        26.0940  -18.0920  -14.4980 C.3       1 0461201     0.0000 
     35 N54        27.1310  -17.1670  -14.9590 N.4       1 0461201     0.0000 
     36 C55        28.3190  -17.2630  -14.1020 C.3       1 0461201     0.0000 
     37 C58        29.4080  -16.2990  -14.6270 C.3       1 0461201     0.0000 
     38 N61        28.8900  -14.9250  -14.6780 N.3       1 0461201     0.0000 
     39 C62        27.6980  -14.8360  -15.5590 C.3       1 0461201     0.0000 
     40 C65        26.6370  -15.7910  -14.9940 C.3       1 0461201     0.0000 
     41 C68        29.9200  -13.9700  -15.1630 C.3       1 0461201     0.0000 
     42 H          26.2993  -17.7160  -17.1682 H         1 0461201     0.0000 
     43 H          24.6373  -17.9385  -18.9128 H         1 0461201     0.0000 
     44 H          21.8310  -19.1941  -16.0665 H         1 0461201     0.0000 
     45 H          22.6114  -18.8857  -19.6479 H         1 0461201     0.0000 
     46 H          21.0219  -20.3829  -20.6927 H         1 0461201     0.0000 
     47 H          21.4266  -18.7904  -21.3561 H         1 0461201     0.0000 
     48 H          19.2913  -20.5266  -22.0912 H         1 0461201     0.0000 
     49 H          19.6976  -18.9354  -22.7565 H         1 0461201     0.0000 
     50 H          18.2011  -17.5923  -18.0546 H         1 0461201     0.0000 
     51 H          15.8892  -17.2293  -18.7318 H         1 0461201     0.0000 
     52 H          16.6944  -18.9683  -22.4614 H         1 0461201     0.0000 
     53 H          13.2876  -21.3750  -18.7877 H         1 0461201     0.0000 
     54 H          12.3519  -17.1931  -20.9312 H         1 0461201     0.0000 
     55 H           9.5439  -19.1850  -19.3261 H         1 0461201     0.0000 
     56 H          26.5195  -19.0700  -14.2552 H         1 0461201     0.0000 
     57 H          25.5922  -17.7068  -13.6056 H         1 0461201     0.0000 
     58 H          27.4246  -17.4572  -15.9816 H         1 0461201     0.0000 
     59 H          28.7291  -18.2702  -14.1111 H         1 0461201     0.0000 
     60 H          28.0873  -16.9822  -13.0772 H         1 0461201     0.0000 
     61 H          29.7095  -16.6407  -15.6186 H         1 0461201     0.0000 
     62 H          30.2684  -16.3684  -13.9593 H         1 0461201     0.0000 
     63 H          27.9414  -15.1446  -16.5636 H         1 0461201     0.0000 
     64 H          27.2970  -13.8346  -15.5593 H         1 0461201     0.0000 
     65 H          26.3709  -15.4448  -13.9877 H         1 0461201     0.0000 
     66 H          25.7413  -15.7124  -15.6224 H         1 0461201     0.0000 
     67 H           7.9371  -17.1875  -19.0665 H         1 0461201     0.0000 
     68 H           7.8168  -16.3060  -20.4062 H         1 0461201     0.0000 
     69 H           7.6350  -17.9024  -20.4751 H         1 0461201     0.0000 
     70 H          30.7257  -13.9603  -14.5707 H         1 0461201     0.0000 
     71 H          30.2357  -14.2001  -16.0835 H         1 0461201     0.0000 
     72 H          29.5709  -13.0336  -15.1984 H         1 0461201     0.0000 
@<TRIPOS>BOND
     1    2    1 1    
     2    3    2 1    
     3    4    2 1    
     4    5    2 1    
     5    6    5 ar   
     6   10    5 ar   
     7    7    6 ar   
     8   34    6 1    
     9    8    7 ar   
    10   42    7 1    
    11    9    8 ar   
    12   43    8 1    
    13   10    9 ar   
    14   11    9 1    
    15   44   10 1    
    16   12   11 am   
    17   45   11 1    
    18   13   12 2    
    19   14   12 am   
    20   15   14 1    
    21   18   14 1    
    22   16   15 1    
    23   46   15 1    
    24   47   15 1    
    25   17   16 1    
    26   48   16 1    
    27   49   16 1    
    28   18   17 ar   
    29   22   17 ar   
    30   19   18 ar   
    31   20   19 ar   
    32   50   19 1    
    33   21   20 ar   
    34   51   20 1    
    35   22   21 ar   
    36   23   21 1    
    37   52   22 1    
    38   24   23 1    
    39   25   24 ar   
    40   29   24 ar   
    41   26   25 ar   
    42   27   26 ar   
    43   53   26 1    
    44   28   27 ar   
    45   29   28 ar   
    46   30   28 1    
    47   54   29 1    
    48   31   30 am   
    49   55   30 1    
    50   32   31 2    
    51   33   31 1    
    52   67   33 1    
    53   68   33 1    
    54   69   33 1    
    55   35   34 1    
    56   56   34 1    
    57   57   34 1    
    58   36   35 1    
    59   40   35 1    
    60   58   35 1    
    61   37   36 1    
    62   59   36 1    
    63   60   36 1    
    64   38   37 1    
    65   61   37 1    
    66   62   37 1    
    67   39   38 1    
    68   41   38 1    
    69   40   39 1    
    70   63   39 1    
    71   64   39 1    
    72   65   40 1    
    73   66   40 1    
    74   70   41 1    
    75   71   41 1    
    76   72   41 1    
@<TRIPOS>SUBSTRUCTURE
     1 0461201     1 GROUP   
@<TRIPOS>SET

