#    Name: 3jxe_TYM_2_INTS_M
#    Modification time : Tue Mar 25 18:01:03 2014

@<TRIPOS>MOLECULE
3jxe_TYM_2_INTS_M
  105     0    15     0     0
SMALL
NO_CHARGES


@<TRIPOS>ATOM
      1 NZ        -13.6930    1.0815   26.7640 N.4       4 LYC4        0.0000 
      2 NZ        -13.9330    2.6940   27.7820 N.4      14 LYL4        0.0000 
      3 NZ        -13.4530   -0.5310   25.7460 N.4       9 LYP4        0.0000 
      4 N         -15.1635    2.7065   27.2135 N.am      2 SEC2        0.0000 
      5 N         -13.9330    2.6940   27.7820 N.am     12 SEL2        0.0000 
      6 N         -16.3940    2.7190   26.6450 N.am      7 SEP2        0.0000 
      7 CA        -15.6345    1.7665   29.6140 C.3       5 GLC5        0.0000 
      8 CA        -13.7930    1.8810   30.6940 C.3      15 GLL5        0.0000 
      9 CA        -17.4760    1.6520   28.5340 C.3      10 GLP5        0.0000 
     10 CA        -12.1330    0.9675   29.9680 C.3       5 GLC5        0.0000 
     11 CA        -10.4730    0.0540   29.2420 C.3      10 GLP5        0.0000 
     12 CA        -12.4005   -0.0805   31.8725 C.3       5 GLC5        0.0000 
     13 CA        -13.4880    1.7690   32.1930 C.3      15 GLL5        0.0000 
     14 CA        -11.3130   -1.9300   31.5520 C.3      10 GLP5        0.0000 
     15 CA        -11.3560    0.1385   32.3835 C.3       5 GLC5        0.0000 
     16 CA        -11.3990    2.2070   33.2150 C.3      15 GLL5        0.0000 
     17 CA        -12.3070    1.1810   34.5665 C.3       5 GLC5        0.0000 
     18 CA        -13.2150    0.1550   35.9180 C.3      10 GLP5        0.0000 
     19 CA         -9.4080    2.9295   34.8430 C.3       5 GLC5        0.0000 
     20 CA         -8.9800    1.5490   33.4530 C.3      15 GLL5        0.0000 
     21 CA         -9.8360    4.3100   36.2330 C.3      10 GLP5        0.0000 
     22 CA         -7.8155   -1.0585   34.1040 C.3       5 GLC5        0.0000 
     23 CA         -7.7440    0.5240   35.1390 C.3      15 GLL5        0.0000 
     24 CA         -7.8870   -2.6410   33.0690 C.3      10 GLP5        0.0000 
     25 CA         -8.7900    2.4170   35.6860 C.3       5 GLC5        0.0000 
     26 CA         -6.1835    1.4690   35.8885 C.3       5 GLC5        0.0000 
     27 CA         -4.6230    2.4140   36.6380 C.3      10 GLP5        0.0000 
     28 CA         -6.6470   -0.9360   35.5535 C.3       5 GLC5        0.0000 
     29 CA         -5.5500   -2.3960   35.9680 C.3      10 GLP5        0.0000 
     30 N          -5.4310    0.3710   35.1345 N.am      2 SEC2        0.0000 
     31 N          -6.6370    0.5790   34.4130 N.am     12 SEL2        0.0000 
     32 N          -4.2250    0.1630   35.8560 N.am      7 SEP2        0.0000 
     33 CA         -5.6355    1.7650   34.9090 C.3       5 GLC5        0.0000 
     34 CA         -6.6480    1.1160   33.1800 C.3      15 GLL5        0.0000 
     35 O          -4.0665    0.4310   33.0040 O.2       1 ALC1        0.0000 
     36 O          -5.5280    1.1620   32.4640 O.2      11 ALL1        0.0000 
     37 O          -2.6050   -0.3000   33.5440 O.2       6 ALP1        0.0000 
     38 O          -5.0850    0.8620   30.8560 O.2       1 ALC1        0.0000 
     39 O          -4.6420    0.5620   29.2480 O.2       6 ALP1        0.0000 
     40 N          -7.3065    2.9610   30.3825 N.am      2 SEC2        0.0000 
     41 N          -8.1840    2.2010   31.5220 N.am     12 SEL2        0.0000 
     42 N          -6.4290    3.7210   29.2430 N.am      7 SEP2        0.0000 
     43 N         -12.0540    4.3815   35.5785 N.am      2 SEC2        0.0000 
     44 N         -11.9330    4.3810   34.1360 N.am     12 SEL2        0.0000 
     45 N         -12.1750    4.3820   37.0210 N.am      7 SEP2        0.0000 
     46 O         -11.0790    5.5365   34.0300 O.2       1 ALC1        0.0000 
     47 O         -11.9330    4.3810   34.1360 O.2      11 ALL1        0.0000 
     48 O         -10.2250    6.6920   33.9240 O.2       6 ALP1        0.0000 
     49 OD1       -16.4465    7.6830   26.9150 O.co2     3 ASC3        0.0000 
     50 OD1       -16.0330    7.5010   28.1780 O.co2    13 ASL3        0.0000 
     51 OD1       -16.8600    7.8650   25.6520 O.co2     8 ASP3        0.0000 
     52 OD1       -15.5900    8.3640   26.8830 O.co2     3 ASC3        0.0000 
     53 OD1       -15.1470    9.2270   25.5880 O.co2     8 ASP3        0.0000 
     54 O         -16.4465    7.6830   26.9150 O.2       1 ALC1        0.0000 
     55 O         -16.0330    7.5010   28.1780 O.2      11 ALL1        0.0000 
     56 O         -16.8600    7.8650   25.6520 O.2       6 ALP1        0.0000 
     57 O         -17.0440    8.5315   28.6985 O.2       1 ALC1        0.0000 
     58 O         -18.0550    9.5620   29.2190 O.2       6 ALP1        0.0000 
     59 CA        -16.7190    4.3580   27.1175 C.3       5 GLC5        0.0000 
     60 CA        -17.1640    5.4660   28.9440 C.3      15 GLL5        0.0000 
     61 CA        -16.2740    3.2500   25.2910 C.3      10 GLP5        0.0000 
     62 CA        -19.3980    8.0435   31.5115 C.3       5 GLC5        0.0000 
     63 CA        -19.0450    6.0790   32.1690 C.3      15 GLL5        0.0000 
     64 CA        -19.7510   10.0080   30.8540 C.3      10 GLP5        0.0000 
     65 CA        -21.4130    5.5015   29.8425 C.3       5 GLC5        0.0000 
     66 CA        -19.3580    6.3470   30.0180 C.3      15 GLL5        0.0000 
     67 CA        -23.4680    4.6560   29.6670 C.3      10 GLP5        0.0000 
     68 CA        -19.5545    8.1775   30.4360 C.3       5 GLC5        0.0000 
     69 O         -21.0430    7.1330   31.7680 O.2       1 ALC1        0.0000 
     70 O         -19.9400    6.5190   31.2880 O.2      11 ALL1        0.0000 
     71 O         -22.1460    7.7470   32.2480 O.2       6 ALP1        0.0000 
     72 O         -21.1640    6.9245   30.3910 O.2       1 ALC1        0.0000 
     73 O         -22.3880    7.3300   29.4940 O.2       6 ALP1        0.0000 
     74 N         -13.9615    6.1635   25.9365 N.am      2 SEC2        0.0000 
     75 N         -14.3960    5.5110   27.2600 N.am     12 SEL2        0.0000 
     76 N         -13.5270    6.8160   24.6130 N.am      7 SEP2        0.0000 
     77 CA        -13.3675    1.3042   34.2252 C.3       5 GLC5        0.0000 
     78 CA        -13.5520    3.1380   32.8720 C.3      15 GLL5        0.0000 
     79 CA        -10.7900    3.5942   34.6675 C.3       5 GLC5        0.0000 
     80 CA         -7.7081   -0.6452   33.0946 C.3       5 GLC5        0.0000 
     81 CA         -6.1842    2.8718   32.1000 C.3       5 GLC5        0.0000 
     82 CA         -5.1240    4.3750   31.2760 C.3      10 GLP5        0.0000 
     83 CA        -13.3018    5.3525   33.0247 C.3       5 GLC5        0.0000 
     84 CA        -12.0890    3.5500   32.9890 C.3      15 GLL5        0.0000 
     85 CA        -13.7830    7.3610   33.1190 C.3      10 GLP5        0.0000 
     86 CA        -17.5595    3.6448   29.0345 C.3       5 GLC5        0.0000 
     87 CA        -18.1220    5.8090   30.1260 C.3      15 GLL5        0.0000 
     88 CA        -19.1033    4.2830   31.6107 C.3       5 GLC5        0.0000 
     89 CA        -17.9060    5.6290   31.4880 C.3      15 GLL5        0.0000 
     90 CA        -19.7310    2.7120   31.3930 C.3      10 GLP5        0.0000 
     91 CA        -18.2937    3.8985   32.1482 C.3       5 GLC5        0.0000 
     92 CA        -16.8280    5.1160   32.2070 C.3      15 GLL5        0.0000 
     93 CA        -15.3197    6.2230   33.0112 C.3       5 GLC5        0.0000 
     94 CA        -19.1157    4.3521   30.5847 C.3       5 GLC5        0.0000 
     95 CA        -19.4273    6.2291   28.1953 C.3       5 GLC5        0.0000 
     96 CA        -20.3540    6.4660   26.6140 C.3      10 GLP5        0.0000 
     97 CA        -19.5535    4.3050   34.5162 C.3       5 GLC5        0.0000 
     98 CA        -19.0980    6.0110   33.5560 C.3      15 GLL5        0.0000 
     99 CA        -20.5480    2.8540   35.1170 C.3      10 GLP5        0.0000 
    100 CA        -19.1450    4.2340   32.6543 C.3       5 GLC5        0.0000 
    101 CA        -18.0200    5.5010   34.2750 C.3      15 GLL5        0.0000 
    102 CA        -18.7720    6.1600   35.8392 C.3       5 GLC5        0.0000 
    103 CA        -18.9850    6.5640   37.7630 C.3      10 GLP5        0.0000 
    104 CA        -16.2563    5.1153   35.3278 C.3       5 GLC5        0.0000 
    105 CA        -15.0600    4.9530   36.7180 C.3      10 GLP5        0.0000 
@<TRIPOS>BOND
@<TRIPOS>SUBSTRUCTURE
     1 ALC1       35 GROUP        1 X    ALC  0     ROOT ALC X 1
     2 SEC2        4 GROUP        1 X    SEC  0     **** SEC X 2
     3 ASC3       49 GROUP        1 X    ASC  0     **** ASC X 3
     4 LYC4        1 GROUP        1 X    LYC  0     **** LYC X 4
     5 GLC5        7 GROUP        1 X    GLC  0     **** GLC X 6
     6 ALP1       37 GROUP        1 Y    ALP  0     ROOT ALP Y 8
     7 SEP2        6 GROUP        1 Y    SEP  0     **** SEP Y 9
     8 ASP3       51 GROUP        1 Y    ASP  0     **** ASP Y 10
     9 LYP4        3 GROUP        1 Y    LYP  0     **** LYP Y 11
    10 GLP5        9 GROUP        1 Y    GLP  0     **** GLP Y 13
    11 ALL1       36 GROUP        1 Z    ALL  0     ROOT ALL Z 15
    12 SEL2        5 GROUP        1 Z    SEL  0     **** SEL Z 16
    13 ASL3       50 GROUP        1 Z    ASL  0     **** ASL Z 17
    14 LYL4        2 GROUP        1 Z    LYL  0     **** LYL Z 18
    15 GLL5        8 GROUP        1 Z    GLL  0     **** GLL Z 20
@<TRIPOS>SET

