#    Name: 3jxe_TYM_2_ligand
#    Modification time : Tue Mar 25 18:01:03 2014

@<TRIPOS>MOLECULE
3jxe_TYM_2_ligand
   61    65     1     0     0
SMALL
NO_CHARGES


@<TRIPOS>ATOM
      1 P         -13.1470    3.5130   28.7320 P.3       1 TYM900      0.0000 
      2 O1P       -13.9330    2.6940   27.7820 O.co2     1 TYM900      0.0000 
      3 O2P       -11.9050    4.1730   28.2750 O.co2     1 TYM900      0.0000 
      4 O5'       -12.7670    2.6090   30.0090 O.3       1 TYM900      0.0000 
      5 C5'       -13.7930    1.8810   30.6940 C.3       1 TYM900      0.0000 
      6 C4'       -13.4880    1.7690   32.1930 C.3       1 TYM900      0.0000 
      7 O4'       -12.1340    1.2690   32.3760 O.3       1 TYM900      0.0000 
      8 C1'       -11.3990    2.2070   33.2150 C.3       1 TYM900      0.0000 
      9 N9         -9.9780    2.0940   32.7580 N.pl3     1 TYM900      0.0000 
     10 C4         -8.9800    1.5490   33.4530 C.ar      1 TYM900      0.0000 
     11 N3         -8.8970    0.9960   34.6780 N.ar      1 TYM900      0.0000 
     12 C2         -7.7440    0.5240   35.1390 C.ar      1 TYM900      0.0000 
     13 N1         -6.6370    0.5790   34.4130 N.ar      1 TYM900      0.0000 
     14 C6         -6.6480    1.1160   33.1800 C.ar      1 TYM900      0.0000 
     15 N6         -5.5280    1.1620   32.4640 N.pl3     1 TYM900      0.0000 
     16 C5         -7.8410    1.6210   32.6680 C.ar      1 TYM900      0.0000 
     17 N7         -8.1840    2.2010   31.5220 N.2       1 TYM900      0.0000 
     18 C8         -9.4880    2.4830   31.5770 C.2       1 TYM900      0.0000 
     19 C2'       -12.0890    3.5500   32.9890 C.3       1 TYM900      0.0000 
     20 O2'       -11.9330    4.3810   34.1360 O.3       1 TYM900      0.0000 
     21 C3'       -13.5520    3.1380   32.8720 C.3       1 TYM900      0.0000 
     22 O3'       -14.1180    2.9640   34.1820 O.3       1 TYM900      0.0000 
     23 NH3       -16.0330    7.5010   28.1780 N.4       1 TYM900      0.0000 
     24 CA        -15.8750    6.2880   28.9910 C.3       1 TYM900      0.0000 
     25 CB        -17.1640    5.4660   28.9440 C.3       1 TYM900      0.0000 
     26 CG        -18.1220    5.8090   30.1260 C.2       1 TYM900      0.0000 
     27 CD2       -17.9060    5.6290   31.4880 C.ar      1 TYM900      0.0000 
     28 CE2       -19.0450    6.0790   32.1690 C.ar      1 TYM900      0.0000 
     29 CE3       -16.8280    5.1160   32.2070 C.ar      1 TYM900      0.0000 
     30 CD1       -19.3580    6.3470   30.0180 C.2       1 TYM900      0.0000 
     31 NE1       -19.9400    6.5190   31.2880 N.pl3     1 TYM900      0.0000 
     32 CZ2       -19.0980    6.0110   33.5560 C.ar      1 TYM900      0.0000 
     33 CZ3       -16.8850    5.0540   33.6000 C.ar      1 TYM900      0.0000 
     34 CH2       -18.0200    5.5010   34.2750 C.ar      1 TYM900      0.0000 
     35 C         -14.7210    5.4380   28.4470 C.2       1 TYM900      0.0000 
     36 O         -14.3960    5.5110   27.2600 O.2       1 TYM900      0.0000 
     37 OPP       -14.1250    4.6310   29.3860 O.3       1 TYM900      0.0000 
     38 H         -13.8966    0.8582   30.2993 H         1 TYM900      0.0000 
     39 H         -14.7744    2.3697   30.5908 H         1 TYM900      0.0000 
     40 H         -14.1971    1.1218   32.6526 H         1 TYM900      0.0000 
     41 H         -11.4982    1.9134   34.2302 H         1 TYM900      0.0000 
     42 H          -7.7105    0.0954   36.1064 H         1 TYM900      0.0000 
     43 H          -4.7170    0.7602   32.8893 H         1 TYM900      0.0000 
     44 H          -5.5979    1.5942   31.5650 H         1 TYM900      0.0000 
     45 H         -10.0047    2.9080   30.8644 H         1 TYM900      0.0000 
     46 H         -11.7729    3.9589   32.0941 H         1 TYM900      0.0000 
     47 H         -14.0625    3.8023   32.2643 H         1 TYM900      0.0000 
     48 H         -15.6650    6.5367   30.0110 H         1 TYM900      0.0000 
     49 H         -16.9225    4.4036   28.9937 H         1 TYM900      0.0000 
     50 H         -17.6885    5.6612   28.0079 H         1 TYM900      0.0000 
     51 H         -15.9916    4.7835   31.7128 H         1 TYM900      0.0000 
     52 H         -19.8077    6.5910   29.1945 H         1 TYM900      0.0000 
     53 H         -20.7999    6.8801   31.4367 H         1 TYM900      0.0000 
     54 H         -19.9371    6.3387   34.0552 H         1 TYM900      0.0000 
     55 H         -16.0880    4.6778   34.1290 H         1 TYM900      0.0000 
     56 H         -18.0602    5.4540   35.2994 H         1 TYM900      0.0000 
     57 H         -16.7811    8.0757   28.5098 H         1 TYM900      0.0000 
     58 H         -15.2060    8.0633   28.1852 H         1 TYM900      0.0000 
     59 H         -16.2317    7.2843   27.2222 H         1 TYM900      0.0000 
     60 H         -11.7917    5.3013   33.7713 H         1 TYM900      0.0000 
     61 H         -13.5864    3.5679   34.7758 H         1 TYM900      0.0000 
@<TRIPOS>BOND
     1    2    1 ar   
     2    3    1 ar   
     3    4    1 1    
     4   37    1 1    
     5    5    4 1    
     6    6    5 1    
     7   38    5 1    
     8   39    5 1    
     9    7    6 1    
    10   21    6 1    
    11   40    6 1    
    12    8    7 1    
    13    9    8 1    
    14   19    8 1    
    15   41    8 1    
    16   10    9 1    
    17   18    9 1    
    18   11   10 ar   
    19   16   10 ar   
    20   12   11 ar   
    21   13   12 ar   
    22   42   12 1    
    23   14   13 ar   
    24   15   14 1    
    25   16   14 ar   
    26   43   15 1    
    27   44   15 1    
    28   17   16 1    
    29   18   17 2    
    30   45   18 1    
    31   20   19 1    
    32   21   19 1    
    33   46   19 1    
    34   60   20 1    
    35   22   21 1    
    36   47   21 1    
    37   61   22 1    
    38   24   23 1    
    39   57   23 1    
    40   58   23 1    
    41   59   23 1    
    42   25   24 1    
    43   35   24 1    
    44   48   24 1    
    45   26   25 1    
    46   49   25 1    
    47   50   25 1    
    48   27   26 1    
    49   30   26 2    
    50   28   27 ar   
    51   29   27 ar   
    52   31   28 1    
    53   32   28 ar   
    54   33   29 ar   
    55   51   29 1    
    56   31   30 1    
    57   52   30 1    
    58   53   31 1    
    59   34   32 ar   
    60   54   32 1    
    61   34   33 ar   
    62   55   33 1    
    63   56   34 1    
    64   36   35 2    
    65   37   35 1    
@<TRIPOS>SUBSTRUCTURE
     1 TYM900      1 GROUP   
@<TRIPOS>SET

