#    Name: 3ts1_TYA_1_INTS_M
#    Modification time : Mon Mar 24 20:52:00 2014

@<TRIPOS>MOLECULE
3ts1_TYA_1_INTS_M
   83     0    12     0     0
SMALL
NO_CHARGES


@<TRIPOS>ATOM
      1 N         -11.6240   17.4395   -8.3665 N.am      2 SEC2        0.0000 
      2 N         -12.6530   16.1560   -8.9500 N.am     10 SEL2        0.0000 
      3 N         -10.5950   18.7230   -7.7830 N.am      6 SEP2        0.0000 
      4 CA        -15.2340   18.7800   -7.2815 C.3       4 GLC5        0.0000 
      5 CA        -15.3610   16.7390   -7.5980 C.3      12 GLL5        0.0000 
      6 CA        -15.1070   20.8210   -6.9650 C.3       8 GLP5        0.0000 
      7 CA        -16.4200   18.8560   -6.4555 C.3       4 GLC5        0.0000 
      8 CA        -16.4410   16.7540   -6.4820 C.3      12 GLL5        0.0000 
      9 CA        -16.3990   20.9580   -6.4290 C.3       8 GLP5        0.0000 
     10 N         -18.3220   14.8580   -3.5465 N.am      2 SEC2        0.0000 
     11 N         -17.0530   15.7000   -4.3270 N.am     10 SEL2        0.0000 
     12 N         -19.5910   14.0160   -2.7660 N.am      6 SEP2        0.0000 
     13 CA        -18.7445   13.8065   -4.9895 C.3       4 GLC5        0.0000 
     14 CA        -17.2380   14.4760   -6.3640 C.3      12 GLL5        0.0000 
     15 CA        -20.2510   13.1370   -3.6150 C.3       8 GLP5        0.0000 
     16 N         -18.7550   13.8020   -4.1060 N.am      2 SEC2        0.0000 
     17 N         -17.9190   13.5880   -5.4460 N.am     10 SEL2        0.0000 
     18 O         -17.6615   12.1080   -5.1975 O.2       1 ALC1        0.0000 
     19 O         -17.9190   13.5880   -5.4460 O.2       9 ALL1        0.0000 
     20 O         -17.4040   10.6280   -4.9490 O.2       5 ALP1        0.0000 
     21 CA        -19.2590   16.3685   -5.5430 C.3       4 GLC5        0.0000 
     22 CA        -18.1670   15.3790   -7.1030 C.3      12 GLL5        0.0000 
     23 CA        -20.3510   17.3580   -3.9830 C.3       8 GLP5        0.0000 
     24 CA        -24.1520   14.1980   -9.3255 C.3       4 GLC5        0.0000 
     25 CA        -22.1130   13.9090   -9.4540 C.3      12 GLL5        0.0000 
     26 CA        -26.1910   14.4870   -9.1970 C.3       8 GLP5        0.0000 
     27 CA        -23.6070   16.1805   -6.7880 C.3       4 GLC5        0.0000 
     28 CA        -22.2920   14.4240   -7.1590 C.3      12 GLL5        0.0000 
     29 CA        -24.9220   17.9370   -6.4170 C.3       8 GLP5        0.0000 
     30 CA        -21.2715   13.7805   -5.3870 C.3       4 GLC5        0.0000 
     31 CA        -21.9240   12.8620   -7.1600 C.3       4 GLC5        0.0000 
     32 CA        -21.5560   11.3000   -7.1610 C.3       8 GLP5        0.0000 
     33 CA        -24.2415   14.4555   -8.1780 C.3       4 GLC5        0.0000 
     34 OD1        -9.2535   14.4515   -6.0980 O.co2     3 ASC3        0.0000 
     35 OD1       -10.5240   13.6770   -4.9760 O.co2    11 ASL3        0.0000 
     36 OD1        -7.9830   15.2260   -7.2200 O.co2     7 ASP3        0.0000 
     37 OD1       -10.7725   12.3525   -5.1345 O.co2     3 ASC3        0.0000 
     38 OD1       -11.0210   11.0280   -5.2930 O.co2     7 ASP3        0.0000 
     39 O         -10.7725   12.3525   -5.1345 O.2       1 ALC1        0.0000 
     40 O         -10.5240   13.6770   -4.9760 O.2       9 ALL1        0.0000 
     41 O         -11.0210   11.0280   -5.2930 O.2       5 ALP1        0.0000 
     42 O          -9.2050   13.9060   -4.9880 O.2       1 ALC1        0.0000 
     43 O          -7.8860   14.1350   -5.0000 O.2       5 ALP1        0.0000 
     44 CA        -14.0420   13.5030   -4.2030 C.3       4 GLC5        0.0000 
     45 CA        -12.7180   14.5020   -5.6000 C.3      12 GLL5        0.0000 
     46 CA        -15.3660   12.5040   -2.8060 C.3       8 GLP5        0.0000 
     47 CA        -11.3570   18.1015   -5.4825 C.3       4 GLC5        0.0000 
     48 CA        -10.9440   16.0790   -4.7150 C.3      12 GLL5        0.0000 
     49 CA        -11.7700   20.1240   -6.2500 C.3       8 GLP5        0.0000 
     50 CA         -9.9755   16.4860   -6.6060 C.3       4 GLC5        0.0000 
     51 CA         -9.0070   16.8930   -8.4970 C.3       8 GLP5        0.0000 
     52 CA         -6.9460   16.2170   -4.0065 C.3       4 GLC5        0.0000 
     53 CA         -8.9350   16.7430   -3.4530 C.3      12 GLL5        0.0000 
     54 CA         -4.9570   15.6910   -4.5600 C.3       8 GLP5        0.0000 
     55 CA         -6.4755   16.3405   -2.6545 C.3       4 GLC5        0.0000 
     56 CA         -8.3310   17.0590   -2.2300 C.3      12 GLL5        0.0000 
     57 CA         -4.6200   15.6220   -3.0790 C.3       8 GLP5        0.0000 
     58 CA         -7.9050   17.4895    0.7510 C.3       4 GLC5        0.0000 
     59 CA         -9.0950   17.1040   -1.0700 C.3      12 GLL5        0.0000 
     60 CA         -6.7150   17.8750    2.5720 C.3       8 GLP5        0.0000 
     61 N          -9.3595   17.3815    1.5815 N.am      2 SEC2        0.0000 
     62 N          -8.5840   17.4200    0.1420 N.am     10 SEL2        0.0000 
     63 N         -10.1350   17.3430    3.0210 N.am      6 SEP2        0.0000 
     64 O          -7.2845   17.6740    0.1875 O.2       1 ALC1        0.0000 
     65 O          -8.5840   17.4200    0.1420 O.2       9 ALL1        0.0000 
     66 O          -5.9850   17.9280    0.2330 O.2       5 ALP1        0.0000 
     67 CA        -16.2405   17.6152   -8.6170 C.3       4 GLC5        0.0000 
     68 CA        -16.5800   18.4840  -10.1940 C.3       8 GLP5        0.0000 
     69 CA        -16.1007   13.7510   -4.3872 C.3       4 GLC5        0.0000 
     70 CA        -16.4330   15.5200   -5.5730 C.3      12 GLL5        0.0000 
     71 CA        -21.1335   15.5031  -10.3231 C.3       4 GLC5        0.0000 
     72 CA        -20.7410   14.2380   -9.3130 C.3      12 GLL5        0.0000 
     73 CA        -21.3930   16.6420  -11.9120 C.3       8 GLP5        0.0000 
     74 CA        -21.2150   12.8321   -7.9476 C.3       4 GLC5        0.0000 
     75 CA        -11.0757   17.9387   -3.1695 C.3       4 GLC5        0.0000 
     76 CA        -12.3710   19.3810   -2.5570 C.3       8 GLP5        0.0000 
     77 CA         -8.6520   18.7595   -2.1288 C.3       4 GLC5        0.0000 
     78 CA         -8.6710   20.6180   -1.4160 C.3       8 GLP5        0.0000 
     79 CA         -9.2233   18.7867   -1.2570 C.3       4 GLC5        0.0000 
     80 CA        -11.1478   18.1234   -1.9789 C.3       4 GLC5        0.0000 
     81 CA         -9.5788   15.0869   -0.6249 C.3       4 GLC5        0.0000 
     82 CA        -11.0520   16.4480   -2.3370 C.3      12 GLL5        0.0000 
     83 CA         -9.2330   13.3080    0.1510 C.3       8 GLP5        0.0000 
@<TRIPOS>BOND
@<TRIPOS>SUBSTRUCTURE
     1 ALC1       18 GROUP        1 X    ALC  0     ROOT ALC X 1
     2 SEC2        1 GROUP        1 X    SEC  0     **** SEC X 2
     3 ASC3       34 GROUP        1 X    ASC  0     **** ASC X 3
     4 GLC5        4 GROUP        1 X    GLC  0     **** GLC X 6
     5 ALP1       20 GROUP        1 Y    ALP  0     ROOT ALP Y 8
     6 SEP2        3 GROUP        1 Y    SEP  0     **** SEP Y 9
     7 ASP3       36 GROUP        1 Y    ASP  0     **** ASP Y 10
     8 GLP5        6 GROUP        1 Y    GLP  0     **** GLP Y 13
     9 ALL1       19 GROUP        1 Z    ALL  0     ROOT ALL Z 15
    10 SEL2        2 GROUP        1 Z    SEL  0     **** SEL Z 16
    11 ASL3       35 GROUP        1 Z    ASL  0     **** ASL Z 17
    12 GLL5        5 GROUP        1 Z    GLL  0     **** GLL Z 20
@<TRIPOS>SET

