#    Name: 3ts1_TYA_1_ligand
#    Modification time : Mon Mar 24 20:52:00 2014

@<TRIPOS>MOLECULE
3ts1_TYA_1_ligand
   59    62     1     0     0
SMALL
NO_CHARGES


@<TRIPOS>ATOM
      1 OPP       -12.3270   14.4590   -6.9880 O.3       1 TYA420      0.0000 
      2 P         -13.2550   15.2530   -7.9460 P.3       1 TYA420      0.0000 
      3 O1P       -12.6530   16.1560   -8.9500 O.co2     1 TYA420      0.0000 
      4 O2P       -13.9680   14.4650   -8.9550 O.co2     1 TYA420      0.0000 
      5 O5'       -14.2600   16.0430   -7.0370 O.3       1 TYA420      0.0000 
      6 C5'       -15.3610   16.7390   -7.5980 C.3       1 TYA420      0.0000 
      7 C4'       -16.4410   16.7540   -6.4820 C.3       1 TYA420      0.0000 
      8 O4'       -17.6790   16.6710   -7.2500 O.3       1 TYA420      0.0000 
      9 C3'       -16.4330   15.5200   -5.5730 C.3       1 TYA420      0.0000 
     10 O3'       -17.0530   15.7000   -4.3270 O.3       1 TYA420      0.0000 
     11 C2'       -17.2380   14.4760   -6.3640 C.3       1 TYA420      0.0000 
     12 O2'       -17.9190   13.5880   -5.4460 O.3       1 TYA420      0.0000 
     13 C1'       -18.1670   15.3790   -7.1030 C.3       1 TYA420      0.0000 
     14 N9        -18.9610   14.9300   -8.2110 N.pl3     1 TYA420      0.0000 
     15 C8        -18.6640   14.7060   -9.5090 C.2       1 TYA420      0.0000 
     16 N7        -19.7090   14.3040  -10.2390 N.2       1 TYA420      0.0000 
     17 C5        -20.7410   14.2380   -9.3130 C.ar      1 TYA420      0.0000 
     18 C6        -22.1130   13.9090   -9.4540 C.ar      1 TYA420      0.0000 
     19 N6        -22.6990   13.5030  -10.5820 N.pl3     1 TYA420      0.0000 
     20 N1        -22.8630   13.9860   -8.3190 N.ar      1 TYA420      0.0000 
     21 C2        -22.2920   14.4240   -7.1590 C.ar      1 TYA420      0.0000 
     22 N3        -21.0690   14.7640   -6.9540 N.ar      1 TYA420      0.0000 
     23 C4        -20.3210   14.6550   -8.0850 C.ar      1 TYA420      0.0000 
     24 NH2       -10.5240   13.6770   -4.9760 N.4       1 TYA420      0.0000 
     25 CA        -11.5620   14.6850   -4.6540 C.3       1 TYA420      0.0000 
     26 C         -12.7180   14.5020   -5.6000 C.3       1 TYA420      0.0000 
     27 CB        -10.9440   16.0790   -4.7150 C.3       1 TYA420      0.0000 
     28 CG        -10.3080   16.4210   -3.5070 C.ar      1 TYA420      0.0000 
     29 CD1       -11.0520   16.4480   -2.3370 C.ar      1 TYA420      0.0000 
     30 CD2        -8.9350   16.7430   -3.4530 C.ar      1 TYA420      0.0000 
     31 CE1       -10.4560   16.8070   -1.1260 C.ar      1 TYA420      0.0000 
     32 CE2        -8.3310   17.0590   -2.2300 C.ar      1 TYA420      0.0000 
     33 CZ         -9.0950   17.1040   -1.0700 C.ar      1 TYA420      0.0000 
     34 OH         -8.5840   17.4200    0.1420 O.3       1 TYA420      0.0000 
     35 H         -15.7854   16.2346   -8.4491 H         1 TYA420      0.0000 
     36 H         -15.1312   17.7633   -7.8365 H         1 TYA420      0.0000 
     37 H         -16.3944   17.6359   -5.9454 H         1 TYA420      0.0000 
     38 H         -15.4312   15.1515   -5.5141 H         1 TYA420      0.0000 
     39 H         -16.5860   14.0057   -7.0291 H         1 TYA420      0.0000 
     40 H         -19.0367   15.5605   -6.2311 H         1 TYA420      0.0000 
     41 H         -17.7427   14.8316   -9.8836 H         1 TYA420      0.0000 
     42 H         -23.6809   13.3216  -10.5271 H         1 TYA420      0.0000 
     43 H         -22.1036   13.4167  -11.3808 H         1 TYA420      0.0000 
     44 H         -22.9934   14.4838   -6.3056 H         1 TYA420      0.0000 
     45 H         -11.9084   14.5083   -3.6379 H         1 TYA420      0.0000 
     46 H         -13.2534   13.5688   -5.3154 H         1 TYA420      0.0000 
     47 H         -13.4433   15.3273   -5.4234 H         1 TYA420      0.0000 
     48 H         -11.7559   16.7871   -4.9711 H         1 TYA420      0.0000 
     49 H         -10.2415   16.0895   -5.5710 H         1 TYA420      0.0000 
     50 H         -12.0534   16.2018   -2.3567 H         1 TYA420      0.0000 
     51 H          -8.3814   16.7442   -4.3161 H         1 TYA420      0.0000 
     52 H         -11.0262   16.8523   -0.2700 H         1 TYA420      0.0000 
     53 H          -7.3243   17.2565   -2.1951 H         1 TYA420      0.0000 
     54 H          -9.7298   13.7564   -4.3736 H         1 TYA420      0.0000 
     55 H         -10.8709   12.7438   -4.8824 H         1 TYA420      0.0000 
     56 H         -10.1912   13.7733   -5.9140 H         1 TYA420      0.0000 
     57 H         -17.7997   15.0350   -4.3112 H         1 TYA420      0.0000 
     58 H         -17.4916   12.6947   -5.5852 H         1 TYA420      0.0000 
     59 H          -7.6153   17.6031   -0.0255 H         1 TYA420      0.0000 
@<TRIPOS>BOND
     1    2    1 1    
     2   26    1 1    
     3    3    2 ar   
     4    4    2 ar   
     5    5    2 1    
     6    6    5 1    
     7    7    6 1    
     8   35    6 1    
     9   36    6 1    
    10    8    7 1    
    11    9    7 1    
    12   37    7 1    
    13   13    8 1    
    14   10    9 1    
    15   11    9 1    
    16   38    9 1    
    17   57   10 1    
    18   12   11 1    
    19   13   11 1    
    20   39   11 1    
    21   58   12 1    
    22   14   13 1    
    23   40   13 1    
    24   15   14 1    
    25   23   14 1    
    26   16   15 2    
    27   41   15 1    
    28   17   16 1    
    29   18   17 ar   
    30   23   17 ar   
    31   19   18 1    
    32   20   18 ar   
    33   42   19 1    
    34   43   19 1    
    35   21   20 ar   
    36   22   21 ar   
    37   44   21 1    
    38   23   22 ar   
    39   25   24 1    
    40   54   24 1    
    41   55   24 1    
    42   56   24 1    
    43   26   25 1    
    44   27   25 1    
    45   45   25 1    
    46   46   26 1    
    47   47   26 1    
    48   28   27 1    
    49   48   27 1    
    50   49   27 1    
    51   29   28 ar   
    52   30   28 ar   
    53   31   29 ar   
    54   50   29 1    
    55   32   30 ar   
    56   51   30 1    
    57   33   31 ar   
    58   52   31 1    
    59   33   32 ar   
    60   53   32 1    
    61   34   33 1    
    62   59   34 1    
@<TRIPOS>SUBSTRUCTURE
     1 TYA420      1 GROUP   
@<TRIPOS>SET

