#    Name: 4lne_0OU_3_INTS_M
#    Modification time : Tue Mar 25 11:18:15 2014

@<TRIPOS>MOLECULE
4lne_0OU_3_INTS_M
   73     0     6     0     0
SMALL
NO_CHARGES


@<TRIPOS>ATOM
      1 CA         -5.5885   17.7685   69.4540 C.3       2 GLC5        0.0000 
      2 CA         -3.7940   17.6710   70.5430 C.3       6 GLL5        0.0000 
      3 CA         -7.3830   17.8660   68.3650 C.3       4 GLP5        0.0000 
      4 CA         -4.1830   19.5065   70.6320 C.3       2 GLC5        0.0000 
      5 CA         -4.5720   21.3420   70.7210 C.3       4 GLP5        0.0000 
      6 CA         -5.5285   16.2845   70.7850 C.3       2 GLC5        0.0000 
      7 CA         -7.2630   14.8980   71.0270 C.3       4 GLP5        0.0000 
      8 CA         -4.0625   17.2705   72.6240 C.3       2 GLC5        0.0000 
      9 CA         -4.3310   16.8700   74.7050 C.3       4 GLP5        0.0000 
     10 CA         -2.2000   18.4520   71.1440 C.3       2 GLC5        0.0000 
     11 CA         -0.6060   19.2330   71.7450 C.3       4 GLP5        0.0000 
     12 CA         -3.3455   15.5145   72.7455 C.3       2 GLC5        0.0000 
     13 CA         -3.5900   15.0240   70.9490 C.3       6 GLL5        0.0000 
     14 CA         -3.1010   16.0050   74.5420 C.3       4 GLP5        0.0000 
     15 CA         -2.3360   10.8990   71.2940 C.3       2 GLC5        0.0000 
     16 CA         -3.3630   12.4130   71.7250 C.3       6 GLL5        0.0000 
     17 CA         -1.3090    9.3850   70.8630 C.3       4 GLP5        0.0000 
     18 CA         -2.8700   11.6710   73.4135 C.3       2 GLC5        0.0000 
     19 CA         -2.3770   10.9290   75.1020 C.3       4 GLP5        0.0000 
     20 CA         -4.9165   11.9735   69.6580 C.3       2 GLC5        0.0000 
     21 CA         -3.6180   13.4140   69.1600 C.3       6 GLL5        0.0000 
     22 CA         -6.2150   10.5330   70.1560 C.3       4 GLP5        0.0000 
     23 CA         -1.4055   13.5915   69.1575 C.3       2 GLC5        0.0000 
     24 CA          0.8070   13.7690   69.1550 C.3       4 GLP5        0.0000 
     25 CA         -5.1875   13.3745   63.6890 C.3       2 GLC5        0.0000 
     26 CA         -4.1580   14.9220   64.5800 C.3       6 GLL5        0.0000 
     27 CA         -6.2170   11.8270   62.7980 C.3       4 GLP5        0.0000 
     28 CA         -6.2935   14.3110   63.1430 C.3       2 GLC5        0.0000 
     29 CA         -5.3090   15.8680   64.0280 C.3       6 GLL5        0.0000 
     30 CA         -7.2780   12.7540   62.2580 C.3       4 GLP5        0.0000 
     31 CA         -7.4045   14.6025   64.0300 C.3       2 GLC5        0.0000 
     32 CA         -6.3730   16.1900   65.0820 C.3       6 GLL5        0.0000 
     33 CA         -8.4360   13.0150   62.9780 C.3       4 GLP5        0.0000 
     34 CA         -6.8780   17.0280   66.7235 C.3       2 GLC5        0.0000 
     35 CA         -8.0940   17.3425   66.6760 C.3       2 GLC5        0.0000 
     36 CA         -8.8050   16.8190   64.9870 C.3       6 GLL5        0.0000 
     37 CA         -8.6315   18.5790   66.3100 C.3       2 GLC5        0.0000 
     38 CA         -9.1410   17.9650   64.2940 C.3       6 GLL5        0.0000 
     39 CA         -8.1220   19.1930   68.3260 C.3       4 GLP5        0.0000 
     40 CA        -12.1095   17.4730   65.1780 C.3       2 GLC5        0.0000 
     41 CA        -10.5830   17.2880   66.5480 C.3       6 GLL5        0.0000 
     42 CA        -13.6360   17.6580   63.8080 C.3       4 GLP5        0.0000 
     43 O          -9.7495   15.0630   66.7605 O.2       1 ALC1        0.0000 
     44 O          -9.4940   16.4680   66.0930 O.2       5 ALL1        0.0000 
     45 O         -10.0050   13.6580   67.4280 O.2       3 ALP1        0.0000 
     46 O          -8.7210   15.2775   66.4410 O.2       1 ALC1        0.0000 
     47 O          -7.9480   14.0870   66.7890 O.2       3 ALP1        0.0000 
     48 CA         -5.5760   16.8795   68.8440 C.3       2 GLC5        0.0000 
     49 CA         -3.8110   15.7440   68.6340 C.3       6 GLL5        0.0000 
     50 CA         -5.5160   15.3955   70.1750 C.3       2 GLC5        0.0000 
     51 CA         -2.0697   11.9745   69.9262 C.3       2 GLC5        0.0000 
     52 CA         -3.5350   13.7160   70.5470 C.3       6 GLL5        0.0000 
     53 CA         -0.5630   10.3840   69.9990 C.3       4 GLP5        0.0000 
     54 CA         -4.8320   11.7987   70.6460 C.3       2 GLC5        0.0000 
     55 CA         -5.4266   14.3950   70.4905 C.3       2 GLC5        0.0000 
     56 CA         -9.1855   15.6355   63.5652 C.3       2 GLC5        0.0000 
     57 CA         -9.3980   13.8790   62.4900 C.3       4 GLP5        0.0000 
     58 CA         -9.4362   18.5200   67.2705 C.3       2 GLC5        0.0000 
     59 CA        -10.9180   18.4060   65.8820 C.3       6 GLL5        0.0000 
     60 CA        -10.7982   19.1747   68.1912 C.3       2 GLC5        0.0000 
     61 CA        -12.7670   18.9050   67.4940 C.3       6 GLL5        0.0000 
     62 CA         -9.1870   19.2640   69.4550 C.3       4 GLP5        0.0000 
     63 CA        -12.8810   18.2643   65.3079 C.3       2 GLC5        0.0000 
     64 CA        -12.1734   20.1584   68.6374 C.3       2 GLC5        0.0000 
     65 CA        -12.0520   19.2660   66.3610 C.3       6 GLL5        0.0000 
     66 CA        -11.9280   21.9030   69.7110 C.3       4 GLP5        0.0000 
     67 CA        -10.5315   18.2942   68.7113 C.3       2 GLC5        0.0000 
     68 CA        -12.4280   17.7420   68.2000 C.3       6 GLL5        0.0000 
     69 CA        -11.8800   16.9712   69.8978 C.3       2 GLC5        0.0000 
     70 CA        -11.3240   16.9070   67.7350 C.3       6 GLL5        0.0000 
     71 CA        -11.8840   16.6180   71.8280 C.3       4 GLP5        0.0000 
     72 CA        -13.2394   16.3536   67.4480 C.3       2 GLC5        0.0000 
     73 CA        -14.5180   15.0920   67.1050 C.3       4 GLP5        0.0000 
@<TRIPOS>BOND
@<TRIPOS>SUBSTRUCTURE
     1 ALC1       43 GROUP        1 X    ALC  0     ROOT ALC X 1
     2 GLC5        1 GROUP        1 X    GLC  0     **** GLC X 6
     3 ALP1       45 GROUP        1 Y    ALP  0     ROOT ALP Y 8
     4 GLP5        3 GROUP        1 Y    GLP  0     **** GLP Y 13
     5 ALL1       44 GROUP        1 Z    ALL  0     ROOT ALL Z 15
     6 GLL5        2 GROUP        1 Z    GLL  0     **** GLL Z 20
@<TRIPOS>SET

