#    Name: 4lne_0OU_3_ligand
#    Modification time : Tue Mar 25 11:18:15 2014

@<TRIPOS>MOLECULE
4lne_0OU_3_ligand
   43    45     1     0     0
SMALL
NO_CHARGES


@<TRIPOS>ATOM
      1 CAI        -3.8110   15.7440   68.6340 C.ar      1 0OU601      0.0000 
      2 CAS        -3.7270   16.0420   70.0120 C.ar      1 0OU601      0.0000 
      3 CL1        -3.7940   17.6710   70.5430 Cl        1 0OU601      0.0000 
      4 CAH        -3.5900   15.0240   70.9490 C.ar      1 0OU601      0.0000 
      5 CAT        -3.5350   13.7160   70.5470 C.ar      1 0OU601      0.0000 
      6 CL2        -3.3630   12.4130   71.7250 Cl        1 0OU601      0.0000 
      7 CAJ        -3.6180   13.4140   69.1600 C.ar      1 0OU601      0.0000 
      8 CAU        -3.7550   14.4270   68.2290 C.ar      1 0OU601      0.0000 
      9 CAO        -3.8430   14.0780   66.7570 C.3       1 0OU601      0.0000 
     10 NAP        -3.7860   15.2750   65.9370 N.4       1 0OU601      0.0000 
     11 CAM        -4.1580   14.9220   64.5800 C.3       1 0OU601      0.0000 
     12 CAL        -5.3090   15.8680   64.0280 C.3       1 0OU601      0.0000 
     13 CAN        -6.3730   16.1900   65.0820 C.3       1 0OU601      0.0000 
     14 NAQ        -7.7170   16.0030   64.5300 N.pl3     1 0OU601      0.0000 
     15 CAV        -8.8050   16.8190   64.9870 C.2       1 0OU601      0.0000 
     16 CAK        -9.1410   17.9650   64.2940 C.2       1 0OU601      0.0000 
     17 CAW       -10.1950   18.7730   64.7240 C.2       1 0OU601      0.0000 
     18 OAA       -10.5220   19.9020   64.0370 O.2       1 0OU601      0.0000 
     19 CAY       -10.9180   18.4060   65.8820 C.ar      1 0OU601      0.0000 
     20 CAG       -12.0520   19.2660   66.3610 C.ar      1 0OU601      0.0000 
     21 CAE       -12.7670   18.9050   67.4940 C.ar      1 0OU601      0.0000 
     22 CAD       -12.4280   17.7420   68.2000 C.ar      1 0OU601      0.0000 
     23 CAF       -11.3240   16.9070   67.7350 C.ar      1 0OU601      0.0000 
     24 CAX       -10.5830   17.2880   66.5480 C.ar      1 0OU601      0.0000 
     25 NAR        -9.4940   16.4680   66.0930 N.pl3     1 0OU601      0.0000 
     26 H          -3.9115   16.5030   67.9599 H         1 0OU601      0.0000 
     27 H          -3.5301   15.2654   71.9530 H         1 0OU601      0.0000 
     28 H          -3.5742   12.4304   68.8649 H         1 0OU601      0.0000 
     29 H          -4.7811   13.5312   66.5869 H         1 0OU601      0.0000 
     30 H          -3.0157   13.3967   66.5132 H         1 0OU601      0.0000 
     31 H          -4.5383   13.8977   64.5122 H         1 0OU601      0.0000 
     32 H          -3.3169   15.0183   63.8859 H         1 0OU601      0.0000 
     33 H          -5.7698   15.3664   63.1758 H         1 0OU601      0.0000 
     34 H          -4.8412   16.7895   63.6784 H         1 0OU601      0.0000 
     35 H          -6.2267   17.2239   65.4101 H         1 0OU601      0.0000 
     36 H          -6.2104   15.5339   65.9428 H         1 0OU601      0.0000 
     37 H          -7.8646   15.2939   63.8260 H         1 0OU601      0.0000 
     38 H          -8.6112   18.2329   63.4481 H         1 0OU601      0.0000 
     39 H         -12.2554   20.0984   65.8230 H         1 0OU601      0.0000 
     40 H         -13.5482   19.4872   67.8218 H         1 0OU601      0.0000 
     41 H         -12.9316   17.4597   69.0330 H         1 0OU601      0.0000 
     42 H         -11.0818   16.0717   68.2390 H         1 0OU601      0.0000 
     43 H          -9.2714   15.6247   66.6354 H         1 0OU601      0.0000 
@<TRIPOS>BOND
     1    2    1 ar   
     2    8    1 ar   
     3   26    1 1    
     4    3    2 1    
     5    4    2 ar   
     6    5    4 ar   
     7   27    4 1    
     8    6    5 1    
     9    7    5 ar   
    10    8    7 ar   
    11   28    7 1    
    12    9    8 1    
    13   10    9 1    
    14   29    9 1    
    15   30    9 1    
    16   11   10 1    
    17   12   11 1    
    18   31   11 1    
    19   32   11 1    
    20   13   12 1    
    21   33   12 1    
    22   34   12 1    
    23   14   13 1    
    24   35   13 1    
    25   36   13 1    
    26   15   14 1    
    27   37   14 1    
    28   16   15 2    
    29   25   15 1    
    30   17   16 1    
    31   38   16 1    
    32   18   17 2    
    33   19   17 1    
    34   20   19 ar   
    35   24   19 ar   
    36   21   20 ar   
    37   39   20 1    
    38   22   21 ar   
    39   40   21 1    
    40   23   22 ar   
    41   41   22 1    
    42   24   23 ar   
    43   42   23 1    
    44   25   24 1    
    45   43   25 1    
@<TRIPOS>SUBSTRUCTURE
     1 0OU601      1 GROUP   
@<TRIPOS>SET

