#    Name: 3wg6_NDP_4_INTS_M
#    Modification time : Tue Mar 25 02:33:48 2014

@<TRIPOS>MOLECULE
3wg6_NDP_4_INTS_M
  100     0    12     0     0
SMALL
NO_CHARGES


@<TRIPOS>ATOM
      1 N          17.7330   56.2730  -36.3820 N.am      2 SEC2        0.0000 
      2 N          18.9640   55.7530  -36.7470 N.am     10 SEL2        0.0000 
      3 N          16.5020   56.7930  -36.0170 N.am      6 SEP2        0.0000 
      4 N          20.6160   58.8580  -37.8210 N.am      2 SEC2        0.0000 
      5 N          20.0730   57.8010  -37.3050 N.am     10 SEL2        0.0000 
      6 N          21.1590   59.9150  -38.3370 N.am      6 SEP2        0.0000 
      7 CA         23.4180   56.3860  -39.6850 C.3       4 GLC5        0.0000 
      8 CA         21.3730   56.1980  -39.7460 C.3      12 GLL5        0.0000 
      9 CA         25.4630   56.5740  -39.6240 C.3       8 GLP5        0.0000 
     10 CA         18.9080   55.1195  -41.1250 C.3       4 GLC5        0.0000 
     11 CA         20.9230   55.7060  -41.1130 C.3      12 GLL5        0.0000 
     12 CA         16.8930   54.5330  -41.1370 C.3       8 GLP5        0.0000 
     13 CA         23.7440   55.5105  -42.6625 C.3       4 GLC5        0.0000 
     14 CA         21.9390   56.0400  -42.1860 C.3      12 GLL5        0.0000 
     15 CA         25.5490   54.9810  -43.1390 C.3       8 GLP5        0.0000 
     16 CA         23.7010   56.3070  -40.9050 C.3       4 GLC5        0.0000 
     17 CA         18.3085   55.5275  -42.0415 C.3       4 GLC5        0.0000 
     18 CA         19.7240   56.5220  -42.9460 C.3      12 GLL5        0.0000 
     19 CA         17.2650   59.1155  -41.5995 C.3       4 GLC5        0.0000 
     20 CA         16.9430   58.7190  -43.5740 C.3      12 GLL5        0.0000 
     21 CA         17.5870   59.5120  -39.6250 C.3       8 GLP5        0.0000 
     22 CA         17.9590   60.4410  -44.3765 C.3       4 GLC5        0.0000 
     23 CA         18.9750   62.1630  -45.1790 C.3       8 GLP5        0.0000 
     24 CA         14.4545   56.8085  -42.9760 C.3       4 GLC5        0.0000 
     25 CA         15.6350   56.5990  -44.7980 C.3      12 GLL5        0.0000 
     26 CA         13.2740   57.0180  -41.1540 C.3       8 GLP5        0.0000 
     27 CA         16.2640   55.5660  -42.9675 C.3       4 GLC5        0.0000 
     28 CA         17.2205   56.0035  -42.4160 C.3       4 GLC5        0.0000 
     29 CA         17.5480   57.4740  -43.6950 C.3      12 GLL5        0.0000 
     30 N          24.6330   54.1710  -37.8025 N.am      2 SEC2        0.0000 
     31 N          23.4470   54.7030  -37.7230 N.am     10 SEL2        0.0000 
     32 N          25.8190   53.6390  -37.8820 N.am      6 SEP2        0.0000 
     33 CA         23.4820   55.6900  -33.3250 C.3       4 GLC5        0.0000 
     34 CA         24.1150   56.2530  -35.4080 C.3      12 GLL5        0.0000 
     35 CA         22.8490   55.1270  -31.2420 C.3       8 GLP5        0.0000 
     36 CA         23.4100   57.9805  -35.9325 C.3       4 GLC5        0.0000 
     37 CA         22.7050   59.7080  -36.4570 C.3       8 GLP5        0.0000 
     38 CA         24.7890   56.4135  -37.5160 C.3       4 GLC5        0.0000 
     39 CA         25.8020   53.5775  -35.7545 C.3       4 GLC5        0.0000 
     40 CA         26.4630   55.2590  -35.1260 C.3      12 GLL5        0.0000 
     41 CA         25.1410   51.8960  -36.3830 C.3       8 GLP5        0.0000 
     42 N          28.7130   55.1135  -36.3315 N.am      2 SEC2        0.0000 
     43 N          27.2320   55.5120  -36.2840 N.am     10 SEL2        0.0000 
     44 N          30.1940   54.7150  -36.3790 N.am      6 SEP2        0.0000 
     45 O          26.5255   54.5755  -37.0830 O.2       1 ALC1        0.0000 
     46 O          27.2320   55.5120  -36.2840 O.2       9 ALL1        0.0000 
     47 O          25.8190   53.6390  -37.8820 O.2       5 ALP1        0.0000 
     48 CA         28.9915   54.0910  -33.3595 C.3       4 GLC5        0.0000 
     49 CA         27.3440   55.1510  -33.8800 C.3      12 GLL5        0.0000 
     50 CA         30.6390   53.0310  -32.8390 C.3       8 GLP5        0.0000 
     51 N          29.2305   56.7580  -35.1385 N.am      2 SEC2        0.0000 
     52 N          28.2010   56.2690  -33.8640 N.am     10 SEL2        0.0000 
     53 N          30.2600   57.2470  -36.4130 N.am      6 SEP2        0.0000 
     54 O          28.5305   56.6755  -32.6035 O.2       1 ALC1        0.0000 
     55 O          28.2010   56.2690  -33.8640 O.2       9 ALL1        0.0000 
     56 O          28.8600   57.0820  -31.3430 O.2       5 ALP1        0.0000 
     57 CA         24.5810   55.2215  -32.0040 C.3       4 GLC5        0.0000 
     58 CA         26.3130   55.3160  -32.7660 C.3      12 GLL5        0.0000 
     59 CA         25.9160   57.2700  -32.8165 C.3       4 GLC5        0.0000 
     60 CA         25.5190   59.2240  -32.8670 C.3       8 GLP5        0.0000 
     61 CA         28.0500   54.0010  -29.9100 C.3       4 GLC5        0.0000 
     62 CA         26.2290   53.5290  -31.1330 C.3      12 GLL5        0.0000 
     63 CA         29.8710   54.4730  -28.6870 C.3       8 GLP5        0.0000 
     64 N          25.9875   50.1075  -27.5845 N.am      2 SEC2        0.0000 
     65 N          26.2950   50.5620  -28.9720 N.am     10 SEL2        0.0000 
     66 N          25.6800   49.6530  -26.1970 N.am      6 SEP2        0.0000 
     67 O          26.6105   52.8535  -26.9320 O.2       1 ALC1        0.0000 
     68 O          26.6810   52.8270  -28.3830 O.2       9 ALL1        0.0000 
     69 O          26.5400   52.8800  -25.4810 O.2       5 ALP1        0.0000 
     70 O          26.6720   54.2325  -28.5635 O.2       1 ALC1        0.0000 
     71 O          26.6630   55.6380  -28.7440 O.2       5 ALP1        0.0000 
     72 NZ         21.6530   57.2330  -48.6625 N.4       3 LYC4        0.0000 
     73 NZ         21.7840   56.6160  -46.9930 N.4      11 LYL4        0.0000 
     74 NZ         21.5220   57.8500  -50.3320 N.4       7 LYP4        0.0000 
     75 NZ         20.0420   59.2790  -45.8485 N.4       3 LYC4        0.0000 
     76 NZ         21.6890   58.5350  -45.4030 N.4      11 LYL4        0.0000 
     77 NZ         18.3950   60.0230  -46.2940 N.4       7 LYP4        0.0000 
     78 N          22.5930   59.4290  -45.1760 N.am      2 SEC2        0.0000 
     79 N          21.6890   58.5350  -45.4030 N.am     10 SEL2        0.0000 
     80 N          23.4970   60.3230  -44.9490 N.am      6 SEP2        0.0000 
     81 NZ         24.6795   56.1545  -45.5115 N.4       3 LYC4        0.0000 
     82 NZ         23.6800   57.1260  -45.4130 N.4      11 LYL4        0.0000 
     83 NZ         25.6790   55.1830  -45.6100 N.4       7 LYP4        0.0000 
     84 N          24.6795   56.1545  -45.5115 N.am      2 SEC2        0.0000 
     85 N          23.6800   57.1260  -45.4130 N.am     10 SEL2        0.0000 
     86 N          25.6790   55.1830  -45.6100 N.am      6 SEP2        0.0000 
     87 N          23.5885   58.7245  -45.1810 N.am      2 SEC2        0.0000 
     88 N          24.7330   58.1055  -45.4365 N.am      2 SEC2        0.0000 
     89 N          25.7860   59.0850  -45.4600 N.am      6 SEP2        0.0000 
     90 CA         14.7888   58.6603  -42.6953 C.3       4 GLC5        0.0000 
     91 CA         13.2600   58.5050  -41.5640 C.3       8 GLP5        0.0000 
     92 CA         25.1535   57.7600  -33.9655 C.3       4 GLC5        0.0000 
     93 CA         28.3858   54.2680  -35.3980 C.3       4 GLC5        0.0000 
     94 CA         29.8680   53.3310  -36.2930 C.3       8 GLP5        0.0000 
     95 CA         27.5650   57.0710  -35.0862 C.3       4 GLC5        0.0000 
     96 CA         28.4770   58.6670  -35.7710 C.3       8 GLP5        0.0000 
     97 CA         24.4730   54.0095  -31.0780 C.3       4 GLC5        0.0000 
     98 CA         25.1167   52.1928  -34.7070 C.3       4 GLC5        0.0000 
     99 CA         25.2370   53.1420  -33.1940 C.3      12 GLL5        0.0000 
    100 CA         23.9707   53.8083  -32.1365 C.3       4 GLC5        0.0000 
@<TRIPOS>BOND
@<TRIPOS>SUBSTRUCTURE
     1 ALC1       45 GROUP        1 X    ALC  0     ROOT ALC X 1
     2 SEC2        1 GROUP        1 X    SEC  0     **** SEC X 2
     3 LYC4       72 GROUP        1 X    LYC  0     **** LYC X 4
     4 GLC5        7 GROUP        1 X    GLC  0     **** GLC X 6
     5 ALP1       47 GROUP        1 Y    ALP  0     ROOT ALP Y 8
     6 SEP2        3 GROUP        1 Y    SEP  0     **** SEP Y 9
     7 LYP4       74 GROUP        1 Y    LYP  0     **** LYP Y 11
     8 GLP5        9 GROUP        1 Y    GLP  0     **** GLP Y 13
     9 ALL1       46 GROUP        1 Z    ALL  0     ROOT ALL Z 15
    10 SEL2        2 GROUP        1 Z    SEL  0     **** SEL Z 16
    11 LYL4       73 GROUP        1 Z    LYL  0     **** LYL Z 18
    12 GLL5        8 GROUP        1 Z    GLL  0     **** GLL Z 20
@<TRIPOS>SET

