#    Name: 3wg6_NDP_4_ligand
#    Modification time : Tue Mar 25 02:33:48 2014

@<TRIPOS>MOLECULE
3wg6_NDP_4_ligand
   74    78     1     0     0
SMALL
NO_CHARGES


@<TRIPOS>ATOM
      1 PA         20.1660   56.3550  -37.3780 P.3       1 NDP3001     0.0000 
      2 O1A        18.9640   55.7530  -36.7470 O.co2     1 NDP3001     0.0000 
      3 O2A        20.0730   57.8010  -37.3050 O.co2     1 NDP3001     0.0000 
      4 O5B        20.2960   55.8640  -38.8730 O.3       1 NDP3001     0.0000 
      5 C5B        21.3730   56.1980  -39.7460 C.3       1 NDP3001     0.0000 
      6 C4B        20.9230   55.7060  -41.1130 C.3       1 NDP3001     0.0000 
      7 O4B        19.6950   56.3170  -41.5130 O.3       1 NDP3001     0.0000 
      8 C3B        21.9390   56.0400  -42.1860 C.3       1 NDP3001     0.0000 
      9 O3B        22.3960   54.7790  -42.6250 O.3       1 NDP3001     0.0000 
     10 C2B        21.1710   56.7600  -43.3050 C.3       1 NDP3001     0.0000 
     11 O2B        21.4500   56.1980  -44.5620 O.3       1 NDP3001     0.0000 
     12 C1B        19.7240   56.5220  -42.9460 C.3       1 NDP3001     0.0000 
     13 N9A        18.7870   57.6220  -43.1310 N.pl3     1 NDP3001     0.0000 
     14 C8A        18.9180   58.8900  -42.6740 C.2       1 NDP3001     0.0000 
     15 N7A        17.7800   59.5670  -42.9670 N.2       1 NDP3001     0.0000 
     16 C5A        16.9430   58.7190  -43.5740 C.ar      1 NDP3001     0.0000 
     17 C6A        15.6920   58.9120  -44.0790 C.ar      1 NDP3001     0.0000 
     18 N6A        15.1390   60.1300  -43.9390 N.pl3     1 NDP3001     0.0000 
     19 N1A        15.0520   57.8610  -44.6920 N.ar      1 NDP3001     0.0000 
     20 C2A        15.6350   56.5990  -44.7980 C.ar      1 NDP3001     0.0000 
     21 N3A        16.9090   56.3980  -44.2990 N.ar      1 NDP3001     0.0000 
     22 C4A        17.5480   57.4740  -43.6950 C.ar      1 NDP3001     0.0000 
     23 O3         21.4900   55.9570  -36.5140 O.3       1 NDP3001     0.0000 
     24 PN         22.4630   54.6660  -36.6090 P.3       1 NDP3001     0.0000 
     25 O1N        23.4470   54.7030  -37.7230 O.co2     1 NDP3001     0.0000 
     26 O2N        21.7820   53.3950  -36.2500 O.co2     1 NDP3001     0.0000 
     27 O5D        23.4540   54.9560  -35.4050 O.3       1 NDP3001     0.0000 
     28 C5D        24.1150   56.2530  -35.4080 C.3       1 NDP3001     0.0000 
     29 C4D        25.4610   56.3390  -34.7200 C.3       1 NDP3001     0.0000 
     30 O4D        25.2660   56.1030  -33.3210 O.3       1 NDP3001     0.0000 
     31 C3D        26.4630   55.2590  -35.1260 C.3       1 NDP3001     0.0000 
     32 O3D        27.2320   55.5120  -36.2840 O.3       1 NDP3001     0.0000 
     33 C2D        27.3440   55.1510  -33.8800 C.3       1 NDP3001     0.0000 
     34 O2D        28.2010   56.2690  -33.8640 O.3       1 NDP3001     0.0000 
     35 C1D        26.3130   55.3160  -32.7660 C.3       1 NDP3001     0.0000 
     36 N1N        25.8850   53.9680  -32.3520 N.pl3     1 NDP3001     0.0000 
     37 C2N        26.2290   53.5290  -31.1330 C.2       1 NDP3001     0.0000 
     38 C3N        25.9650   52.2550  -30.6950 C.2       1 NDP3001     0.0000 
     39 C7N        26.3560   51.8950  -29.2900 C.2       1 NDP3001     0.0000 
     40 O7N        26.2950   50.5620  -28.9720 O.2       1 NDP3001     0.0000 
     41 N7N        26.6810   52.8270  -28.3830 N.am      1 NDP3001     0.0000 
     42 C4N        25.3030   51.2240  -31.5400 C.3       1 NDP3001     0.0000 
     43 C5N        24.9480   51.8370  -32.8680 C.2       1 NDP3001     0.0000 
     44 C6N        25.2370   53.1420  -33.1940 C.2       1 NDP3001     0.0000 
     45 P2B        22.1910   57.1460  -45.6450 P.3       1 NDP3001     0.0000 
     46 O1X        21.7840   56.6160  -46.9930 O.co2     1 NDP3001     0.0000 
     47 O2X        21.6890   58.5350  -45.4030 O.co2     1 NDP3001     0.0000 
     48 O3X        23.6800   57.1260  -45.4130 O.co2     1 NDP3001     0.0000 
     49 H          22.2831   55.6862  -39.4845 H         1 NDP3001     0.0000 
     50 H          21.5352   57.2604  -39.8049 H         1 NDP3001     0.0000 
     51 H          20.8179   54.6294  -41.0812 H         1 NDP3001     0.0000 
     52 H          22.6736   56.6515  -41.7920 H         1 NDP3001     0.0000 
     53 H          21.3718   57.7946  -43.2299 H         1 NDP3001     0.0000 
     54 H          19.3679   55.6295  -43.4185 H         1 NDP3001     0.0000 
     55 H          19.6861   59.2500  -42.2193 H         1 NDP3001     0.0000 
     56 H          14.2255   60.2459  -44.3289 H         1 NDP3001     0.0000 
     57 H          15.6907   60.8110  -43.4575 H         1 NDP3001     0.0000 
     58 H          15.1211   55.8323  -45.2416 H         1 NDP3001     0.0000 
     59 H          23.4436   57.0268  -34.9424 H         1 NDP3001     0.0000 
     60 H          24.2487   56.6130  -36.4658 H         1 NDP3001     0.0000 
     61 H          25.9025   57.2951  -34.8732 H         1 NDP3001     0.0000 
     62 H          25.9100   54.3196  -35.1736 H         1 NDP3001     0.0000 
     63 H          27.7776   54.2338  -33.8333 H         1 NDP3001     0.0000 
     64 H          26.8057   55.8201  -31.9584 H         1 NDP3001     0.0000 
     65 H          26.7283   54.1854  -30.4666 H         1 NDP3001     0.0000 
     66 H          26.6934   53.7724  -28.7086 H         1 NDP3001     0.0000 
     67 H          26.8819   52.4934  -27.4619 H         1 NDP3001     0.0000 
     68 H          24.3977   50.8683  -31.0534 H         1 NDP3001     0.0000 
     69 H          25.9754   50.3841  -31.6987 H         1 NDP3001     0.0000 
     70 H          24.4651   51.2042  -33.5306 H         1 NDP3001     0.0000 
     71 H          24.9346   53.4955  -34.1403 H         1 NDP3001     0.0000 
     72 H          22.3671   54.8266  -43.6235 H         1 NDP3001     0.0000 
     73 H          26.8770   54.8805  -36.9734 H         1 NDP3001     0.0000 
     74 H          28.3584   56.4605  -32.8952 H         1 NDP3001     0.0000 
@<TRIPOS>BOND
     1    2    1 ar   
     2    3    1 ar   
     3    4    1 1    
     4   23    1 1    
     5    5    4 1    
     6    6    5 1    
     7   49    5 1    
     8   50    5 1    
     9    7    6 1    
    10    8    6 1    
    11   51    6 1    
    12   12    7 1    
    13    9    8 1    
    14   10    8 1    
    15   52    8 1    
    16   72    9 1    
    17   11   10 1    
    18   12   10 1    
    19   53   10 1    
    20   45   11 1    
    21   13   12 1    
    22   54   12 1    
    23   14   13 1    
    24   22   13 1    
    25   15   14 2    
    26   55   14 1    
    27   16   15 1    
    28   17   16 ar   
    29   22   16 ar   
    30   18   17 1    
    31   19   17 ar   
    32   56   18 1    
    33   57   18 1    
    34   20   19 ar   
    35   21   20 ar   
    36   58   20 1    
    37   22   21 ar   
    38   24   23 1    
    39   25   24 ar   
    40   26   24 ar   
    41   27   24 1    
    42   28   27 1    
    43   29   28 1    
    44   59   28 1    
    45   60   28 1    
    46   30   29 1    
    47   31   29 1    
    48   61   29 1    
    49   35   30 1    
    50   32   31 1    
    51   33   31 1    
    52   62   31 1    
    53   73   32 1    
    54   34   33 1    
    55   35   33 1    
    56   63   33 1    
    57   74   34 1    
    58   36   35 1    
    59   64   35 1    
    60   37   36 1    
    61   44   36 1    
    62   38   37 2    
    63   65   37 1    
    64   39   38 1    
    65   42   38 1    
    66   40   39 2    
    67   41   39 am   
    68   66   41 1    
    69   67   41 1    
    70   43   42 1    
    71   68   42 1    
    72   69   42 1    
    73   44   43 2    
    74   70   43 1    
    75   71   44 1    
    76   46   45 ar   
    77   47   45 ar   
    78   48   45 ar   
@<TRIPOS>SUBSTRUCTURE
     1 NDP3001     1 GROUP   
@<TRIPOS>SET

