#    Name: 2yvw_EPU_1_INTS_M
#    Modification time : Tue Mar 25 09:44:57 2014

@<TRIPOS>MOLECULE
2yvw_EPU_1_INTS_M
   87     0    12     0     0
SMALL
NO_CHARGES


@<TRIPOS>ATOM
      1 O         104.3255   43.2660   10.6615 O.2       1 ALC1        0.0000 
      2 O         102.9920   43.2540   10.5270 O.2       9 ALL1        0.0000 
      3 O         105.6590   43.2780   10.7960 O.2       5 ALP1        0.0000 
      4 CA        102.1745   40.5095   10.6885 C.3       4 GLC5        0.0000 
      5 CA        101.0810   42.0550    9.6290 C.3      12 GLL5        0.0000 
      6 CA        103.2680   38.9640   11.7480 C.3       8 GLP5        0.0000 
      7 CA        101.5890   40.3185    8.3605 C.3       4 GLC5        0.0000 
      8 CA        102.0970   38.5820    7.0920 C.3       8 GLP5        0.0000 
      9 N         104.2610   40.4615   10.1040 N.am      2 SEC2        0.0000 
     10 N         103.2170   41.2140    9.6080 N.am     10 SEL2        0.0000 
     11 N         105.3050   39.7090   10.6000 N.am      6 SEP2        0.0000 
     12 CA         99.9905   43.8170   12.3725 C.3       4 GLC5        0.0000 
     13 CA         99.9640   45.3590   10.9890 C.3      12 GLL5        0.0000 
     14 CA        100.0170   42.2750   13.7560 C.3       8 GLP5        0.0000 
     15 CA        100.6790   46.8100    7.9215 C.3       4 GLC5        0.0000 
     16 CA         99.5480   46.1610    9.7320 C.3      12 GLL5        0.0000 
     17 CA        101.8100   47.4590    6.1110 C.3       8 GLP5        0.0000 
     18 O          97.1950   48.5485   11.1990 O.2       1 ALC1        0.0000 
     19 O          98.2240   48.0050   10.5890 O.2       9 ALL1        0.0000 
     20 O          96.1660   49.0920   11.8090 O.2       5 ALP1        0.0000 
     21 CA         96.3255   46.2445    8.9675 C.3       4 GLC5        0.0000 
     22 CA         96.5400   44.7900   10.6330 C.3      12 GLL5        0.0000 
     23 CA         96.1110   47.6990    7.3020 C.3       8 GLP5        0.0000 
     24 N          97.9050   40.6880    9.1530 N.am      2 SEC2        0.0000 
     25 N          97.4270   41.8270    8.6370 N.am     10 SEL2        0.0000 
     26 N          98.3830   39.5490    9.6690 N.am      6 SEP2        0.0000 
     27 N          95.3355   40.7500   10.0875 N.am      2 SEC2        0.0000 
     28 N          95.4760   42.1930   10.1800 N.am     10 SEL2        0.0000 
     29 N          95.1950   39.3070    9.9950 N.am      6 SEP2        0.0000 
     30 N          95.7695   39.5220    6.9675 N.am      2 SEC2        0.0000 
     31 N          95.7990   40.8870    6.6850 N.am     10 SEL2        0.0000 
     32 N          95.7400   38.1570    7.2500 N.am      6 SEP2        0.0000 
     33 N          96.7615   40.0550    6.0600 N.am      2 SEC2        0.0000 
     34 N          97.7240   39.2230    5.4350 N.am      6 SEP2        0.0000 
     35 N          96.6830   43.9140    4.7390 N.am      2 SEC2        0.0000 
     36 N          97.1430   42.8140    5.7820 N.am     10 SEL2        0.0000 
     37 N          96.2230   45.0140    3.6960 N.am      6 SEP2        0.0000 
     38 CA         93.3125   40.7120    7.0690 C.3       4 GLC5        0.0000 
     39 CA         93.3310   42.0590    5.7120 C.3      12 GLL5        0.0000 
     40 CA         93.2940   39.3650    8.4260 C.3       8 GLP5        0.0000 
     41 CA         94.5135   40.3405    4.9810 C.3       4 GLC5        0.0000 
     42 CA         95.6960   38.6220    4.2500 C.3       8 GLP5        0.0000 
     43 CA         92.2310   42.2400    8.9160 C.3       4 GLC5        0.0000 
     44 CA         92.0480   44.3700    8.4190 C.3      12 GLL5        0.0000 
     45 CA         92.4140   40.1100    9.4130 C.3       8 GLP5        0.0000 
     46 CA         91.1940   46.0380    8.7065 C.3       4 GLC5        0.0000 
     47 CA         90.3400   47.7060    8.9940 C.3       8 GLP5        0.0000 
     48 CA         92.7145   45.6710    9.8820 C.3       4 GLC5        0.0000 
     49 CA         93.3810   46.9720   11.3450 C.3       8 GLP5        0.0000 
     50 CA         90.9705   39.7705    2.0055 C.3       4 GLC5        0.0000 
     51 CA         93.1330   40.1570    1.5740 C.3      12 GLL5        0.0000 
     52 CA         88.8080   39.3840    2.4370 C.3       8 GLP5        0.0000 
     53 CA         92.7040   39.4795   -0.2140 C.3       4 GLC5        0.0000 
     54 CA         92.2750   38.8020   -2.0020 C.3       8 GLP5        0.0000 
     55 CA         94.5670   40.0595    0.4500 C.3       4 GLC5        0.0000 
     56 CA         96.0010   39.9620   -0.6740 C.3       8 GLP5        0.0000 
     57 CA         94.4145   39.3895    2.9120 C.3       4 GLC5        0.0000 
     58 N          90.1270   43.0295    3.0565 N.am      2 SEC2        0.0000 
     59 N          91.1240   44.2660    3.5470 N.am     10 SEL2        0.0000 
     60 N          89.1300   41.7930    2.5660 N.am      6 SEP2        0.0000 
     61 O          90.2240   46.4920    5.4925 O.2       1 ALC1        0.0000 
     62 O          91.3420   45.7710    5.9280 O.2       9 ALL1        0.0000 
     63 O          89.1060   47.2130    5.0570 O.2       5 ALP1        0.0000 
     64 O          89.8555   45.4695    5.6480 O.2       1 ALC1        0.0000 
     65 O          88.3690   45.1680    5.3680 O.2       5 ALP1        0.0000 
     66 NZ         91.3065   43.5500   -0.4195 N.4       3 LYC4        0.0000 
     67 NZ         92.5270   44.5160    0.3940 N.4      11 LYL4        0.0000 
     68 NZ         90.0860   42.5840   -1.2330 N.4       7 LYP4        0.0000 
     69 NZ         90.2260   43.3655   -0.2605 N.4       3 LYC4        0.0000 
     70 NZ         90.3660   44.1470    0.7120 N.4      11 LYL4        0.0000 
     71 N          90.2260   43.3655   -0.2605 N.am      2 SEC2        0.0000 
     72 N          90.3660   44.1470    0.7120 N.am     10 SEL2        0.0000 
     73 N          90.0860   42.5840   -1.2330 N.am      6 SEP2        0.0000 
     74 N          89.7480   42.9700    1.6390 N.am      2 SEC2        0.0000 
     75 CA         92.0300   47.0910    0.8345 C.3       4 GLC5        0.0000 
     76 CA         92.2940   46.2110    2.7810 C.3      12 GLL5        0.0000 
     77 CA         91.7660   47.9710   -1.1120 C.3       8 GLP5        0.0000 
     78 CA        100.3515   42.4282   11.7817 C.3       4 GLC5        0.0000 
     79 CA        100.2910   43.1080    9.9860 C.3      12 GLL5        0.0000 
     80 CA         99.5370   41.1388   10.4503 C.3       4 GLC5        0.0000 
     81 CA         98.3880   39.6960   11.0930 C.3       8 GLP5        0.0000 
     82 CA         97.4742   47.0567    8.6010 C.3       4 GLC5        0.0000 
     83 CA         95.2355   46.1118   11.1310 C.3       4 GLC5        0.0000 
     84 CA         97.6400   45.7130   11.2010 C.3      12 GLL5        0.0000 
     85 CA         92.8816   45.9086    7.2780 C.3       4 GLC5        0.0000 
     86 CA         92.5690   43.9740    7.0230 C.3      12 GLL5        0.0000 
     87 CA         93.7120   47.5500    7.1070 C.3       8 GLP5        0.0000 
@<TRIPOS>BOND
@<TRIPOS>SUBSTRUCTURE
     1 ALC1        1 GROUP        1 X    ALC  0     ROOT ALC X 1
     2 SEC2        9 GROUP        1 X    SEC  0     **** SEC X 2
     3 LYC4       66 GROUP        1 X    LYC  0     **** LYC X 4
     4 GLC5        4 GROUP        1 X    GLC  0     **** GLC X 6
     5 ALP1        3 GROUP        1 Y    ALP  0     ROOT ALP Y 8
     6 SEP2       11 GROUP        1 Y    SEP  0     **** SEP Y 9
     7 LYP4       68 GROUP        1 Y    LYP  0     **** LYP Y 11
     8 GLP5        6 GROUP        1 Y    GLP  0     **** GLP Y 13
     9 ALL1        2 GROUP        1 Z    ALL  0     ROOT ALL Z 15
    10 SEL2       10 GROUP        1 Z    SEL  0     **** SEL Z 16
    11 LYL4       67 GROUP        1 Z    LYL  0     **** LYL Z 18
    12 GLL5        5 GROUP        1 Z    GLL  0     **** GLL Z 20
@<TRIPOS>SET

