#    Name: 2yvw_EPU_1_ligand
#    Modification time : Tue Mar 25 09:44:57 2014

@<TRIPOS>MOLECULE
2yvw_EPU_1_ligand
   68    70     1     0     0
SMALL
NO_CHARGES


@<TRIPOS>ATOM
      1 N1U       100.8430   44.2350   10.6130 N.am      1 EPU501      0.0000 
      2 C2U       102.1840   44.2960   10.8760 C.2       1 EPU501      0.0000 
      3 N3U       102.9920   43.2540   10.5270 N.am      1 EPU501      0.0000 
      4 C4U       102.4830   42.1350    9.9130 C.2       1 EPU501      0.0000 
      5 C5U       101.0810   42.0550    9.6290 C.2       1 EPU501      0.0000 
      6 C6U       100.2910   43.1080    9.9860 C.2       1 EPU501      0.0000 
      7 O2U       102.6660   45.2810   11.4230 O.2       1 EPU501      0.0000 
      8 O4U       103.2170   41.2140    9.6080 O.2       1 EPU501      0.0000 
      9 C1D        99.9640   45.3590   10.9890 C.3       1 EPU501      0.0000 
     10 C2D        99.5480   46.1610    9.7320 C.3       1 EPU501      0.0000 
     11 O2D       100.4650   47.1860    9.3720 O.3       1 EPU501      0.0000 
     12 C3D        98.1270   46.6680   10.0680 C.3       1 EPU501      0.0000 
     13 C4D        97.6400   45.7130   11.2010 C.3       1 EPU501      0.0000 
     14 O4D        98.7380   44.8610   11.5660 O.3       1 EPU501      0.0000 
     15 O3D        98.2240   48.0050   10.5890 O.3       1 EPU501      0.0000 
     16 C5D        96.5400   44.7900   10.6330 C.3       1 EPU501      0.0000 
     17 O5D        97.1150   44.1730    9.4600 O.3       1 EPU501      0.0000 
     18 PA         96.3820   42.8060    9.0050 P.3       1 EPU501      0.0000 
     19 O1A        97.4270   41.8270    8.6370 O.co2     1 EPU501      0.0000 
     20 O2A        95.4760   42.1930   10.1800 O.co2     1 EPU501      0.0000 
     21 O3A        95.4310   43.1850    7.7580 O.3       1 EPU501      0.0000 
     22 PB         95.7510   42.3420    6.4110 P.3       1 EPU501      0.0000 
     23 O1B        95.7990   40.8870    6.6850 O.co2     1 EPU501      0.0000 
     24 O2B        97.1430   42.8140    5.7820 O.co2     1 EPU501      0.0000 
     25 C1         93.3310   42.0590    5.7120 C.3       1 EPU501      0.0000 
     26 C2         92.2920   42.3780    4.6060 C.3       1 EPU501      0.0000 
     27 C3         92.0860   43.9120    4.5610 C.3       1 EPU501      0.0000 
     28 C4         91.5400   44.3550    5.9350 C.3       1 EPU501      0.0000 
     29 C5         92.5690   43.9740    7.0230 C.3       1 EPU501      0.0000 
     30 C6         92.0480   44.3700    8.4190 C.3       1 EPU501      0.0000 
     31 C7         92.6280   40.6050    2.9220 C.2       1 EPU501      0.0000 
     32 C8         93.1330   40.1570    1.5740 C.3       1 EPU501      0.0000 
     33 N2         92.8080   41.8970    3.3150 N.am      1 EPU501      0.0000 
     34 O1         94.5840   42.6910    5.3490 O.3       1 EPU501      0.0000 
     35 O3         91.1240   44.2660    3.5470 O.3       1 EPU501      0.0000 
     36 O4         91.3420   45.7710    5.9280 O.3       1 EPU501      0.0000 
     37 O5         92.8270   42.5330    7.0110 O.3       1 EPU501      0.0000 
     38 O6         90.7780   43.7610    8.6780 O.3       1 EPU501      0.0000 
     39 O7         92.0640   39.8060    3.6490 O.2       1 EPU501      0.0000 
     40 C1E        91.5680   44.5470    1.1450 C.2       1 EPU501      0.0000 
     41 O1E        92.5270   44.5160    0.3940 O.co2     1 EPU501      0.0000 
     42 O2E        90.3660   44.1470    0.7120 O.co2     1 EPU501      0.0000 
     43 C2E        91.6990   45.0240    2.5370 C.2       1 EPU501      0.0000 
     44 C3E        92.2940   46.2110    2.7810 C.2       1 EPU501      0.0000 
     45 H         104.0146   43.3031   10.7278 H         1 EPU501      0.0000 
     46 H         100.7175   41.2256    9.1746 H         1 EPU501      0.0000 
     47 H          99.2729   43.0919    9.8000 H         1 EPU501      0.0000 
     48 H         100.4556   46.0285   11.6533 H         1 EPU501      0.0000 
     49 H          99.4177   45.4154    8.9362 H         1 EPU501      0.0000 
     50 H          97.5151   46.5613    9.2442 H         1 EPU501      0.0000 
     51 H          97.2643   46.2673   11.9933 H         1 EPU501      0.0000 
     52 H          95.6870   45.3998   10.3913 H         1 EPU501      0.0000 
     53 H          96.2911   44.0659   11.3890 H         1 EPU501      0.0000 
     54 H          93.4430   40.9819    5.7281 H         1 EPU501      0.0000 
     55 H          91.3743   41.9135    4.8603 H         1 EPU501      0.0000 
     56 H          93.0275   44.3780    4.4095 H         1 EPU501      0.0000 
     57 H          90.6367   43.8198    6.1241 H         1 EPU501      0.0000 
     58 H          93.4773   44.5219    6.8395 H         1 EPU501      0.0000 
     59 H          91.9878   45.4664    8.4480 H         1 EPU501      0.0000 
     60 H          92.8055   44.0607    9.1519 H         1 EPU501      0.0000 
     61 H          93.3063   42.5836    2.7333 H         1 EPU501      0.0000 
     62 H          94.1223   40.2760    1.4897 H         1 EPU501      0.0000 
     63 H          92.9388   39.1903    1.4071 H         1 EPU501      0.0000 
     64 H          92.7111   40.6736    0.8289 H         1 EPU501      0.0000 
     65 H         100.0727   48.0268    9.7450 H         1 EPU501      0.0000 
     66 H          97.5778   48.0330   11.3516 H         1 EPU501      0.0000 
     67 H          90.4297   45.9027    5.5402 H         1 EPU501      0.0000 
     68 H          90.7787   43.5686    9.6593 H         1 EPU501      0.0000 
@<TRIPOS>BOND
     1    2    1 1    
     2    6    1 1    
     3    9    1 1    
     4    3    2 1    
     5    7    2 2    
     6    4    3 1    
     7   45    3 1    
     8    5    4 1    
     9    8    4 2    
    10    6    5 2    
    11   46    5 1    
    12   47    6 1    
    13   10    9 1    
    14   14    9 1    
    15   48    9 1    
    16   11   10 1    
    17   12   10 1    
    18   49   10 1    
    19   65   11 1    
    20   13   12 1    
    21   15   12 1    
    22   50   12 1    
    23   14   13 1    
    24   16   13 1    
    25   51   13 1    
    26   66   15 1    
    27   17   16 1    
    28   52   16 1    
    29   53   16 1    
    30   18   17 1    
    31   19   18 ar   
    32   20   18 ar   
    33   21   18 1    
    34   22   21 1    
    35   23   22 ar   
    36   24   22 ar   
    37   34   22 1    
    38   26   25 1    
    39   34   25 1    
    40   37   25 1    
    41   54   25 1    
    42   27   26 1    
    43   33   26 1    
    44   55   26 1    
    45   28   27 1    
    46   35   27 1    
    47   56   27 1    
    48   29   28 1    
    49   36   28 1    
    50   57   28 1    
    51   30   29 1    
    52   37   29 1    
    53   58   29 1    
    54   38   30 1    
    55   59   30 1    
    56   60   30 1    
    57   32   31 1    
    58   33   31 am   
    59   39   31 2    
    60   62   32 1    
    61   63   32 1    
    62   64   32 1    
    63   61   33 1    
    64   43   35 1    
    65   67   36 1    
    66   68   38 1    
    67   41   40 ar   
    68   42   40 ar   
    69   43   40 1    
    70   44   43 2    
@<TRIPOS>SUBSTRUCTURE
     1 EPU501      1 GROUP   
@<TRIPOS>SET

