#    Name: 3kba_WOW_2_INTS_M
#    Modification time : Mon Mar 24 19:07:45 2014

@<TRIPOS>MOLECULE
3kba_WOW_2_INTS_M
   74     0     3     0     0
SMALL
NO_CHARGES


@<TRIPOS>ATOM
      1 CA         11.7855   11.8230   10.6225 C.3       1 GLC5        0.0000 
      2 CA         12.3550   13.3420   12.0080 C.3       3 GLL5        0.0000 
      3 CA         11.2160   10.3040    9.2370 C.3       2 GLP5        0.0000 
      4 CA         11.6460   13.9005   13.7370 C.3       1 GLC5        0.0000 
      5 CA         10.9370   14.4590   15.4660 C.3       2 GLP5        0.0000 
      6 CA         13.4670   15.2645   14.5410 C.3       1 GLC5        0.0000 
      7 CA         12.8920   15.6360   12.8390 C.3       3 GLL5        0.0000 
      8 CA         14.0420   14.8930   16.2430 C.3       2 GLP5        0.0000 
      9 CA         12.8610   18.1465   14.5990 C.3       1 GLC5        0.0000 
     10 CA         12.8460   17.0230   12.6980 C.3       3 GLL5        0.0000 
     11 CA         12.8760   19.2700   16.5000 C.3       2 GLP5        0.0000 
     12 CA         14.3645   16.6815   14.0640 C.3       1 GLC5        0.0000 
     13 CA         15.8830   16.3400   15.4300 C.3       2 GLP5        0.0000 
     14 CA         10.3140   18.1010   12.3445 C.3       1 GLC5        0.0000 
     15 CA         12.2280   17.5830   11.5810 C.3       3 GLL5        0.0000 
     16 CA          8.4000   18.6190   13.1080 C.3       2 GLP5        0.0000 
     17 CA         11.8990   12.7110    9.0780 C.3       1 GLC5        0.0000 
     18 CA         11.1200   14.4780    9.7350 C.3       3 GLL5        0.0000 
     19 CA         12.6780   10.9440    8.4210 C.3       2 GLP5        0.0000 
     20 CA          8.4180   11.6320    7.7350 C.3       1 GLC5        0.0000 
     21 CA          8.3830   13.7290    8.3350 C.3       3 GLL5        0.0000 
     22 CA          8.4530    9.5350    7.1350 C.3       2 GLP5        0.0000 
     23 CA          7.1165   13.2175    6.8215 C.3       1 GLC5        0.0000 
     24 CA          5.8500   12.7060    5.3080 C.3       2 GLP5        0.0000 
     25 CA          7.6765   11.5470   10.5515 C.3       1 GLC5        0.0000 
     26 CA          7.7590   13.4190    9.7040 C.3       3 GLL5        0.0000 
     27 CA          7.5940    9.6750   11.3990 C.3       2 GLP5        0.0000 
     28 CA          5.7750   12.9305   10.3105 C.3       1 GLC5        0.0000 
     29 CA          3.7910   12.4420   10.9170 C.3       2 GLP5        0.0000 
     30 CA          6.2910   12.8490    8.2110 C.3       1 GLC5        0.0000 
     31 CA          4.8230   12.2790    6.7180 C.3       2 GLP5        0.0000 
     32 CA          7.1530   11.1665   11.7415 C.3       1 GLC5        0.0000 
     33 CA          6.7120   12.6580   12.0840 C.3       3 GLL5        0.0000 
     34 CA          6.2130   13.0940   13.9050 C.3       1 GLC5        0.0000 
     35 CA          5.7140   13.5300   15.7260 C.3       2 GLP5        0.0000 
     36 CA          5.2515   12.5500   11.5005 C.3       1 GLC5        0.0000 
     37 CA         15.3050   16.9525    6.2610 C.3       1 GLC5        0.0000 
     38 CA         13.3850   15.9950    6.4130 C.3       3 GLL5        0.0000 
     39 CA         17.2250   17.9100    6.1090 C.3       2 GLP5        0.0000 
     40 CA         11.9395   18.2350    3.2880 C.3       1 GLC5        0.0000 
     41 CA         13.3220   16.7890    4.0110 C.3       3 GLL5        0.0000 
     42 CA         10.5570   19.6810    2.5650 C.3       2 GLP5        0.0000 
     43 CA         15.4415   17.0155    3.8660 C.3       1 GLC5        0.0000 
     44 CA         17.5610   17.2420    3.7210 C.3       2 GLP5        0.0000 
     45 CA         13.5810   18.3400    4.9330 C.3       1 GLC5        0.0000 
     46 CA         13.8400   19.8910    5.8550 C.3       2 GLP5        0.0000 
     47 CA          8.9545   15.7350    3.3915 C.3       1 GLC5        0.0000 
     48 CA         10.4590   16.5950    3.8760 C.3       3 GLL5        0.0000 
     49 CA          7.4500   14.8750    2.9070 C.3       2 GLP5        0.0000 
     50 CA         10.4740   16.1015    1.7825 C.3       1 GLC5        0.0000 
     51 CA         10.4890   15.6080   -0.3110 C.3       2 GLP5        0.0000 
     52 CA          9.5360   17.4430    7.1925 C.3       1 GLC5        0.0000 
     53 CA         10.5820   15.8140    6.3700 C.3       3 GLL5        0.0000 
     54 CA          8.4900   19.0720    8.0150 C.3       2 GLP5        0.0000 
     55 CA         14.4660   16.9592   11.9057 C.3       1 GLC5        0.0000 
     56 CA         16.0630   17.5890   11.0430 C.3       2 GLP5        0.0000 
     57 CA         14.2670   13.9749   12.4147 C.3       1 GLC5        0.0000 
     58 CA         15.9220   13.0910   12.4390 C.3       2 GLP5        0.0000 
     59 CA         10.9755   18.6825   10.3953 C.3       1 GLC5        0.0000 
     60 CA         11.6700   16.7630   10.6040 C.3       3 GLL5        0.0000 
     61 CA         10.0020   20.1920    9.6980 C.3       2 GLP5        0.0000 
     62 CA         14.0060   17.3810   11.0678 C.3       1 GLC5        0.0000 
     63 CA          8.5995   17.2190    8.5333 C.3       1 GLC5        0.0000 
     64 CA          9.0670   15.0480    8.4880 C.3       3 GLL5        0.0000 
     65 CA         14.6078   16.0637    8.3740 C.3       1 GLC5        0.0000 
     66 CA         12.6600   15.5860    7.5390 C.3       3 GLL5        0.0000 
     67 CA         16.1930   16.3370    9.7720 C.3       2 GLP5        0.0000 
     68 CA         13.2167   14.5825    3.9990 C.3       1 GLC5        0.0000 
     69 CA         12.6810   16.3310    5.2670 C.3       3 GLL5        0.0000 
     70 CA         13.4320   12.6050    3.3590 C.3       2 GLP5        0.0000 
     71 CA         10.7207   18.0310    3.5665 C.3       1 GLC5        0.0000 
     72 CA         11.3100   16.1670    5.2600 C.3       3 GLL5        0.0000 
     73 CA         10.7196   14.4173    4.5710 C.3       1 GLC5        0.0000 
     74 CA         10.7060   12.7370    3.6730 C.3       2 GLP5        0.0000 
@<TRIPOS>BOND
@<TRIPOS>SUBSTRUCTURE
     1 GLC5        1 GROUP        1 X    GLC  0     ROOT GLC X 6
     2 GLP5        3 GROUP        1 Y    GLP  0     ROOT GLP Y 13
     3 GLL5        2 GROUP        1 Z    GLL  0     ROOT GLL Z 20
@<TRIPOS>SET

