#    Name: 3kba_WOW_2_ligand
#    Modification time : Mon Mar 24 19:07:45 2014

@<TRIPOS>MOLECULE
3kba_WOW_2_ligand
   49    51     1     0     0
SMALL
NO_CHARGES


@<TRIPOS>ATOM
      1 C01        12.3550   13.3420   12.0080 C.3       1 WOW2        0.0000 
      2 C02        12.3090   14.8210   11.8760 C.ar      1 WOW2        0.0000 
      3 C03        12.8920   15.6360   12.8390 C.ar      1 WOW2        0.0000 
      4 C04        12.8460   17.0230   12.6980 C.ar      1 WOW2        0.0000 
      5 C05        12.2280   17.5830   11.5810 C.ar      1 WOW2        0.0000 
      6 C06        11.6700   16.7630   10.6040 C.ar      1 WOW2        0.0000 
      7 C07        11.7370   15.3800   10.7440 C.ar      1 WOW2        0.0000 
      8 C08        11.1200   14.4780    9.7350 C.3       1 WOW2        0.0000 
      9 N09        10.4870   15.0520    8.6030 N.pl3     1 WOW2        0.0000 
     10 C10         9.0670   15.0480    8.4880 C.3       1 WOW2        0.0000 
     11 C11         8.3830   13.7290    8.3350 C.3       1 WOW2        0.0000 
     12 C12         7.7590   13.4190    9.7040 C.3       1 WOW2        0.0000 
     13 N13         7.9440   14.6050   10.5090 N.pl3     1 WOW2        0.0000 
     14 C14         8.3510   15.6840    9.6150 C.3       1 WOW2        0.0000 
     15 S15         7.3350   14.2860   11.9680 S.o2      1 WOW2        0.0000 
     16 C16         6.7120   12.6580   12.0840 C.3       1 WOW2        0.0000 
     17 O17         6.3210   15.2230   12.1850 O.2       1 WOW2        0.0000 
     18 O18         8.3330   14.4960   12.9380 O.2       1 WOW2        0.0000 
     19 C19        11.2640   15.5090    7.5150 C.ar      1 WOW2        0.0000 
     20 C20        12.6600   15.5860    7.5390 C.ar      1 WOW2        0.0000 
     21 C21        13.3850   15.9950    6.4130 C.ar      1 WOW2        0.0000 
     22 C22        12.6810   16.3310    5.2670 C.ar      1 WOW2        0.0000 
     23 C23        13.3220   16.7890    4.0110 C.1       1 WOW2        0.0000 
     24 N24        13.7640   17.1430    3.0310 N.1       1 WOW2        0.0000 
     25 C25        11.3100   16.1670    5.2600 C.ar      1 WOW2        0.0000 
     26 CL26       10.4590   16.5950    3.8760 Cl        1 WOW2        0.0000 
     27 C27        10.5820   15.8140    6.3700 C.ar      1 WOW2        0.0000 
     28 H          13.3570   15.2195   13.6549 H         1 WOW2        0.0000 
     29 H          13.2645   17.6269   13.4122 H         1 WOW2        0.0000 
     30 H          12.1845   18.6060   11.4789 H         1 WOW2        0.0000 
     31 H          11.2117   17.1765    9.7849 H         1 WOW2        0.0000 
     32 H          10.3902   13.7978   10.2877 H         1 WOW2        0.0000 
     33 H          11.9235   13.7406    9.4012 H         1 WOW2        0.0000 
     34 H           8.7534   15.6460    7.5766 H         1 WOW2        0.0000 
     35 H           9.0907   12.9618    8.0937 H         1 WOW2        0.0000 
     36 H           7.6030   13.7901    7.6031 H         1 WOW2        0.0000 
     37 H           8.2714   12.5665   10.1215 H         1 WOW2        0.0000 
     38 H           6.7146   13.1944    9.5541 H         1 WOW2        0.0000 
     39 H           7.4840   16.2187    9.2437 H         1 WOW2        0.0000 
     40 H           9.0123   16.3741   10.1269 H         1 WOW2        0.0000 
     41 H          13.1677   15.3362    8.4049 H         1 WOW2        0.0000 
     42 H          14.3983   16.0420    6.4416 H         1 WOW2        0.0000 
     43 H           9.5616   15.7812    6.3379 H         1 WOW2        0.0000 
     44 H          13.2945   13.0000   12.0285 H         1 WOW2        0.0000 
     45 H          11.9112   13.0301   12.8481 H         1 WOW2        0.0000 
     46 H          11.8938   12.8866   11.2464 H         1 WOW2        0.0000 
     47 H           7.4220   11.9754   11.9107 H         1 WOW2        0.0000 
     48 H           6.3375   12.4674   12.9914 H         1 WOW2        0.0000 
     49 H           5.9792   12.4929   11.4239 H         1 WOW2        0.0000 
@<TRIPOS>BOND
     1    2    1 1    
     2   44    1 1    
     3   45    1 1    
     4   46    1 1    
     5    3    2 ar   
     6    7    2 ar   
     7    4    3 ar   
     8   28    3 1    
     9    5    4 ar   
    10   29    4 1    
    11    6    5 ar   
    12   30    5 1    
    13    7    6 ar   
    14   31    6 1    
    15    8    7 1    
    16    9    8 1    
    17   32    8 1    
    18   33    8 1    
    19   10    9 1    
    20   19    9 1    
    21   11   10 1    
    22   14   10 1    
    23   34   10 1    
    24   12   11 1    
    25   35   11 1    
    26   36   11 1    
    27   13   12 1    
    28   37   12 1    
    29   38   12 1    
    30   14   13 1    
    31   15   13 1    
    32   39   14 1    
    33   40   14 1    
    34   16   15 1    
    35   17   15 2    
    36   18   15 2    
    37   47   16 1    
    38   48   16 1    
    39   49   16 1    
    40   20   19 ar   
    41   27   19 ar   
    42   21   20 ar   
    43   41   20 1    
    44   22   21 ar   
    45   42   21 1    
    46   23   22 1    
    47   25   22 ar   
    48   24   23 3    
    49   26   25 1    
    50   27   25 ar   
    51   43   27 1    
@<TRIPOS>SUBSTRUCTURE
     1 WOW2        1 GROUP   
@<TRIPOS>SET

