#    Name: 2wks_CB6_4_INTS_M
#    Modification time : Tue Mar 25 04:25:40 2014

@<TRIPOS>MOLECULE
2wks_CB6_4_INTS_M
   79     0     9     0     0
SMALL
NO_CHARGES


@<TRIPOS>ATOM
      1 CA          7.4645   17.1885   21.8600 C.3       3 GLC5        0.0000 
      2 CA          6.3040   17.8640   23.4900 C.3       9 GLL5        0.0000 
      3 CA          8.6250   16.5130   20.2300 C.3       6 GLP5        0.0000 
      4 CA          4.9645   21.1205   25.7715 C.3       3 GLC5        0.0000 
      5 CA          6.2320   19.7440   25.0370 C.3       9 GLL5        0.0000 
      6 CA          3.6970   22.4970   26.5060 C.3       6 GLP5        0.0000 
      7 CA          5.7240   20.8005   26.8450 C.3       3 GLC5        0.0000 
      8 CA          6.6830   18.9140   26.0840 C.3       9 GLL5        0.0000 
      9 CA          4.7650   22.6870   27.6060 C.3       6 GLP5        0.0000 
     10 CA          9.1365   15.6680   27.8990 C.3       3 GLC5        0.0000 
     11 CA          7.4840   16.3060   26.7680 C.3       9 GLL5        0.0000 
     12 CA         10.7890   15.0300   29.0300 C.3       6 GLP5        0.0000 
     13 CA          6.7065   16.5475   28.5735 C.3       3 GLC5        0.0000 
     14 CA          5.9290   16.7890   30.3790 C.3       6 GLP5        0.0000 
     15 CA          6.0005   13.9650   25.7060 C.3       3 GLC5        0.0000 
     16 CA          7.8130   13.8190   25.7800 C.3       9 GLL5        0.0000 
     17 CA          4.1880   14.1110   25.6320 C.3       6 GLP5        0.0000 
     18 CA          7.5575   12.0015   27.4325 C.3       3 GLC5        0.0000 
     19 CA          6.6730   11.1200   25.6430 C.3       9 GLL5        0.0000 
     20 CA          8.4420   12.8830   29.2220 C.3       6 GLP5        0.0000 
     21 CA          4.6445    8.3410   26.4485 C.3       3 GLC5        0.0000 
     22 CA          5.7570   10.0460   25.5740 C.3       9 GLL5        0.0000 
     23 CA          3.5320    6.6360   27.3230 C.3       6 GLP5        0.0000 
     24 N           6.3155    9.5365   28.5635 N.am      2 SEC2        0.0000 
     25 N           5.1660   10.0120   27.8940 N.am      8 SEL2        0.0000 
     26 N           7.4650    9.0610   29.2330 N.am      5 SEP2        0.0000 
     27 N           4.2540    9.5095   28.7485 N.am      2 SEC2        0.0000 
     28 N           3.3420    9.0070   29.6030 N.am      5 SEP2        0.0000 
     29 N           2.3180   10.1015   27.2645 N.am      2 SEC2        0.0000 
     30 N           3.5140   10.1590   26.3980 N.am      8 SEL2        0.0000 
     31 N           1.1220   10.0440   28.1310 N.am      5 SEP2        0.0000 
     32 N           2.3175   10.3935   25.8280 N.am      2 SEC2        0.0000 
     33 N           1.1210   10.6280   25.2580 N.am      5 SEP2        0.0000 
     34 N           5.9755    7.5745   25.7165 N.am      2 SEC2        0.0000 
     35 N           6.4730    8.7930   25.6800 N.am      8 SEL2        0.0000 
     36 N           5.4780    6.3560   25.7530 N.am      5 SEP2        0.0000 
     37 O           7.4925    8.4410   26.5820 O.2       1 ALC1        0.0000 
     38 O           6.4730    8.7930   25.6800 O.2       7 ALL1        0.0000 
     39 O           8.5120    8.0890   27.4840 O.2       4 ALP1        0.0000 
     40 CA          3.6860    8.6945   23.7215 C.3       3 GLC5        0.0000 
     41 CA          5.0230   10.0420   24.2100 C.3       9 GLL5        0.0000 
     42 CA          2.3490    7.3470   23.2330 C.3       6 GLP5        0.0000 
     43 N           5.2905   11.1035   20.9140 N.am      2 SEC2        0.0000 
     44 N           5.3680   10.1070   21.7860 N.am      8 SEL2        0.0000 
     45 N           5.2130   12.1000   20.0420 N.am      5 SEP2        0.0000 
     46 N           5.6520    9.0055   20.9325 N.am      2 SEC2        0.0000 
     47 N           5.9360    7.9040   20.0790 N.am      5 SEP2        0.0000 
     48 CA          5.2975   12.9625   24.4010 C.3       3 GLC5        0.0000 
     49 CA          6.4070   11.8140   23.1700 C.3       9 GLL5        0.0000 
     50 N           6.2820   12.1260   21.1005 N.am      2 SEC2        0.0000 
     51 N           7.3510   12.1520   22.1590 N.am      8 SEL2        0.0000 
     52 O           7.4430   13.2675   21.3425 O.2       1 ALC1        0.0000 
     53 O           7.3510   12.1520   22.1590 O.2       7 ALL1        0.0000 
     54 O           7.5350   14.3830   20.5260 O.2       4 ALP1        0.0000 
     55 CA          5.7095   20.6480   20.6840 C.3       3 GLC5        0.0000 
     56 CA          5.5370   20.1180   22.5850 C.3       9 GLL5        0.0000 
     57 CA          5.8820   21.1780   18.7830 C.3       6 GLP5        0.0000 
     58 CA          6.8615   21.1610   22.9885 C.3       3 GLC5        0.0000 
     59 CA          8.1860   22.2040   23.3920 C.3       6 GLP5        0.0000 
     60 CA          9.0140   16.3682   24.5318 C.3       3 GLC5        0.0000 
     61 CA          6.7600   17.0050   24.5080 C.3       9 GLL5        0.0000 
     62 CA         11.1220   16.3920   24.5970 C.3       6 GLP5        0.0000 
     63 CA          7.9860   18.8053   24.0760 C.3       3 GLC5        0.0000 
     64 CA          9.4400   20.1760   24.1530 C.3       6 GLP5        0.0000 
     65 CA          7.7882   19.8300   24.2697 C.3       3 GLC5        0.0000 
     66 CA          6.0410   19.2240   23.7360 C.3       9 GLL5        0.0000 
     67 CA          8.1255   19.2058   25.0495 C.3       3 GLC5        0.0000 
     68 CA          8.0392   13.6815   27.4495 C.3       3 GLC5        0.0000 
     69 CA          7.4600   15.1410   25.5740 C.3       9 GLL5        0.0000 
     70 CA          9.3822   15.5816   25.2863 C.3       3 GLC5        0.0000 
     71 CA          5.5163   12.8295   25.3685 C.3       3 GLC5        0.0000 
     72 CA          7.0160   11.9760   24.5670 C.3       9 GLL5        0.0000 
     73 CA          4.7890   12.0775   25.2620 C.3       3 GLC5        0.0000 
     74 CA          7.9839   10.1190   24.9267 C.3       3 GLC5        0.0000 
     75 CA          9.6670    9.4410   24.5140 C.3       6 GLP5        0.0000 
     76 CA          7.9347   10.2633   23.8100 C.3       3 GLC5        0.0000 
     77 CA          5.9980   10.3570   23.0420 C.3       9 GLL5        0.0000 
     78 CA          7.8938   10.5548   21.9390 C.3       3 GLC5        0.0000 
     79 CA          9.5850   10.0240   20.7720 C.3       6 GLP5        0.0000 
@<TRIPOS>BOND
@<TRIPOS>SUBSTRUCTURE
     1 ALC1       37 GROUP        1 X    ALC  0     ROOT ALC X 1
     2 SEC2       24 GROUP        1 X    SEC  0     **** SEC X 2
     3 GLC5        1 GROUP        1 X    GLC  0     **** GLC X 6
     4 ALP1       39 GROUP        1 Y    ALP  0     ROOT ALP Y 8
     5 SEP2       26 GROUP        1 Y    SEP  0     **** SEP Y 9
     6 GLP5        3 GROUP        1 Y    GLP  0     **** GLP Y 13
     7 ALL1       38 GROUP        1 Z    ALL  0     ROOT ALL Z 15
     8 SEL2       25 GROUP        1 Z    SEL  0     **** SEL Z 16
     9 GLL5        2 GROUP        1 Z    GLL  0     **** GLL Z 20
@<TRIPOS>SET

