#    Name: 2wks_CB6_4_ligand
#    Modification time : Tue Mar 25 04:25:40 2014

@<TRIPOS>MOLECULE
2wks_CB6_4_ligand
   41    43     1     0     0
SMALL
NO_CHARGES


@<TRIPOS>ATOM
      1 CAK         7.0520   15.6840   24.4250 C.2       1 CB61154     0.0000 
      2 CAT         6.7600   17.0050   24.5080 C.ar      1 CB61154     0.0000 
      3 CAI         6.3040   17.8640   23.4900 C.ar      1 CB61154     0.0000 
      4 CAH         6.0410   19.2240   23.7360 C.ar      1 CB61154     0.0000 
      5 CAR         6.2320   19.7440   25.0370 C.ar      1 CB61154     0.0000 
      6 CAJ         6.6830   18.9140   26.0840 C.ar      1 CB61154     0.0000 
      7 CAU         6.9390   17.5570   25.8080 C.ar      1 CB61154     0.0000 
      8 SAO         7.4840   16.3060   26.7680 S.3       1 CB61154     0.0000 
      9 CAS         7.4600   15.1410   25.5740 C.2       1 CB61154     0.0000 
     10 CAL         7.8130   13.8190   25.7800 C.3       1 CB61154     0.0000 
     11 OAN         7.9660   12.9380   24.6860 O.3       1 CB61154     0.0000 
     12 CAQ         7.0160   11.9760   24.5670 C.2       1 CB61154     0.0000 
     13 CAG         6.6730   11.1200   25.6430 C.2       1 CB61154     0.0000 
     14 CAX         5.7570   10.0460   25.5740 C.3       1 CB61154     0.0000 
     15 CAP         4.7220   10.0850   26.7190 C.2       1 CB61154     0.0000 
     16 OAC         5.1660   10.0120   27.8940 O.co2     1 CB61154     0.0000 
     17 OAB         3.5140   10.1590   26.3980 O.co2     1 CB61154     0.0000 
     18 OAF         6.4730    8.7930   25.6800 O.3       1 CB61154     0.0000 
     19 CAM         5.0230   10.0420   24.2100 C.3       1 CB61154     0.0000 
     20 CAV         5.9980   10.3570   23.0420 C.3       1 CB61154     0.0000 
     21 OAD         5.3680   10.1070   21.7860 O.3       1 CB61154     0.0000 
     22 CAW         6.4070   11.8140   23.1700 C.3       1 CB61154     0.0000 
     23 OAE         7.3510   12.1520   22.1590 O.3       1 CB61154     0.0000 
     24 CAA         5.5370   20.1180   22.5850 C.3       1 CB61154     0.0000 
     25 H           6.9653   15.1677   23.5676 H         1 CB61154     0.0000 
     26 H           6.1590   17.4858   22.5386 H         1 CB61154     0.0000 
     27 H           6.0401   20.7350   25.2193 H         1 CB61154     0.0000 
     28 H           6.8198   19.2871   27.0154 H         1 CB61154     0.0000 
     29 H           7.0700   13.3375   26.5294 H         1 CB61154     0.0000 
     30 H           8.7828   13.7770   26.4150 H         1 CB61154     0.0000 
     31 H           7.1424   11.3012   26.5747 H         1 CB61154     0.0000 
     32 H           4.2384   10.7925   24.2261 H         1 CB61154     0.0000 
     33 H           4.5818    9.0634   24.0464 H         1 CB61154     0.0000 
     34 H           6.8728    9.7458   23.1872 H         1 CB61154     0.0000 
     35 H           5.5211   12.4153   23.1242 H         1 CB61154     0.0000 
     36 H           6.1902   20.1530   21.8286 H         1 CB61154     0.0000 
     37 H           4.6712   19.7871   22.2095 H         1 CB61154     0.0000 
     38 H           5.3854   21.0597   22.8852 H         1 CB61154     0.0000 
     39 H           7.1034    8.9193   26.4460 H         1 CB61154     0.0000 
     40 H           4.6465    9.4441   21.9860 H         1 CB61154     0.0000 
     41 H           7.4076   13.1501   22.1812 H         1 CB61154     0.0000 
@<TRIPOS>BOND
     1    2    1 1    
     2    9    1 2    
     3   25    1 1    
     4    3    2 ar   
     5    7    2 ar   
     6    4    3 ar   
     7   26    3 1    
     8    5    4 ar   
     9   24    4 1    
    10    6    5 ar   
    11   27    5 1    
    12    7    6 ar   
    13   28    6 1    
    14    8    7 1    
    15    9    8 1    
    16   10    9 1    
    17   11   10 1    
    18   29   10 1    
    19   30   10 1    
    20   12   11 1    
    21   13   12 2    
    22   22   12 1    
    23   14   13 1    
    24   31   13 1    
    25   15   14 1    
    26   18   14 1    
    27   19   14 1    
    28   16   15 ar   
    29   17   15 ar   
    30   39   18 1    
    31   20   19 1    
    32   32   19 1    
    33   33   19 1    
    34   21   20 1    
    35   22   20 1    
    36   34   20 1    
    37   40   21 1    
    38   23   22 1    
    39   35   22 1    
    40   41   23 1    
    41   36   24 1    
    42   37   24 1    
    43   38   24 1    
@<TRIPOS>SUBSTRUCTURE
     1 CB61154     1 GROUP   
@<TRIPOS>SET

