#    Name: 3npc_B96_1_INTS_M
#    Modification time : Tue Mar 25 01:56:22 2014

@<TRIPOS>MOLECULE
3npc_B96_1_INTS_M
  119     0     9     0     0
SMALL
NO_CHARGES


@<TRIPOS>ATOM
      1 N          52.7190   47.4810    9.8780 N.am      2 SEC2        0.0000 
      2 N          53.9930   48.1800    9.9410 N.am      8 SEL2        0.0000 
      3 N          51.4450   46.7820    9.8150 N.am      5 SEP2        0.0000 
      4 O          56.9625   47.3730   11.0125 O.2       1 ALC1        0.0000 
      5 O          55.8600   48.2360   11.1640 O.2       7 ALL1        0.0000 
      6 O          58.0650   46.5100   10.8610 O.2       4 ALP1        0.0000 
      7 CA         58.5170   52.0585    9.9705 C.3       3 GLC5        0.0000 
      8 CA         57.9950   51.7930   12.0920 C.3       9 GLL5        0.0000 
      9 CA         59.0390   52.3240    7.8490 C.3       6 GLP5        0.0000 
     10 CA         56.1280   52.5555   15.6935 C.3       3 GLC5        0.0000 
     11 CA         56.2960   52.4300   13.6800 C.3       9 GLL5        0.0000 
     12 CA         55.9600   52.6810   17.7070 C.3       6 GLP5        0.0000 
     13 CA         52.1760   50.5825   12.5265 C.3       3 GLC5        0.0000 
     14 CA         53.6760   49.8000   13.6980 C.3       9 GLL5        0.0000 
     15 CA         50.6760   51.3650   11.3550 C.3       6 GLP5        0.0000 
     16 CA         52.0465   48.9940   12.2760 C.3       3 GLC5        0.0000 
     17 CA         54.2040   48.9310   12.7500 C.3       9 GLL5        0.0000 
     18 CA         49.8890   49.0570   11.8020 C.3       6 GLP5        0.0000 
     19 O          56.8565   46.6435   10.1235 O.2       1 ALC1        0.0000 
     20 O          55.6480   46.7770    9.3860 O.2       7 ALL1        0.0000 
     21 CA         53.8725   48.3855    6.9590 C.3       3 GLC5        0.0000 
     22 CA         54.2400   46.5870    7.3270 C.3       9 GLL5        0.0000 
     23 CA         53.5050   50.1840    6.5910 C.3       6 GLP5        0.0000 
     24 CA         52.3770   47.6190    7.9425 C.3       3 GLC5        0.0000 
     25 CA         50.5140   48.6510    8.5580 C.3       6 GLP5        0.0000 
     26 CA         52.9470   47.9630    3.5435 C.3       3 GLC5        0.0000 
     27 CA         53.8320   45.9910    4.1080 C.3       9 GLL5        0.0000 
     28 CA         52.0620   49.9350    2.9790 C.3       6 GLP5        0.0000 
     29 CA         52.5680   43.0615    3.3220 C.3       3 GLC5        0.0000 
     30 CA         52.3840   44.1580    5.0340 C.3       9 GLL5        0.0000 
     31 CA         52.7520   41.9650    1.6100 C.3       6 GLP5        0.0000 
     32 CA         50.4675   44.2530    5.4625 C.3       3 GLC5        0.0000 
     33 CA         48.5510   44.3480    5.8910 C.3       6 GLP5        0.0000 
     34 CA         51.9325   48.2315    4.2350 C.3       3 GLC5        0.0000 
     35 CA         51.8030   46.5280    5.4910 C.3       9 GLL5        0.0000 
     36 CA         52.6540   48.3560    6.0410 C.3       3 GLC5        0.0000 
     37 CA         51.6505   46.2360    3.3810 C.3       3 GLC5        0.0000 
     38 CA         51.4980   45.9440    1.2710 C.3       6 GLP5        0.0000 
     39 CA         50.1770   45.4380    5.6910 C.3       3 GLC5        0.0000 
     40 CA         49.6915   47.0700    5.5470 C.3       3 GLC5        0.0000 
     41 CA         47.5800   47.6120    5.6030 C.3       6 GLP5        0.0000 
     42 CA         51.1585   47.5895    7.0245 C.3       3 GLC5        0.0000 
     43 CA         58.3025   43.2125    7.9210 C.3       3 GLC5        0.0000 
     44 CA         56.4310   42.7670    8.2300 C.3       9 GLL5        0.0000 
     45 CA         60.1740   43.6580    7.6120 C.3       6 GLP5        0.0000 
     46 CA         59.2225   39.6055   11.7045 C.3       3 GLC5        0.0000 
     47 CA         57.7560   40.7120   11.1040 C.3       9 GLL5        0.0000 
     48 CA         60.6890   38.4990   12.3050 C.3       6 GLP5        0.0000 
     49 CA         51.5915   51.4840   13.3510 C.3       3 GLC5        0.0000 
     50 CA         52.5070   51.6030   15.3470 C.3       9 GLL5        0.0000 
     51 CA         52.4175   50.5290   16.7805 C.3       3 GLC5        0.0000 
     52 CA         52.3280   49.4550   18.2140 C.3       6 GLP5        0.0000 
     53 CA         52.5410   54.0000   17.7865 C.3       3 GLC5        0.0000 
     54 CA         52.0470   52.8360   16.1360 C.3       9 GLL5        0.0000 
     55 CA         53.0350   55.1640   19.4370 C.3       6 GLP5        0.0000 
     56 CA         51.5160   51.1850   17.0140 C.3       3 GLC5        0.0000 
     57 CA         50.9850   49.5340   17.8920 C.3       6 GLP5        0.0000 
     58 CA         53.7605   55.0915   14.7820 C.3       3 GLC5        0.0000 
     59 CA         52.0140   54.3100   14.2390 C.3       9 GLL5        0.0000 
     60 CA         55.5070   55.8730   15.3250 C.3       6 GLP5        0.0000 
     61 CA         51.8450   57.3495   13.5695 C.3       3 GLC5        0.0000 
     62 CA         51.1380   55.2660   13.4220 C.3       9 GLL5        0.0000 
     63 CA         52.5520   59.4330   13.7170 C.3       6 GLP5        0.0000 
     64 CA         50.1830   56.3120   12.2065 C.3       3 GLC5        0.0000 
     65 CA         49.2280   57.3580   10.9910 C.3       6 GLP5        0.0000 
     66 CA         49.3215   54.2370   13.0660 C.3       3 GLC5        0.0000 
     67 CA         47.5050   53.2080   12.7100 C.3       6 GLP5        0.0000 
     68 N          50.5280   57.6015   13.7265 N.am      2 SEC2        0.0000 
     69 N          50.7840   56.3550   14.2750 N.am      8 SEL2        0.0000 
     70 N          50.2720   58.8480   13.1780 N.am      5 SEP2        0.0000 
     71 CA         49.1615   56.8460   13.7545 C.3       3 GLC5        0.0000 
     72 CA         49.9840   55.8710   15.3710 C.3       9 GLL5        0.0000 
     73 CA         48.3390   57.8210   12.1380 C.3       6 GLP5        0.0000 
     74 CA         51.9045   55.0045   17.8175 C.3       3 GLC5        0.0000 
     75 CA         50.7740   54.8450   16.1980 C.3       9 GLL5        0.0000 
     76 CA         55.5820   50.5072   10.5418 C.3       3 GLC5        0.0000 
     77 CA         56.1180   50.3550   12.4040 C.3       9 GLL5        0.0000 
     78 CA         55.4070   51.2420    8.8370 C.3       6 GLP5        0.0000 
     79 CA         55.6840   50.6750   15.6740 C.3       3 GLC5        0.0000 
     80 CA         55.5790   51.2550   13.3750 C.3       9 GLL5        0.0000 
     81 CA         56.4070   50.2430   17.6530 C.3       6 GLP5        0.0000 
     82 CA         57.7037   51.1243   14.3518 C.3       3 GLC5        0.0000 
     83 CA         59.4700   50.4060   15.1760 C.3       6 GLP5        0.0000 
     84 CA         54.4065   52.5550   12.3195 C.3       3 GLC5        0.0000 
     85 CA         53.8520   54.0030   10.9440 C.3       6 GLP5        0.0000 
     86 CA         57.6103   49.1636   13.2381 C.3       3 GLC5        0.0000 
     87 CA         58.6730   48.1130   14.4680 C.3       6 GLP5        0.0000 
     88 CA         56.5367   51.2332   10.3840 C.3       3 GLC5        0.0000 
     89 CA         57.3380   50.6560   11.7700 C.3       9 GLL5        0.0000 
     90 CA         59.6183   51.2597   11.6765 C.3       3 GLC5        0.0000 
     91 CA         61.5700   51.2950   11.4220 C.3       6 GLP5        0.0000 
     92 CA         58.6033   51.3190   13.8727 C.3       3 GLC5        0.0000 
     93 CA         56.1970   54.2117   14.3442 C.3       3 GLC5        0.0000 
     94 CA         57.4780   52.6710   13.0470 C.3       9 GLL5        0.0000 
     95 CA         56.1316   53.7015   12.2214 C.3       3 GLC5        0.0000 
     96 CA         55.2470   55.0720   11.3180 C.3       6 GLP5        0.0000 
     97 CA         52.8290   47.7397   13.7585 C.3       3 GLC5        0.0000 
     98 CA         51.7180   46.1140   14.2930 C.3       6 GLP5        0.0000 
     99 CA         55.7725   47.6000    6.8065 C.3       3 GLC5        0.0000 
    100 CA         55.0160   46.0950    8.3370 C.3       9 GLL5        0.0000 
    101 CA         56.9170   48.8590    5.7810 C.3       6 GLP5        0.0000 
    102 CA         53.3135   45.3605    8.7725 C.3       3 GLC5        0.0000 
    103 CA         51.9990   44.3800    9.7130 C.3       6 GLP5        0.0000 
    104 CA         57.5823   44.6200    9.4230 C.3       3 GLC5        0.0000 
    105 CA         55.7500   43.7760    8.9090 C.3       9 GLL5        0.0000 
    106 CA         59.4420   45.4590    9.2440 C.3       6 GLP5        0.0000 
    107 CA         53.8607   44.0805    9.6575 C.3       3 GLC5        0.0000 
    108 CA         52.1949   45.4541    3.0686 C.3       3 GLC5        0.0000 
    109 CA         52.9670   45.5500    5.2890 C.3       9 GLL5        0.0000 
    110 CA         56.8210   41.8905    6.7020 C.3       3 GLC5        0.0000 
    111 CA         56.8870   41.5080    4.8200 C.3       6 GLP5        0.0000 
    112 CA         58.4139   43.1999    9.6981 C.3       3 GLC5        0.0000 
    113 CA         57.0790   41.7790    8.9380 C.3       9 GLL5        0.0000 
    114 CA         60.1270   44.1130    9.0780 C.3       6 GLP5        0.0000 
    115 CA         54.1185   52.4502   16.7243 C.3       3 GLC5        0.0000 
    116 CA         52.7140   54.3955   12.3872 C.3       3 GLC5        0.0000 
    117 CA         51.1260   53.0765   12.5928 C.3       3 GLC5        0.0000 
    118 CA         51.5765   56.8040   16.2628 C.3       3 GLC5        0.0000 
    119 CA         52.7740   58.2500   16.7410 C.3       6 GLP5        0.0000 
@<TRIPOS>BOND
@<TRIPOS>SUBSTRUCTURE
     1 ALC1        4 GROUP        1 X    ALC  0     ROOT ALC X 1
     2 SEC2        1 GROUP        1 X    SEC  0     **** SEC X 2
     3 GLC5        7 GROUP        1 X    GLC  0     **** GLC X 6
     4 ALP1        6 GROUP        1 Y    ALP  0     ROOT ALP Y 8
     5 SEP2        3 GROUP        1 Y    SEP  0     **** SEP Y 9
     6 GLP5        9 GROUP        1 Y    GLP  0     **** GLP Y 13
     7 ALL1        5 GROUP        1 Z    ALL  0     ROOT ALL Z 15
     8 SEL2        2 GROUP        1 Z    SEL  0     **** SEL Z 16
     9 GLL5        8 GROUP        1 Z    GLL  0     **** GLL Z 20
@<TRIPOS>SET

