#    Name: 3npc_B96_1_ligand
#    Modification time : Tue Mar 25 01:56:22 2014

@<TRIPOS>MOLECULE
3npc_B96_1_ligand
   77    81     1     0     0
SMALL
NO_CHARGES


@<TRIPOS>ATOM
      1 C1         55.1090   47.7460   10.1500 C.2       1 B96365      0.0000 
      2 O1         53.9930   48.1800    9.9410 O.2       1 B96365      0.0000 
      3 N2         55.8600   48.2360   11.1640 N.am      1 B96365      0.0000 
      4 C3         55.3960   49.1900   12.0890 C.ar      1 B96365      0.0000 
      5 C4         56.1180   50.3550   12.4040 C.ar      1 B96365      0.0000 
      6 C5         55.5790   51.2550   13.3750 C.ar      1 B96365      0.0000 
      7 C6         54.3430   50.9590   14.0150 C.ar      1 B96365      0.0000 
      8 C31        57.3380   50.6560   11.7700 C.ar      1 B96365      0.0000 
      9 C32        57.9950   51.7930   12.0920 C.ar      1 B96365      0.0000 
     10 C33        57.4780   52.6710   13.0470 C.ar      1 B96365      0.0000 
     11 C34        56.2960   52.4300   13.6800 C.ar      1 B96365      0.0000 
     12 C7         53.6760   49.8000   13.6980 C.ar      1 B96365      0.0000 
     13 C8         54.2040   48.9310   12.7500 C.ar      1 B96365      0.0000 
     14 N9         55.6480   46.7770    9.3860 N.am      1 B96365      0.0000 
     15 C10        55.0160   46.0950    8.3370 C.2       1 B96365      0.0000 
     16 C14        54.2400   46.5870    7.3270 C.2       1 B96365      0.0000 
     17 C13        53.8390   45.5070    6.5200 C.2       1 B96365      0.0000 
     18 N12        54.3430   44.4170    7.0110 N.2       1 B96365      0.0000 
     19 N11        55.0820   44.7430    8.1500 N.pl3     1 B96365      0.0000 
     20 C15        55.7500   43.7760    8.9090 C.ar      1 B96365      0.0000 
     21 C17        53.8320   45.9910    4.1080 C.3       1 B96365      0.0000 
     22 C18        52.3840   44.1580    5.0340 C.3       1 B96365      0.0000 
     23 C19        51.8030   46.5280    5.4910 C.3       1 B96365      0.0000 
     24 C16        52.9670   45.5500    5.2890 C.3       1 B96365      0.0000 
     25 C20        56.4310   42.7670    8.2300 C.ar      1 B96365      0.0000 
     26 C21        57.0790   41.7790    8.9380 C.ar      1 B96365      0.0000 
     27 C22        57.0340   41.7900   10.3270 C.ar      1 B96365      0.0000 
     28 C23        56.3450   42.7890   11.0040 C.ar      1 B96365      0.0000 
     29 C24        55.6950   43.7860   10.2950 C.ar      1 B96365      0.0000 
     30 C25        57.7560   40.7120   11.1040 C.3       1 B96365      0.0000 
     31 O41        53.8680   51.8360   14.9470 O.3       1 B96365      0.0000 
     32 C42        52.5070   51.6030   15.3470 C.3       1 B96365      0.0000 
     33 C43        52.0470   52.8360   16.1360 C.3       1 B96365      0.0000 
     34 N44        51.2040   53.7350   15.3300 N.4       1 B96365      0.0000 
     35 C45        52.0140   54.3100   14.2390 C.3       1 B96365      0.0000 
     36 C46        51.1380   55.2660   13.4220 C.3       1 B96365      0.0000 
     37 O47        50.7840   56.3550   14.2750 O.3       1 B96365      0.0000 
     38 C48        49.9840   55.8710   15.3710 C.3       1 B96365      0.0000 
     39 C49        50.7740   54.8450   16.1980 C.3       1 B96365      0.0000 
     40 H          56.8544   47.8968   11.2868 H         1 B96365      0.0000 
     41 H          57.7068   49.9986   11.0691 H         1 B96365      0.0000 
     42 H          58.8965   52.0339   11.6346 H         1 B96365      0.0000 
     43 H          58.0242   53.5331   13.2722 H         1 B96365      0.0000 
     44 H          55.9143   53.0813   14.3727 H         1 B96365      0.0000 
     45 H          52.7834   49.5685   14.1594 H         1 B96365      0.0000 
     46 H          53.6838   48.0520   12.5283 H         1 B96365      0.0000 
     47 H          56.6669   46.4809    9.5844 H         1 B96365      0.0000 
     48 H          53.9999   47.4927    7.1755 H         1 B96365      0.0000 
     49 H          56.4453   42.7667    7.2008 H         1 B96365      0.0000 
     50 H          57.5934   41.0369    8.4480 H         1 B96365      0.0000 
     51 H          56.3187   42.7865   12.0333 H         1 B96365      0.0000 
     52 H          55.1801   44.5216   10.7873 H         1 B96365      0.0000 
     53 H          52.4181   50.7386   15.9953 H         1 B96365      0.0000 
     54 H          51.8486   51.4871   14.4935 H         1 B96365      0.0000 
     55 H          52.9433   53.3658   16.4941 H         1 B96365      0.0000 
     56 H          51.4989   52.4872   17.0250 H         1 B96365      0.0000 
     57 H          50.3666   53.2220   14.9447 H         1 B96365      0.0000 
     58 H          52.3810   53.5297   13.5786 H         1 B96365      0.0000 
     59 H          52.8557   54.8692   14.6371 H         1 B96365      0.0000 
     60 H          50.2672   54.7123   13.0831 H         1 B96365      0.0000 
     61 H          51.7141   55.5918   12.5608 H         1 B96365      0.0000 
     62 H          49.0701   55.3802   15.0162 H         1 B96365      0.0000 
     63 H          49.6886   56.6847   16.0438 H         1 B96365      0.0000 
     64 H          51.6339   55.3491   16.6370 H         1 B96365      0.0000 
     65 H          50.1307   54.4835   16.9991 H         1 B96365      0.0000 
     66 H          54.2315   46.8954    4.2576 H         1 B96365      0.0000 
     67 H          54.5898   45.3589    3.9462 H         1 B96365      0.0000 
     68 H          53.3050   46.0400    3.2595 H         1 B96365      0.0000 
     69 H          53.1008   43.4759    4.8894 H         1 B96365      0.0000 
     70 H          51.8288   43.8413    5.8031 H         1 B96365      0.0000 
     71 H          51.7979   44.1435    4.2239 H         1 B96365      0.0000 
     72 H          52.1256   47.4584    5.6650 H         1 B96365      0.0000 
     73 H          51.2088   46.5692    4.6877 H         1 B96365      0.0000 
     74 H          51.2290   46.2669    6.2671 H         1 B96365      0.0000 
     75 H          58.7373   40.7094   10.9114 H         1 B96365      0.0000 
     76 H          57.6514   40.8325   12.0912 H         1 B96365      0.0000 
     77 H          57.4112   39.8000   10.8819 H         1 B96365      0.0000 
@<TRIPOS>BOND
     1    2    1 2    
     2    3    1 am   
     3   14    1 am   
     4    4    3 1    
     5   40    3 1    
     6    5    4 ar   
     7   13    4 ar   
     8    6    5 ar   
     9    8    5 ar   
    10    7    6 ar   
    11   11    6 ar   
    12   12    7 ar   
    13   31    7 1    
    14    9    8 ar   
    15   41    8 1    
    16   10    9 ar   
    17   42    9 1    
    18   11   10 ar   
    19   43   10 1    
    20   44   11 1    
    21   13   12 ar   
    22   45   12 1    
    23   46   13 1    
    24   15   14 1    
    25   47   14 1    
    26   16   15 2    
    27   19   15 1    
    28   17   16 1    
    29   48   16 1    
    30   18   17 2    
    31   24   17 1    
    32   19   18 1    
    33   20   19 1    
    34   25   20 ar   
    35   29   20 ar   
    36   24   21 1    
    37   66   21 1    
    38   67   21 1    
    39   68   21 1    
    40   24   22 1    
    41   69   22 1    
    42   70   22 1    
    43   71   22 1    
    44   24   23 1    
    45   72   23 1    
    46   73   23 1    
    47   74   23 1    
    48   26   25 ar   
    49   49   25 1    
    50   27   26 ar   
    51   50   26 1    
    52   28   27 ar   
    53   30   27 1    
    54   29   28 ar   
    55   51   28 1    
    56   52   29 1    
    57   75   30 1    
    58   76   30 1    
    59   77   30 1    
    60   32   31 1    
    61   33   32 1    
    62   53   32 1    
    63   54   32 1    
    64   34   33 1    
    65   55   33 1    
    66   56   33 1    
    67   35   34 1    
    68   39   34 1    
    69   57   34 1    
    70   36   35 1    
    71   58   35 1    
    72   59   35 1    
    73   37   36 1    
    74   60   36 1    
    75   61   36 1    
    76   38   37 1    
    77   39   38 1    
    78   62   38 1    
    79   63   38 1    
    80   64   39 1    
    81   65   39 1    
@<TRIPOS>SUBSTRUCTURE
     1 B96365      1 GROUP   
@<TRIPOS>SET

