#    Name: 3jzk_YIN_1_INTS_M
#    Modification time : Mon Mar 24 17:43:22 2014

@<TRIPOS>MOLECULE
3jzk_YIN_1_INTS_M
   62     0     3     0     0
SMALL
NO_CHARGES


@<TRIPOS>ATOM
      1 CA         12.2385  -14.0505   29.9055 C.3       1 GLC5        0.0000 
      2 CA         10.3610  -13.8190   30.0390 C.3       3 GLL5        0.0000 
      3 CA         14.1160  -14.2820   29.7720 C.3       2 GLP5        0.0000 
      4 CA          9.4155  -12.1430   30.1050 C.3       1 GLC5        0.0000 
      5 CA          8.4700  -10.4670   30.1710 C.3       2 GLP5        0.0000 
      6 CA          9.7490  -14.2285   31.7195 C.3       1 GLC5        0.0000 
      7 CA          9.1370  -14.6380   33.4000 C.3       2 GLP5        0.0000 
      8 CA          4.1345  -11.3745   27.3820 C.3       1 GLC5        0.0000 
      9 CA          6.0780  -10.4650   27.3190 C.3       3 GLL5        0.0000 
     10 CA          2.1910  -12.2840   27.4450 C.3       2 GLP5        0.0000 
     11 CA          5.7095   -8.8150   28.0980 C.3       1 GLC5        0.0000 
     12 CA          5.3410   -7.1650   28.8770 C.3       2 GLP5        0.0000 
     13 CA          6.6845   -8.8120   26.4045 C.3       1 GLC5        0.0000 
     14 CA          7.2910   -7.1590   25.4900 C.3       2 GLP5        0.0000 
     15 CA          7.2740  -10.4660   28.7450 C.3       1 GLC5        0.0000 
     16 CA          7.9630  -14.7920   29.1815 C.3       1 GLC5        0.0000 
     17 CA          9.5530  -16.0100   28.3530 C.3       3 GLL5        0.0000 
     18 CA          6.3730  -13.5740   30.0100 C.3       2 GLP5        0.0000 
     19 CA         10.5775  -12.0670   27.5820 C.3       1 GLC5        0.0000 
     20 CA         10.6280  -13.9280   27.3240 C.3       3 GLL5        0.0000 
     21 CA         10.5270  -10.2060   27.8400 C.3       2 GLP5        0.0000 
     22 CA         11.0275  -13.6010   22.5015 C.3       1 GLC5        0.0000 
     23 CA          9.4760  -15.1150   22.3550 C.3       3 GLL5        0.0000 
     24 CA         12.5790  -12.0870   22.6480 C.3       2 GLP5        0.0000 
     25 CA          7.9850  -11.0745   18.2865 C.3       1 GLC5        0.0000 
     26 CA          8.1400  -12.9550   19.4880 C.3       3 GLL5        0.0000 
     27 CA          7.8300   -9.1940   17.0850 C.3       2 GLP5        0.0000 
     28 CA          9.0940  -10.8970   26.5830 C.3       1 GLC5        0.0000 
     29 CA          7.6610  -11.5880   25.3260 C.3       3 GLL5        0.0000 
     30 CA          4.0345  -12.6625   26.9635 C.3       1 GLC5        0.0000 
     31 CA          5.8780  -13.0410   26.4820 C.3       3 GLL5        0.0000 
     32 CA          8.3083  -13.9187   29.6105 C.3       1 GLC5        0.0000 
     33 CA         10.1260  -14.7080   28.3830 C.3       3 GLL5        0.0000 
     34 CA          6.3535  -12.3518   28.4030 C.3       1 GLC5        0.0000 
     35 CA          6.5900  -11.7940   26.2730 C.3       3 GLL5        0.0000 
     36 CA         11.1200  -12.8790   25.1940 C.3       1 GLC5        0.0000 
     37 CA         11.6380  -11.5370   23.7080 C.3       2 GLP5        0.0000 
     38 CA         12.2928  -14.1475   27.7149 C.3       1 GLC5        0.0000 
     39 CA         10.5760  -14.5140   26.0360 C.3       3 GLL5        0.0000 
     40 CA         14.1090  -13.8790   28.4850 C.3       2 GLP5        0.0000 
     41 CA          5.4425  -14.6295   24.0703 C.3       1 GLC5        0.0000 
     42 CA          7.3350  -13.9900   24.7200 C.3       3 GLL5        0.0000 
     43 CA          3.4390  -14.6270   23.8110 C.3       2 GLP5        0.0000 
     44 CA          9.7022  -12.3760   21.9625 C.3       1 GLC5        0.0000 
     45 CA          8.6210  -14.4320   21.4110 C.3       3 GLL5        0.0000 
     46 CA         10.5270  -10.7290   23.0600 C.3       2 GLP5        0.0000 
     47 CA          6.6380  -14.4165   18.6335 C.3       1 GLC5        0.0000 
     48 CA          6.7380  -13.1050   19.7220 C.3       3 GLL5        0.0000 
     49 CA          5.8370  -15.8030   17.6620 C.3       2 GLP5        0.0000 
     50 CA          5.0835  -14.4398   22.5198 C.3       1 GLC5        0.0000 
     51 CA          6.2480  -13.9250   20.8090 C.3       3 GLL5        0.0000 
     52 CA          5.8658  -11.8763   20.2590 C.3       1 GLC5        0.0000 
     53 CA          4.8880  -10.2750   20.3110 C.3       2 GLP5        0.0000 
     54 CA          6.2825  -15.0278   19.4453 C.3       1 GLC5        0.0000 
     55 CA          6.2243  -13.5900   28.0453 C.3       1 GLC5        0.0000 
     56 CA          6.2730  -14.1710   25.6790 C.3       3 GLL5        0.0000 
     57 CA          4.7572  -14.1165   24.9457 C.3       1 GLC5        0.0000 
     58 CA          6.5213  -11.1480   24.1510 C.3       1 GLC5        0.0000 
     59 CA          8.0400  -12.7240   24.5300 C.3       3 GLL5        0.0000 
     60 CA          5.1920  -10.1400   23.3740 C.3       2 GLP5        0.0000 
     61 CA          9.1887  -11.4425   23.9940 C.3       1 GLC5        0.0000 
     62 CA          5.6490  -11.1126   25.0065 C.3       1 GLC5        0.0000 
@<TRIPOS>BOND
@<TRIPOS>SUBSTRUCTURE
     1 GLC5        1 GROUP        1 X    GLC  0     ROOT GLC X 6
     2 GLP5        3 GROUP        1 Y    GLP  0     ROOT GLP Y 13
     3 GLL5        2 GROUP        1 Z    GLL  0     ROOT GLL Z 20
@<TRIPOS>SET

