#    Name: 3jzk_YIN_1_ligand
#    Modification time : Mon Mar 24 17:43:22 2014

@<TRIPOS>MOLECULE
3jzk_YIN_1_ligand
   48    53     1     0     0
SMALL
NO_CHARGES


@<TRIPOS>ATOM
      1 C1         10.0160  -15.8340   25.9040 C.ar      1 YIN1        0.0000 
      2 N1         11.3370  -16.6150   24.0060 N.pl3     1 YIN1        0.0000 
      3 O1          6.7510  -15.3200   22.7390 O.3       1 YIN1        0.0000 
      4 BR1        10.3610  -13.8190   30.0390 Br        1 YIN1        0.0000 
      5 C2          9.4980  -16.6000   27.0400 C.ar      1 YIN1        0.0000 
      6 N2         13.0110  -16.4650   22.7090 N.pl3     1 YIN1        0.0000 
      7 BR2         6.0780  -10.4650   27.3190 Br        1 YIN1        0.0000 
      8 C3          9.5530  -16.0100   28.3530 C.ar      1 YIN1        0.0000 
      9 N3         10.8510  -15.3140   21.9490 N.2       1 YIN1        0.0000 
     10 C4         10.1260  -14.7080   28.3830 C.ar      1 YIN1        0.0000 
     11 N4         12.2740  -17.2910   24.6340 N.pl3     1 YIN1        0.0000 
     12 C5         10.6280  -13.9280   27.3240 C.ar      1 YIN1        0.0000 
     13 C6         10.5760  -14.5140   26.0360 C.ar      1 YIN1        0.0000 
     14 C7          7.5570  -15.2740   23.9390 C.3       1 YIN1        0.0000 
     15 C8         13.3460  -17.1960   23.8070 C.2       1 YIN1        0.0000 
     16 C9          9.0140  -15.5700   23.5600 C.2       1 YIN1        0.0000 
     17 C10         9.9510  -16.4060   24.5430 C.3       1 YIN1        0.0000 
     18 C11        11.7460  -16.0910   22.8150 C.2       1 YIN1        0.0000 
     19 C12         9.4760  -15.1150   22.3550 C.2       1 YIN1        0.0000 
     20 C13         9.1340  -13.6140   20.3190 C.ar      1 YIN1        0.0000 
     21 C14         8.1400  -12.9550   19.4880 C.ar      1 YIN1        0.0000 
     22 C15         6.7380  -13.1050   19.7220 C.ar      1 YIN1        0.0000 
     23 C16         6.2480  -13.9250   20.8090 C.ar      1 YIN1        0.0000 
     24 C17         7.2080  -14.5800   21.6480 C.ar      1 YIN1        0.0000 
     25 C18         8.6210  -14.4320   21.4110 C.ar      1 YIN1        0.0000 
     26 C19         6.2730  -14.1710   25.6790 C.ar      1 YIN1        0.0000 
     27 C20         7.3350  -13.9900   24.7200 C.ar      1 YIN1        0.0000 
     28 C21         8.0400  -12.7240   24.5300 C.ar      1 YIN1        0.0000 
     29 C22         7.6610  -11.5880   25.3260 C.ar      1 YIN1        0.0000 
     30 C23         6.5900  -11.7940   26.2730 C.ar      1 YIN1        0.0000 
     31 C24         5.8780  -13.0410   26.4820 C.ar      1 YIN1        0.0000 
     32 H           9.1171  -17.5108   26.8959 H         1 YIN1        0.0000 
     33 H          13.6176  -16.2627   21.9781 H         1 YIN1        0.0000 
     34 H           9.2243  -16.4694   29.1454 H         1 YIN1        0.0000 
     35 H          12.2374  -17.7422   25.4595 H         1 YIN1        0.0000 
     36 H          10.9990  -13.0166   27.4682 H         1 YIN1        0.0000 
     37 H          10.9193  -14.0286   25.2256 H         1 YIN1        0.0000 
     38 H           7.2322  -16.1213   24.5957 H         1 YIN1        0.0000 
     39 H          14.2172  -17.5878   23.9713 H         1 YIN1        0.0000 
     40 H           9.4717  -17.4136   24.6195 H         1 YIN1        0.0000 
     41 H          10.0945  -13.5152   20.1560 H         1 YIN1        0.0000 
     42 H           8.4648  -12.3668   18.7129 H         1 YIN1        0.0000 
     43 H           6.0671  -12.6305   19.1186 H         1 YIN1        0.0000 
     44 H           5.2672  -14.0277   20.9650 H         1 YIN1        0.0000 
     45 H           5.8232  -15.0565   25.7837 H         1 YIN1        0.0000 
     46 H           8.7749  -12.6593   23.8526 H         1 YIN1        0.0000 
     47 H           8.1067  -10.7135   25.2326 H         1 YIN1        0.0000 
     48 H           5.1505  -13.1084   27.1506 H         1 YIN1        0.0000 
@<TRIPOS>BOND
     1    5    1 ar   
     2   13    1 ar   
     3   17    1 1    
     4   11    2 1    
     5   17    2 1    
     6   18    2 1    
     7   14    3 1    
     8   24    3 1    
     9   10    4 1    
    10    8    5 ar   
    11   32    5 1    
    12   15    6 1    
    13   18    6 1    
    14   33    6 1    
    15   30    7 1    
    16   10    8 ar   
    17   34    8 1    
    18   18    9 2    
    19   19    9 1    
    20   12   10 ar   
    21   15   11 2    
    22   35   11 1    
    23   13   12 ar   
    24   36   12 1    
    25   37   13 1    
    26   16   14 1    
    27   27   14 1    
    28   38   14 1    
    29   39   15 1    
    30   17   16 1    
    31   19   16 2    
    32   40   17 1    
    33   25   19 1    
    34   21   20 ar   
    35   25   20 ar   
    36   41   20 1    
    37   22   21 ar   
    38   42   21 1    
    39   23   22 ar   
    40   43   22 1    
    41   24   23 ar   
    42   44   23 1    
    43   25   24 ar   
    44   27   26 ar   
    45   31   26 ar   
    46   45   26 1    
    47   28   27 ar   
    48   29   28 ar   
    49   46   28 1    
    50   30   29 ar   
    51   47   29 1    
    52   31   30 ar   
    53   48   31 1    
@<TRIPOS>SUBSTRUCTURE
     1 YIN1        1 GROUP   
@<TRIPOS>SET

