#    Name: 2cci_ATP_2_INTS_M
#    Modification time : Mon Mar 24 23:27:32 2014

@<TRIPOS>MOLECULE
2cci_ATP_2_INTS_M
   46     0    15     0     0
SMALL
NO_CHARGES


@<TRIPOS>ATOM
      1 Zn         17.1470   25.7370   54.5770 Zn        4 ZIC7        0.0000 
      2 Zn         17.9720   25.5440   54.1970 Zn       14 ZIL7        0.0000 
      3 Zn         16.3220   25.9300   54.9570 Zn        9 ZIP7        0.0000 
      4 N          17.3045   24.7505   55.3210 N.am      2 SEC2        0.0000 
      5 N          17.9720   25.5440   54.1970 N.am     12 SEL2        0.0000 
      6 N          16.6370   23.9570   56.4450 N.am      7 SEP2        0.0000 
      7 N          17.7090   23.7180   55.3120 N.am      2 SEC2        0.0000 
      8 N          18.7810   23.4790   54.1790 N.am     12 SEL2        0.0000 
      9 NZ         20.6995   20.9480   56.2720 N.4       3 LYC4        0.0000 
     10 NZ         20.1100   21.4820   55.1330 N.4      13 LYL4        0.0000 
     11 NZ         21.2890   20.4140   57.4110 N.4       8 LYP4        0.0000 
     12 N          20.6995   20.9480   56.2720 N.am      2 SEC2        0.0000 
     13 N          20.1100   21.4820   55.1330 N.am     12 SEL2        0.0000 
     14 N          21.2890   20.4140   57.4110 N.am      7 SEP2        0.0000 
     15 CA         23.3070   23.6975   53.2895 C.3       5 GLC5        0.0000 
     16 CA         21.4680   24.2160   52.7930 C.3      15 GLL5        0.0000 
     17 CA         25.1460   23.1790   53.7860 C.3      10 GLP5        0.0000 
     18 CA         22.9125   25.0240   50.6085 C.3       5 GLC5        0.0000 
     19 CA         21.3180   24.0740   51.2930 C.3      15 GLL5        0.0000 
     20 CA         24.5070   25.9740   49.9240 C.3      10 GLP5        0.0000 
     21 CA         18.8430   22.4005   48.2885 C.3       5 GLC5        0.0000 
     22 CA         20.3230   22.5990   49.7000 C.3      15 GLL5        0.0000 
     23 CA         17.3630   22.2020   46.8770 C.3      10 GLP5        0.0000 
     24 CA         19.3175   20.8510   49.3795 C.3       5 GLC5        0.0000 
     25 CA         18.3120   19.1030   49.0590 C.3      10 GLP5        0.0000 
     26 CA         23.0325   22.0720   48.4310 C.3       5 GLC5        0.0000 
     27 CA         21.7880   22.2450   49.8950 C.3      15 GLL5        0.0000 
     28 CA         24.2770   21.8990   46.9670 C.3      10 GLP5        0.0000 
     29 O          22.5570   14.8640   51.0640 O.2       1 ALC1        0.0000 
     30 O          22.1820   16.2280   51.1230 O.2      11 ALL1        0.0000 
     31 O          22.9320   13.5000   51.0050 O.2       6 ALP1        0.0000 
     32 N          22.4030   15.7650   48.0005 N.am      2 SEC2        0.0000 
     33 N          22.4440   17.1220   48.9440 N.am     12 SEL2        0.0000 
     34 N          22.3620   14.4080   47.0570 N.am      7 SEP2        0.0000 
     35 CA         23.3805   20.0370   47.5330 C.3       5 GLC5        0.0000 
     36 CA         22.4840   18.1750   48.0990 C.3      15 GLL5        0.0000 
     37 CA         20.3980   18.6390   48.5790 C.3       5 GLC5        0.0000 
     38 CA         23.1690   20.8245   48.3685 C.3       5 GLC5        0.0000 
     39 CA         22.0610   19.7500   49.7700 C.3      15 GLL5        0.0000 
     40 CA         20.1865   19.4265   49.4145 C.3       5 GLC5        0.0000 
     41 CA         23.8818   17.5545   50.9055 C.3       5 GLC5        0.0000 
     42 CA         22.0030   18.6550   50.7570 C.3      15 GLL5        0.0000 
     43 CA         25.6540   17.1430   51.2980 C.3      10 GLP5        0.0000 
     44 CA         20.4593   17.4430   50.3560 C.3       5 GLC5        0.0000 
     45 CA         22.2160   17.2770   50.2690 C.3      15 GLL5        0.0000 
     46 CA         18.8090   16.9200   50.1990 C.3      10 GLP5        0.0000 
@<TRIPOS>BOND
@<TRIPOS>SUBSTRUCTURE
     1 ALC1       29 GROUP        1 X    ALC  0     ROOT ALC X 1
     2 SEC2        4 GROUP        1 X    SEC  0     **** SEC X 2
     3 LYC4        9 GROUP        1 X    LYC  0     **** LYC X 4
     4 ZIC7        1 GROUP        1 X    ZIC  0     **** ZIC X 5
     5 GLC5       15 GROUP        1 X    GLC  0     **** GLC X 6
     6 ALP1       31 GROUP        1 Y    ALP  0     ROOT ALP Y 8
     7 SEP2        6 GROUP        1 Y    SEP  0     **** SEP Y 9
     8 LYP4       11 GROUP        1 Y    LYP  0     **** LYP Y 11
     9 ZIP7        3 GROUP        1 Y    ZIP  0     **** ZIP Y 12
    10 GLP5       17 GROUP        1 Y    GLP  0     **** GLP Y 13
    11 ALL1       30 GROUP        1 Z    ALL  0     ROOT ALL Z 15
    12 SEL2        5 GROUP        1 Z    SEL  0     **** SEL Z 16
    13 LYL4       10 GROUP        1 Z    LYL  0     **** LYL Z 18
    14 ZIL7        2 GROUP        1 Z    ZIL  0     **** ZIL Z 19
    15 GLL5       16 GROUP        1 Z    GLL  0     **** GLL Z 20
@<TRIPOS>SET

