#    Name: 2cci_ATP_2_ligand
#    Modification time : Mon Mar 24 23:27:32 2014

@<TRIPOS>MOLECULE
2cci_ATP_2_ligand
   43    45     1     0     0
SMALL
NO_CHARGES


@<TRIPOS>ATOM
      1 PG         18.9970   26.6270   53.9480 P.3       1 ATP1297     0.0000 
      2 O1G        17.9720   25.5440   54.1970 O.co2     1 ATP1297     0.0000 
      3 O2G        19.4830   26.6950   52.5170 O.co2     1 ATP1297     0.0000 
      4 O3G        18.5910   27.9830   54.4980 O.co2     1 ATP1297     0.0000 
      5 PB         20.2680   25.3540   56.2070 P.3       1 ATP1297     0.0000 
      6 O1B        21.2860   25.9160   57.1650 O.co2     1 ATP1297     0.0000 
      7 O2B        18.8470   25.2740   56.7080 O.co2     1 ATP1297     0.0000 
      8 O3B        20.3040   26.2080   54.8280 O.3       1 ATP1297     0.0000 
      9 PA         20.1000   22.9160   54.6390 P.3       1 ATP1297     0.0000 
     10 O1A        18.7810   23.4790   54.1790 O.co2     1 ATP1297     0.0000 
     11 O2A        20.1100   21.4820   55.1330 O.co2     1 ATP1297     0.0000 
     12 O3A        20.7850   23.8830   55.7520 O.3       1 ATP1297     0.0000 
     13 O5'        21.1520   22.9850   53.4280 O.3       1 ATP1297     0.0000 
     14 C5'        21.4680   24.2160   52.7930 C.3       1 ATP1297     0.0000 
     15 C4'        21.3180   24.0740   51.2930 C.3       1 ATP1297     0.0000 
     16 O4'        22.3210   23.1710   50.8370 O.3       1 ATP1297     0.0000 
     17 C3'        19.9800   23.4860   50.8770 C.3       1 ATP1297     0.0000 
     18 O3'        19.0730   24.5230   50.4980 O.3       1 ATP1297     0.0000 
     19 C2'        20.3230   22.5990   49.7000 C.3       1 ATP1297     0.0000 
     20 O2'        20.1720   23.3050   48.4640 O.3       1 ATP1297     0.0000 
     21 C1'        21.7880   22.2450   49.8950 C.3       1 ATP1297     0.0000 
     22 N9         21.8450   20.8750   50.4580 N.pl3     1 ATP1297     0.0000 
     23 C8         21.6620   20.5520   51.7520 C.2       1 ATP1297     0.0000 
     24 N7         21.7560   19.2160   51.9490 N.2       1 ATP1297     0.0000 
     25 C5         22.0030   18.6550   50.7570 C.ar      1 ATP1297     0.0000 
     26 C6         22.2160   17.2770   50.2690 C.ar      1 ATP1297     0.0000 
     27 N6         22.1820   16.2280   51.1230 N.pl3     1 ATP1297     0.0000 
     28 N1         22.4440   17.1220   48.9440 N.ar      1 ATP1297     0.0000 
     29 C2         22.4840   18.1750   48.0990 C.ar      1 ATP1297     0.0000 
     30 N3         22.3000   19.4520   48.4730 N.ar      1 ATP1297     0.0000 
     31 C4         22.0610   19.7500   49.7700 C.ar      1 ATP1297     0.0000 
     32 H          22.5006   24.5282   53.0021 H         1 ATP1297     0.0000 
     33 H          20.8045   25.0268   53.1245 H         1 ATP1297     0.0000 
     34 H          21.4363   25.0330   50.8298 H         1 ATP1297     0.0000 
     35 H          19.6222   22.8778   51.6689 H         1 ATP1297     0.0000 
     36 H          19.7519   21.7132   49.7511 H         1 ATP1297     0.0000 
     37 H          22.2761   22.2870   48.9623 H         1 ATP1297     0.0000 
     38 H          21.4819   21.2036   52.4692 H         1 ATP1297     0.0000 
     39 H          22.3930   15.3332   50.7295 H         1 ATP1297     0.0000 
     40 H          21.9488   16.4405   52.0719 H         1 ATP1297     0.0000 
     41 H          22.6752   17.9755   47.0632 H         1 ATP1297     0.0000 
     42 H          19.1374   25.2027   51.2286 H         1 ATP1297     0.0000 
     43 H          19.8877   24.2273   48.7259 H         1 ATP1297     0.0000 
@<TRIPOS>BOND
     1    2    1 ar   
     2    3    1 ar   
     3    4    1 ar   
     4    8    1 1    
     5    6    5 ar   
     6    7    5 ar   
     7    8    5 1    
     8   12    5 1    
     9   10    9 ar   
    10   11    9 ar   
    11   12    9 1    
    12   13    9 1    
    13   14   13 1    
    14   15   14 1    
    15   32   14 1    
    16   33   14 1    
    17   16   15 1    
    18   17   15 1    
    19   34   15 1    
    20   21   16 1    
    21   18   17 1    
    22   19   17 1    
    23   35   17 1    
    24   42   18 1    
    25   20   19 1    
    26   21   19 1    
    27   36   19 1    
    28   43   20 1    
    29   22   21 1    
    30   37   21 1    
    31   23   22 1    
    32   31   22 1    
    33   24   23 2    
    34   38   23 1    
    35   25   24 1    
    36   26   25 ar   
    37   31   25 ar   
    38   27   26 1    
    39   28   26 ar   
    40   39   27 1    
    41   40   27 1    
    42   29   28 ar   
    43   30   29 ar   
    44   41   29 1    
    45   31   30 ar   
@<TRIPOS>SUBSTRUCTURE
     1 ATP1297     1 GROUP   
@<TRIPOS>SET

