#    Name: 3EI6_1_CAVITY_N1_ALL.mol2
#    Modification time : Mon Mar 10 13:23:29 2014

@<TRIPOS>MOLECULE
3EI6_1_CAVITY_N1_ALL.mol2
   70     0     7     0     0
SMALL
NO_CHARGES


@<TRIPOS>ATOM
      1 CZ        -16.7706   40.0187   17.2094 C.ar      5 PHE5        0.0000 
      2 O         -15.8697   40.1620   16.0186 O.2       2 ALA2        0.0000 
      3 O         -17.4968   38.8987   16.5251 O.2       2 ALA2        0.0000 
      4 N         -16.5960   39.0420   15.3344 N.2       2 ALA2        0.0000 
      5 CA         -9.5893   47.3225   14.0735 C.3       6 GLY6        0.0000 
      6 CA        -10.3156   46.2026   13.3893 C.3       6 GLY6        0.0000 
      7 CA        -11.0419   45.0826   12.7051 C.3       6 GLY6        0.0000 
      8 CA        -12.6690   43.8193   13.2116 C.3       6 GLY6        0.0000 
      9 NZ        -11.7681   43.9626   12.0208 N.2       4 LYS4        0.0000 
     10 NZ        -10.8672   44.1059   10.8301 N.2       4 LYS4        0.0000 
     11 CZ        -16.0979   42.2694   16.0996 C.ar      5 PHE5        0.0000 
     12 CZ        -17.7250   41.0062   16.6061 C.ar      5 PHE5        0.0000 
     13 CA        -16.8242   41.1495   15.4153 C.3       6 GLY6        0.0000 
     14 CA        -15.9233   41.2928   14.2246 C.3       6 GLY6        0.0000 
     15 CZ        -18.4513   39.8862   15.9219 C.ar      5 PHE5        0.0000 
     16 CZ        -17.5504   40.0295   14.7311 C.ar      5 PHE5        0.0000 
     17 CZ        -19.1776   38.7662   15.2376 C.ar      5 PHE5        0.0000 
     18 OD1       -18.2767   38.9095   14.0469 O.3       3 ASP3        0.0000 
     19 CA        -12.3455   48.0234   15.8518 C.3       6 GLY6        0.0000 
     20 CA        -11.4447   48.1667   14.6610 C.3       6 GLY6        0.0000 
     21 CA        -10.5438   48.3100   13.4703 C.3       6 GLY6        0.0000 
     22 N         -13.9727   46.7602   16.3583 N.2       2 ALA2        0.0000 
     23 CA        -13.0718   46.9035   15.1675 C.3       6 GLY6        0.0000 
     24 CA        -12.1709   47.0467   13.9768 C.3       6 GLY6        0.0000 
     25 DU        -11.2700   47.1900   12.7860 H         7 CUB7        0.0000 
     26 CA        -14.6989   45.6402   15.6740 C.3       6 GLY6        0.0000 
     27 CA        -13.7981   45.7835   14.4833 C.3       6 GLY6        0.0000 
     28 CA        -12.8972   45.9268   13.2925 C.3       6 GLY6        0.0000 
     29 DU        -11.9963   46.0701   12.1018 H         7 CUB7        0.0000 
     30 CA        -15.4252   44.5202   14.9898 C.3       6 GLY6        0.0000 
     31 CA        -14.5243   44.6635   13.7991 C.3       6 GLY6        0.0000 
     32 CA        -13.6234   44.8068   12.6083 C.3       6 GLY6        0.0000 
     33 CA        -12.7226   44.9501   11.4176 C.3       6 GLY6        0.0000 
     34 N         -11.8217   45.0934   10.2268 N.2       2 ALA2        0.0000 
     35 CA        -16.1515   43.4002   14.3056 C.3       6 GLY6        0.0000 
     36 CZ        -15.2506   43.5435   13.1148 C.ar      5 PHE5        0.0000 
     37 CZ        -18.6795   41.9936   16.0028 C.ar      5 PHE5        0.0000 
     38 CZ        -17.7786   42.1369   14.8121 C.ar      5 PHE5        0.0000 
     39 CZ        -16.8777   42.2802   13.6213 C.ar      5 PHE5        0.0000 
     40 CZ        -19.4057   40.8737   15.3186 C.ar      5 PHE5        0.0000 
     41 OG        -18.5049   41.0170   14.1278 O.2       1 SER1        0.0000 
     42 OG        -20.1320   39.7537   14.6344 O.2       1 SER1        0.0000 
     43 CA        -13.3000   49.0109   15.2485 C.3       6 GLY6        0.0000 
     44 DU        -12.3991   49.1542   14.0578 H         7 CUB7        0.0000 
     45 DU        -11.4982   49.2975   12.8670 H         7 CUB7        0.0000 
     46 CA        -14.9271   47.7476   15.7550 C.3       6 GLY6        0.0000 
     47 NZ        -14.0262   47.8909   14.5643 N.2       4 LYS4        0.0000 
     48 DU        -13.1254   48.0342   13.3735 H         7 CUB7        0.0000 
     49 DU        -12.2245   48.1775   12.1828 H         7 CUB7        0.0000 
     50 NZ        -15.6534   46.6277   15.0708 N.2       4 LYS4        0.0000 
     51 NZ        -14.7525   46.7709   13.8800 N.2       4 LYS4        0.0000 
     52 DU        -13.8516   46.9142   12.6893 H         7 CUB7        0.0000 
     53 N         -12.9508   47.0575   11.4985 N.2       2 ALA2        0.0000 
     54 NZ        -17.2805   45.3644   15.5773 N.2       4 LYS4        0.0000 
     55 NZ        -16.3796   45.5077   14.3865 N.2       4 LYS4        0.0000 
     56 CA        -15.4788   45.6510   13.1958 C.3       6 GLY6        0.0000 
     57 CA        -14.5779   45.7943   12.0050 C.3       6 GLY6        0.0000 
     58 CA        -13.6770   45.9375   10.8143 C.3       6 GLY6        0.0000 
     59 N         -18.0068   44.2444   14.8931 N.2       2 ALA2        0.0000 
     60 N         -17.1059   44.3877   13.7023 N.2       2 ALA2        0.0000 
     61 CZ        -16.2050   44.5310   12.5116 C.ar      5 PHE5        0.0000 
     62 N         -18.7330   43.1244   14.2088 N.2       2 ALA2        0.0000 
     63 N         -17.8322   43.2677   13.0181 N.2       2 ALA2        0.0000 
     64 O         -19.4593   42.0044   13.5246 O.2       2 ALA2        0.0000 
     65 NZ        -13.3535   50.1417   13.4545 N.2       4 LYS4        0.0000 
     66 CA        -12.4527   50.2850   12.2637 C.3       6 GLY6        0.0000 
     67 NZ        -14.0798   49.0217   12.7703 N.2       4 LYS4        0.0000 
     68 CA        -13.1789   49.1650   11.5795 C.3       6 GLY6        0.0000 
     69 N         -14.8061   47.9017   12.0860 N.2       2 ALA2        0.0000 
     70 NZ        -16.4332   46.6384   12.5925 N.2       4 LYS4        0.0000 
@<TRIPOS>BOND
@<TRIPOS>SUBSTRUCTURE
     1 SER1       41 GROUP   
     2 ALA2        2 GROUP   
     3 ASP3       18 GROUP   
     4 LYS4        9 GROUP   
     5 PHE5        1 GROUP   
     6 GLY6        5 GROUP   
     7 CUB7       25 GROUP   
@<TRIPOS>SET

