#    Name: 3ei6_PL4_1_INTS_M
#    Modification time : Tue Mar 25 01:55:14 2014

@<TRIPOS>MOLECULE
3ei6_PL4_1_INTS_M
  112     0    15     0     0
SMALL
NO_CHARGES


@<TRIPOS>ATOM
      1 CA        -16.1015   43.0280   16.8410 C.3       5 GLC5        0.0000 
      2 CA        -16.6020   42.6660   15.0120 C.3      15 GLL5        0.0000 
      3 CA        -15.6010   43.3900   18.6700 C.3      10 GLP5        0.0000 
      4 CA        -22.3680   37.4585   18.5235 C.3       5 GLC5        0.0000 
      5 CA        -22.7170   35.7600   17.4990 C.3      15 GLL5        0.0000 
      6 CA        -22.0190   39.1570   19.5480 C.3      10 GLP5        0.0000 
      7 CA        -23.4620   34.3850   18.3315 C.3       5 GLC5        0.0000 
      8 CA        -24.2070   33.0100   19.1640 C.3      10 GLP5        0.0000 
      9 CA        -21.2910   34.9850   18.5030 C.3       5 GLC5        0.0000 
     10 CA        -19.8650   34.2100   19.5070 C.3      10 GLP5        0.0000 
     11 CA        -21.5550   34.5985   16.5725 C.3       5 GLC5        0.0000 
     12 CA        -20.3930   33.4370   15.6460 C.3      10 GLP5        0.0000 
     13 CA        -19.0415   39.6190   16.6610 C.3       5 GLC5        0.0000 
     14 CA        -17.3450   38.8190   15.4620 C.3      15 GLL5        0.0000 
     15 CA        -20.7380   40.4190   17.8600 C.3      10 GLP5        0.0000 
     16 OD1       -17.8740   46.3770   13.9930 O.co2     3 ASC3        0.0000 
     17 OD1       -17.4960   44.5250   13.6410 O.co2    13 ASL3        0.0000 
     18 OD1       -18.2520   48.2290   14.3450 O.co2     8 ASP3        0.0000 
     19 O         -18.7295   44.8315   13.0350 O.2       1 ALC1        0.0000 
     20 O         -17.4960   44.5250   13.6410 O.2      11 ALL1        0.0000 
     21 O         -19.9630   45.1380   12.4290 O.2       6 ALP1        0.0000 
     22 NZ        -21.4220   41.3565    9.2035 N.4       4 LYC4        0.0000 
     23 NZ        -21.5050   40.2540   10.1390 N.4      14 LYL4        0.0000 
     24 NZ        -22.3780   43.2880    8.1520 N.4       9 LYP4        0.0000 
     25 N         -21.4220   41.3565    9.2035 N.am      2 SEC2        0.0000 
     26 N         -21.5050   40.2540   10.1390 N.am     12 SEL2        0.0000 
     27 N         -21.3390   42.4590    8.2680 N.am      7 SEP2        0.0000 
     28 N         -20.2880   40.1315   10.7985 N.am      2 SEC2        0.0000 
     29 N         -19.0710   40.0090   11.4580 N.am      7 SEP2        0.0000 
     30 N         -25.1500   39.9540   10.1965 N.am      2 SEC2        0.0000 
     31 N         -23.8370   39.5970    9.7860 N.am     12 SEL2        0.0000 
     32 N         -26.4630   40.3110   10.6070 N.am      7 SEP2        0.0000 
     33 N         -23.8385   38.5430    9.1085 N.am      2 SEC2        0.0000 
     34 N         -23.8400   37.4890    8.4310 N.am      7 SEP2        0.0000 
     35 NZ        -23.3970   42.4410   10.1295 N.4       4 LYC4        0.0000 
     36 NZ        -23.4260   41.6480   11.2180 N.4      14 LYL4        0.0000 
     37 N         -24.6220   41.6910   12.0870 N.am      2 SEC2        0.0000 
     38 N         -23.4260   41.6480   11.2180 N.am     12 SEL2        0.0000 
     39 N         -25.8180   41.7340   12.9560 N.am      7 SEP2        0.0000 
     40 N         -23.3970   42.4410   10.1295 N.am      2 SEC2        0.0000 
     41 N         -23.3680   43.2340    9.0410 N.am      7 SEP2        0.0000 
     42 N         -22.3285   42.4800   11.6105 N.am      2 SEC2        0.0000 
     43 N         -21.2310   43.3120   12.0030 N.am      7 SEP2        0.0000 
     44 CA        -24.4875   39.2200   12.8690 C.3       5 GLC5        0.0000 
     45 CA        -22.4340   39.8300   13.3630 C.3      15 GLL5        0.0000 
     46 CA        -26.5410   38.6100   12.3750 C.3      10 GLP5        0.0000 
     47 CA        -23.3415   41.6620   13.5695 C.3       5 GLC5        0.0000 
     48 CA        -24.2490   43.4940   13.7760 C.3      10 GLP5        0.0000 
     49 CA        -22.1875   40.3680   15.3515 C.3       5 GLC5        0.0000 
     50 CA        -21.9410   40.9060   17.3400 C.3      10 GLP5        0.0000 
     51 CA        -25.0895   38.4650   13.6690 C.3       5 GLC5        0.0000 
     52 CA        -23.6380   38.3200   14.9630 C.3      15 GLL5        0.0000 
     53 CA        -25.4100   39.3050   15.9170 C.3       5 GLC5        0.0000 
     54 CA        -27.1820   40.2900   16.8710 C.3      10 GLP5        0.0000 
     55 CA        -23.7335   36.2300   14.2090 C.3       5 GLC5        0.0000 
     56 CA        -23.8290   34.1400   13.4550 C.3      10 GLP5        0.0000 
     57 N         -24.9215   36.8540   16.4185 N.am      2 SEC2        0.0000 
     58 N         -23.7390   37.3830   15.9050 N.am     12 SEL2        0.0000 
     59 N         -26.1040   36.3250   16.9320 N.am      7 SEP2        0.0000 
     60 N         -19.5770   36.4180   17.4940 N.am      2 SEC2        0.0000 
     61 N         -20.2410   36.5840   16.3860 N.am     12 SEL2        0.0000 
     62 N         -18.9130   36.2520   18.6020 N.am      7 SEP2        0.0000 
     63 O         -19.4775   35.7920   15.6910 O.2       1 ALC1        0.0000 
     64 O         -20.2410   36.5840   16.3860 O.2      11 ALL1        0.0000 
     65 O         -18.7140   35.0000   14.9960 O.2       6 ALP1        0.0000 
     66 CA        -20.2345   39.4510   16.1620 C.3       5 GLC5        0.0000 
     67 CA        -19.7310   38.4830   14.4640 C.3      15 GLL5        0.0000 
     68 CA        -18.5660   37.5435   12.8340 C.3       5 GLC5        0.0000 
     69 CA        -17.4010   36.6040   11.2040 C.3      10 GLP5        0.0000 
     70 CA        -18.9280   39.7030   12.7610 C.3       5 GLC5        0.0000 
     71 CA        -18.1250   40.9230   11.0580 C.3      10 GLP5        0.0000 
     72 NZ        -15.4440   37.6865   18.0910 N.4       4 LYC4        0.0000 
     73 NZ        -17.2330   38.3070   17.8240 N.4      14 LYL4        0.0000 
     74 NZ        -14.2340   36.5810   19.3700 N.4       9 LYP4        0.0000 
     75 N         -18.0730   37.2795   18.2130 N.am      2 SEC2        0.0000 
     76 N         -17.2330   38.3070   17.8240 N.am     12 SEL2        0.0000 
     77 N         -16.3965   37.4585   18.5850 N.am      2 SEC2        0.0000 
     78 N         -15.5600   36.6100   19.3460 N.am      7 SEP2        0.0000 
     79 NZ        -15.3280   38.7630   16.8360 N.4      14 LYL4        0.0000 
     80 N         -14.2210   38.6570   16.0965 N.am      2 SEC2        0.0000 
     81 N         -15.3280   38.7630   16.8360 N.am     12 SEL2        0.0000 
     82 N         -13.1140   38.5510   15.3570 N.am      7 SEP2        0.0000 
     83 N         -15.4440   37.6865   18.0910 N.am      2 SEC2        0.0000 
     84 N         -14.4415   38.1215   17.7485 N.am      2 SEC2        0.0000 
     85 N         -13.5550   37.4800   18.6610 N.am      7 SEP2        0.0000 
     86 CA        -16.9485   42.3090   17.2790 C.3       5 GLC5        0.0000 
     87 CA        -16.9210   41.3410   15.7460 C.3      15 GLL5        0.0000 
     88 CA        -16.9760   43.2770   18.8120 C.3      10 GLP5        0.0000 
     89 CA        -18.8295   40.8800   16.8030 C.3       5 GLC5        0.0000 
     90 CA        -17.9480   42.0455   12.5975 C.3       5 GLC5        0.0000 
     91 CA        -17.7710   43.1680   14.1370 C.3      15 GLL5        0.0000 
     92 N         -20.9335   41.9980   15.5490 N.am      2 SEC2        0.0000 
     93 N         -19.8500   42.2060   14.8410 N.am     12 SEL2        0.0000 
     94 N         -22.0170   41.7900   16.2570 N.am      7 SEP2        0.0000 
     95 N         -20.5405   42.7590   13.4220 N.am      2 SEC2        0.0000 
     96 NZ        -19.9720   45.3945   15.3835 N.4       4 LYC4        0.0000 
     97 NZ        -19.2450   44.1930   15.6720 N.4      14 LYL4        0.0000 
     98 NZ        -20.6990   46.5960   15.0950 N.4       9 LYP4        0.0000 
     99 N         -19.8660   44.1470   17.0745 N.am      2 SEC2        0.0000 
    100 N         -19.2450   44.1930   15.6720 N.am     12 SEL2        0.0000 
    101 N         -20.4870   44.1010   18.4770 N.am      7 SEP2        0.0000 
    102 N         -19.9720   45.3945   15.3835 N.am      2 SEC2        0.0000 
    103 N         -20.6990   46.5960   15.0950 N.am      7 SEP2        0.0000 
    104 CA        -23.2488   35.2125   15.2030 C.3       5 GLC5        0.0000 
    105 CA        -22.6200   36.8100   16.4030 C.3      15 GLL5        0.0000 
    106 CA        -15.2585   38.4355   14.8150 C.3       5 GLC5        0.0000 
    107 CA        -13.4230   37.4050   14.4940 C.3      10 GLP5        0.0000 
    108 CA        -14.8721   41.4366   14.9232 C.3       5 GLC5        0.0000 
    109 CA        -16.8430   40.1130   14.8100 C.3      15 GLL5        0.0000 
    110 CA        -12.9420   41.8150   14.7520 C.3      10 GLP5        0.0000 
    111 CA        -16.7931   40.8731   13.2013 C.3       5 GLC5        0.0000 
    112 CA        -16.7840   40.6880   11.3080 C.3      10 GLP5        0.0000 
@<TRIPOS>BOND
@<TRIPOS>SUBSTRUCTURE
     1 ALC1       19 GROUP        1 X    ALC  0     ROOT ALC X 1
     2 SEC2       25 GROUP        1 X    SEC  0     **** SEC X 2
     3 ASC3       16 GROUP        1 X    ASC  0     **** ASC X 3
     4 LYC4       22 GROUP        1 X    LYC  0     **** LYC X 4
     5 GLC5        1 GROUP        1 X    GLC  0     **** GLC X 6
     6 ALP1       21 GROUP        1 Y    ALP  0     ROOT ALP Y 8
     7 SEP2       27 GROUP        1 Y    SEP  0     **** SEP Y 9
     8 ASP3       18 GROUP        1 Y    ASP  0     **** ASP Y 10
     9 LYP4       24 GROUP        1 Y    LYP  0     **** LYP Y 11
    10 GLP5        3 GROUP        1 Y    GLP  0     **** GLP Y 13
    11 ALL1       20 GROUP        1 Z    ALL  0     ROOT ALL Z 15
    12 SEL2       26 GROUP        1 Z    SEL  0     **** SEL Z 16
    13 ASL3       17 GROUP        1 Z    ASL  0     **** ASL Z 17
    14 LYL4       23 GROUP        1 Z    LYL  0     **** LYL Z 18
    15 GLL5        2 GROUP        1 Z    GLL  0     **** GLL Z 20
@<TRIPOS>SET

