#    Name: 3ei6_PL4_1_ligand
#    Modification time : Tue Mar 25 01:55:14 2014

@<TRIPOS>MOLECULE
3ei6_PL4_1_ligand
   48    48     1     0     0
SMALL
NO_CHARGES


@<TRIPOS>ATOM
      1 CB        -16.6020   42.6660   15.0120 C.3       1 PL4434      0.0000 
      2 CAA       -22.7170   35.7600   17.4990 C.3       1 PL4434      0.0000 
      3 CBA       -17.3450   38.8190   15.4620 C.3       1 PL4434      0.0000 
      4 N         -17.4960   44.5250   13.6410 N.4       1 PL4434      0.0000 
      5 OAI       -21.5050   40.2540   10.1390 O.co2     1 PL4434      0.0000 
      6 PBB       -22.9000   40.3000   10.8390 P.3       1 PL4434      0.0000 
      7 OAJ       -23.8370   39.5970    9.7860 O.co2     1 PL4434      0.0000 
      8 OAE       -23.4260   41.6480   11.2180 O.co2     1 PL4434      0.0000 
      9 OAS       -22.8300   39.3170   12.1220 O.3       1 PL4434      0.0000 
     10 CAP       -22.4340   39.8300   13.3630 C.3       1 PL4434      0.0000 
     11 CAW       -22.3880   38.7320   14.4460 C.ar      1 PL4434      0.0000 
     12 CAK       -23.6380   38.3200   14.9630 C.ar      1 PL4434      0.0000 
     13 NAQ       -23.7390   37.3830   15.9050 N.ar      1 PL4434      0.0000 
     14 CAV       -22.6200   36.8100   16.4030 C.ar      1 PL4434      0.0000 
     15 CAX       -21.3680   37.1640   15.9130 C.ar      1 PL4434      0.0000 
     16 OAH       -20.2410   36.5840   16.3860 O.3       1 PL4434      0.0000 
     17 CAY       -21.1990   38.1400   14.9290 C.ar      1 PL4434      0.0000 
     18 CAO       -19.7310   38.4830   14.4640 C.3       1 PL4434      0.0000 
     19 NAR       -18.8460   38.8800   15.6340 N.4       1 PL4434      0.0000 
     20 CAU       -16.5740   38.6080   16.8160 C.2       1 PL4434      0.0000 
     21 OAG       -17.2330   38.3070   17.8240 O.co2     1 PL4434      0.0000 
     22 OAD       -15.3280   38.7630   16.8360 O.co2     1 PL4434      0.0000 
     23 CAN       -16.8430   40.1130   14.8100 C.3       1 PL4434      0.0000 
     24 CAL       -16.9210   41.3410   15.7460 C.3       1 PL4434      0.0000 
     25 CA        -17.7710   43.1680   14.1370 C.3       1 PL4434      0.0000 
     26 C         -19.0690   43.1920   14.9560 C.2       1 PL4434      0.0000 
     27 OXT       -19.8500   42.2060   14.8410 O.co2     1 PL4434      0.0000 
     28 O         -19.2450   44.1930   15.6720 O.co2     1 PL4434      0.0000 
     29 H         -15.7225   42.5157   14.3785 H         1 PL4434      0.0000 
     30 H         -16.3596   43.4317   15.7552 H         1 PL4434      0.0000 
     31 H         -17.0848   37.9965   14.8072 H         1 PL4434      0.0000 
     32 H         -23.1202   40.6149   13.7341 H         1 PL4434      0.0000 
     33 H         -21.4265   40.2866   13.3294 H         1 PL4434      0.0000 
     34 H         -24.4910   38.7871   14.5704 H         1 PL4434      0.0000 
     35 H         -19.7906   39.2986   13.7453 H         1 PL4434      0.0000 
     36 H         -19.3241   37.6036   13.9676 H         1 PL4434      0.0000 
     37 H         -17.4386   40.3180   13.9118 H         1 PL4434      0.0000 
     38 H         -15.8007   39.9769   14.4958 H         1 PL4434      0.0000 
     39 H         -17.9262   41.4031   16.1673 H         1 PL4434      0.0000 
     40 H         -16.2101   41.2097   16.5640 H         1 PL4434      0.0000 
     41 H         -17.9005   42.4865   13.3175 H         1 PL4434      0.0000 
     42 H         -21.8158   35.4220   17.7703 H         1 PL4434      0.0000 
     43 H         -23.1544   36.1218   18.3223 H         1 PL4434      0.0000 
     44 H         -23.2519   34.9670   17.2073 H         1 PL4434      0.0000 
     45 H         -17.0186   44.5097   12.7624 H         1 PL4434      0.0000 
     46 H         -18.3370   45.0495   13.5085 H         1 PL4434      0.0000 
     47 H         -16.9239   45.0438   14.2763 H         1 PL4434      0.0000 
     48 H         -19.8648   36.0785   15.6095 H         1 PL4434      0.0000 
@<TRIPOS>BOND
     1   24    1 1    
     2   25    1 1    
     3   29    1 1    
     4   30    1 1    
     5   14    2 1    
     6   42    2 1    
     7   43    2 1    
     8   44    2 1    
     9   19    3 1    
    10   20    3 1    
    11   23    3 1    
    12   31    3 1    
    13   25    4 1    
    14   45    4 1    
    15   46    4 1    
    16   47    4 1    
    17    6    5 ar   
    18    7    6 ar   
    19    8    6 ar   
    20    9    6 1    
    21   10    9 1    
    22   11   10 1    
    23   32   10 1    
    24   33   10 1    
    25   12   11 ar   
    26   17   11 ar   
    27   13   12 ar   
    28   34   12 1    
    29   14   13 ar   
    30   15   14 ar   
    31   16   15 1    
    32   17   15 ar   
    33   48   16 1    
    34   18   17 1    
    35   19   18 1    
    36   35   18 1    
    37   36   18 1    
    38   21   20 ar   
    39   22   20 ar   
    40   24   23 1    
    41   37   23 1    
    42   38   23 1    
    43   39   24 1    
    44   40   24 1    
    45   26   25 1    
    46   41   25 1    
    47   27   26 ar   
    48   28   26 ar   
@<TRIPOS>SUBSTRUCTURE
     1 PL4434      1 GROUP   
@<TRIPOS>SET

