#    Name: 4gfo_0X2_1_INTS_M
#    Modification time : Mon Mar 24 22:10:27 2014

@<TRIPOS>MOLECULE
4gfo_0X2_1_INTS_M
   47     0     6     0     0
SMALL
NO_CHARGES


@<TRIPOS>ATOM
      1 CA          9.8460  -12.4515   19.8330 C.3       2 GLC5        0.0000 
      2 CA         11.7970  -12.4610   20.2180 C.3       6 GLL5        0.0000 
      3 CA          7.8950  -12.4420   19.4480 C.3       4 GLP5        0.0000 
      4 CA         12.9260  -15.2105   28.0495 C.3       2 GLC5        0.0000 
      5 CA         14.0870  -15.2770   26.2900 C.3       6 GLL5        0.0000 
      6 CA         11.7650  -15.1440   29.8090 C.3       4 GLP5        0.0000 
      7 CA         16.0245  -16.0565   27.0545 C.3       2 GLC5        0.0000 
      8 CA         17.9620  -16.8360   27.8190 C.3       4 GLP5        0.0000 
      9 CA         13.0240  -16.7900   26.4750 C.3       2 GLC5        0.0000 
     10 CA         11.9610  -18.3030   26.6600 C.3       4 GLP5        0.0000 
     11 CA         12.5120  -11.9780   27.0970 C.3       2 GLC5        0.0000 
     12 CA         14.2780  -12.8750   26.4110 C.3       6 GLL5        0.0000 
     13 CA         10.7460  -11.0810   27.7830 C.3       4 GLP5        0.0000 
     14 N          15.9170  -12.3275   29.6660 N.am      1 SEC2        0.0000 
     15 N          15.0110  -11.9570   28.3750 N.am      5 SEL2        0.0000 
     16 N          16.8230  -12.6980   30.9570 N.am      3 SEP2        0.0000 
     17 CA         16.7735  -14.5190   20.1715 C.3       2 GLC5        0.0000 
     18 CA         15.6080  -14.5220   21.6930 C.3       6 GLL5        0.0000 
     19 CA         17.9390  -14.5160   18.6500 C.3       4 GLP5        0.0000 
     20 CA         16.5150  -14.4275   23.3545 C.3       2 GLC5        0.0000 
     21 CA         17.4220  -14.3330   25.0160 C.3       4 GLP5        0.0000 
     22 CA         16.6065  -16.3685   21.9545 C.3       2 GLC5        0.0000 
     23 CA         17.6050  -18.2150   22.2160 C.3       4 GLP5        0.0000 
     24 CA         14.9395  -16.1170   20.3270 C.3       2 GLC5        0.0000 
     25 CA         14.2710  -17.7120   18.9610 C.3       4 GLP5        0.0000 
     26 CA         15.8655  -14.1335   19.2095 C.3       2 GLC5        0.0000 
     27 CA         13.7920  -13.7510   19.7690 C.3       6 GLL5        0.0000 
     28 CA         14.0315  -15.7315   19.3650 C.3       2 GLC5        0.0000 
     29 CA         10.8065  -10.5465   24.2875 C.3       2 GLC5        0.0000 
     30 CA         11.0950  -11.5550   22.7400 C.3       6 GLL5        0.0000 
     31 CA         10.5180   -9.5380   25.8350 C.3       4 GLP5        0.0000 
     32 CA          9.8230  -10.5050   22.2470 C.3       2 GLC5        0.0000 
     33 CA          8.5510   -9.4550   21.7540 C.3       4 GLP5        0.0000 
     34 CA         10.2125  -12.7290   23.7895 C.3       2 GLC5        0.0000 
     35 CA          9.3300  -13.9030   24.8390 C.3       4 GLP5        0.0000 
     36 CA         11.1672  -13.7592   22.7145 C.3       2 GLC5        0.0000 
     37 CA         12.1370  -12.4170   21.5720 C.3       6 GLL5        0.0000 
     38 CA          9.6280  -14.7790   23.6260 C.3       4 GLP5        0.0000 
     39 CA         12.0245  -14.5495   26.0320 C.3       2 GLC5        0.0000 
     40 CA         13.9570  -14.0250   25.6640 C.3       6 GLL5        0.0000 
     41 CA         10.0270  -14.4480   26.0870 C.3       4 GLP5        0.0000 
     42 CA         15.7860  -14.0480   25.6050 C.3       2 GLC5        0.0000 
     43 CA         11.5786  -13.9470   18.5225 C.3       2 GLC5        0.0000 
     44 CA         10.1550  -14.6210   17.2770 C.3       4 GLP5        0.0000 
     45 CA         13.9670  -12.5635   17.8428 C.3       2 GLC5        0.0000 
     46 CA         12.6280  -13.1290   19.3160 C.3       6 GLL5        0.0000 
     47 CA         14.7240  -11.6870   16.1430 C.3       4 GLP5        0.0000 
@<TRIPOS>BOND
@<TRIPOS>SUBSTRUCTURE
     1 SEC2       14 GROUP        1 X    SEC  0     ROOT SEC X 2
     2 GLC5        1 GROUP        1 X    GLC  0     **** GLC X 6
     3 SEP2       16 GROUP        1 Y    SEP  0     ROOT SEP Y 9
     4 GLP5        3 GROUP        1 Y    GLP  0     **** GLP Y 13
     5 SEL2       15 GROUP        1 Z    SEL  0     ROOT SEL Z 16
     6 GLL5        2 GROUP        1 Z    GLL  0     **** GLL Z 20
@<TRIPOS>SET

