#    Name: 4gfo_0X2_1_ligand
#    Modification time : Mon Mar 24 22:10:27 2014

@<TRIPOS>MOLECULE
4gfo_0X2_1_ligand
   26    27     1     0     0
SMALL
NO_CHARGES


@<TRIPOS>ATOM
      1 C4         13.2760  -13.0620   22.0340 C.ar      1 0X21206     0.0000 
      2 C5         12.1370  -12.4170   21.5720 C.ar      1 0X21206     0.0000 
      3 C6         11.7970  -12.4610   20.2180 C.ar      1 0X21206     0.0000 
      4 C11        14.7060  -12.9920   27.7390 C.2       1 0X21206     0.0000 
      5 C7         13.6610  -12.9300   23.4770 C.2       1 0X21206     0.0000 
      6 C8         13.9570  -14.0250   25.6640 C.2       1 0X21206     0.0000 
      7 C9         14.0870  -15.2770   26.2900 C.3       1 0X21206     0.0000 
      8 C10        14.5140  -15.3480   27.6320 C.2       1 0X21206     0.0000 
      9 C12        14.2780  -12.8750   26.4110 C.2       1 0X21206     0.0000 
     10 N1         13.5840  -13.9900   24.2990 N.am      1 0X21206     0.0000 
     11 N2         14.8050  -14.2230   28.3190 N.2       1 0X21206     0.0000 
     12 C3         14.1190  -13.7040   21.1270 C.ar      1 0X21206     0.0000 
     13 O2         15.0110  -11.9570   28.3750 O.2       1 0X21206     0.0000 
     14 O1         14.0140  -11.8110   23.8220 O.2       1 0X21206     0.0000 
     15 CL2        15.6080  -14.5220   21.6930 Cl        1 0X21206     0.0000 
     16 C2         13.7920  -13.7510   19.7690 C.ar      1 0X21206     0.0000 
     17 CL1        11.0950  -11.5550   22.7400 Cl        1 0X21206     0.0000 
     18 C1         12.6280  -13.1290   19.3160 C.ar      1 0X21206     0.0000 
     19 H          10.9411  -12.0049   19.8878 H         1 0X21206     0.0000 
     20 H          14.7746  -15.9455   25.6474 H         1 0X21206     0.0000 
     21 H          13.0900  -15.8499   26.1885 H         1 0X21206     0.0000 
     22 H          14.5965  -16.2829   28.0700 H         1 0X21206     0.0000 
     23 H          14.1967  -11.9491   25.9769 H         1 0X21206     0.0000 
     24 H          13.2039  -14.9191   23.9059 H         1 0X21206     0.0000 
     25 H          14.4048  -14.2402   19.1099 H         1 0X21206     0.0000 
     26 H          12.3821  -13.1621   18.3200 H         1 0X21206     0.0000 
@<TRIPOS>BOND
     1    2    1 ar   
     2    5    1 1    
     3   12    1 ar   
     4    3    2 ar   
     5   17    2 1    
     6   18    3 ar   
     7   19    3 1    
     8    9    4 1    
     9   11    4 1    
    10   13    4 2    
    11   10    5 am   
    12   14    5 2    
    13    7    6 1    
    14    9    6 2    
    15   10    6 1    
    16    8    7 1    
    17   20    7 1    
    18   21    7 1    
    19   11    8 2    
    20   22    8 1    
    21   23    9 1    
    22   24   10 1    
    23   15   12 1    
    24   16   12 ar   
    25   18   16 ar   
    26   25   16 1    
    27   26   18 1    
@<TRIPOS>SUBSTRUCTURE
     1 0X21206     1 GROUP   
@<TRIPOS>SET

