#    Name: 4j6i_1JV_1_INTS_M
#    Modification time : Tue Mar 25 05:31:53 2014

@<TRIPOS>MOLECULE
4j6i_1JV_1_INTS_M
   76     0     6     0     0
SMALL
NO_CHARGES


@<TRIPOS>ATOM
      1 CA         12.1965   61.6165   20.3080 C.3       2 GLC5        0.0000 
      2 CA         10.7940   62.2860   21.5360 C.3       6 GLL5        0.0000 
      3 CA         13.5990   60.9470   19.0800 C.3       4 GLP5        0.0000 
      4 CA         13.8870   59.5770   22.1940 C.3       2 GLC5        0.0000 
      5 CA         12.4070   60.6420   22.4410 C.3       6 GLL5        0.0000 
      6 CA         15.3670   58.5120   21.9470 C.3       4 GLP5        0.0000 
      7 CA         12.0765   58.8890   23.0095 C.3       2 GLC5        0.0000 
      8 CA         11.7460   57.1360   23.5780 C.3       4 GLP5        0.0000 
      9 N          11.3735   61.3450   25.0575 N.am      1 SEC2        0.0000 
     10 N          10.7410   61.5500   23.8230 N.am      5 SEL2        0.0000 
     11 N          12.0060   61.1400   26.2920 N.am      3 SEP2        0.0000 
     12 CA         13.5610   62.2980   21.5410 C.3       2 GLC5        0.0000 
     13 CA         12.4990   63.1070   23.2660 C.3       6 GLL5        0.0000 
     14 CA         14.6230   61.4890   19.8160 C.3       4 GLP5        0.0000 
     15 CA         15.1550   60.5190   22.5050 C.3       2 GLC5        0.0000 
     16 CA         14.9430   62.5260   23.0630 C.3       6 GLL5        0.0000 
     17 CA         17.9475   58.7300   22.9850 C.3       2 GLC5        0.0000 
     18 CA         18.8140   60.6300   23.4110 C.3       6 GLL5        0.0000 
     19 CA         17.0810   56.8300   22.5590 C.3       4 GLP5        0.0000 
     20 N          17.9330   58.5320   24.5180 N.am      1 SEC2        0.0000 
     21 N          18.9560   59.5250   24.1560 N.am      5 SEL2        0.0000 
     22 N          16.9100   57.5390   24.8800 N.am      3 SEP2        0.0000 
     23 CA         18.4135   58.9005   26.2880 C.3       2 GLC5        0.0000 
     24 CA         19.7380   59.6980   25.3100 C.3       6 GLL5        0.0000 
     25 CA         17.0890   58.1030   27.2660 C.3       4 GLP5        0.0000 
     26 CA         20.2930   61.6280   25.5885 C.3       2 GLC5        0.0000 
     27 CA         20.8480   63.5580   25.8670 C.3       4 GLP5        0.0000 
     28 CA         21.9230   57.5180   25.9300 C.3       2 GLC5        0.0000 
     29 CA         21.0670   59.0320   25.0090 C.3       6 GLL5        0.0000 
     30 CA         22.7790   56.0040   26.8510 C.3       4 GLP5        0.0000 
     31 CA         19.6505   58.0585   26.2420 C.3       2 GLC5        0.0000 
     32 CA         18.2340   57.0850   27.4750 C.3       4 GLP5        0.0000 
     33 CA         22.7100   62.1885   23.8125 C.3       2 GLC5        0.0000 
     34 CA         21.3490   60.6300   22.9590 C.3       6 GLL5        0.0000 
     35 CA         24.0710   63.7470   24.6660 C.3       4 GLP5        0.0000 
     36 CA         23.1690   58.0470   22.7270 C.3       2 GLC5        0.0000 
     37 CA         23.5230   59.4780   23.7250 C.3       6 GLL5        0.0000 
     38 CA         22.8150   56.6160   21.7290 C.3       4 GLP5        0.0000 
     39 CA         23.7245   60.4325   25.1715 C.3       2 GLC5        0.0000 
     40 CA         23.9260   61.3870   26.6180 C.3       4 GLP5        0.0000 
     41 CA         23.9830   63.2920   22.4890 C.3       2 GLC5        0.0000 
     42 CA         23.8950   62.8370   20.3120 C.3       6 GLL5        0.0000 
     43 CA         21.1565   62.0440   17.7255 C.3       2 GLC5        0.0000 
     44 CA         22.8940   61.3490   18.7360 C.3       6 GLL5        0.0000 
     45 CA         19.4190   62.7390   16.7150 C.3       4 GLP5        0.0000 
     46 CA         23.9020   59.4520   19.3295 C.3       2 GLC5        0.0000 
     47 CA         24.9100   57.5550   19.9230 C.3       4 GLP5        0.0000 
     48 CA         21.1045   63.1995   17.5755 C.3       2 GLC5        0.0000 
     49 CA         22.7900   63.6600   18.4360 C.3       6 GLL5        0.0000 
     50 CA         13.3212   61.3840   21.2105 C.3       2 GLC5        0.0000 
     51 CA         11.8723   62.4237   25.0372 C.3       2 GLC5        0.0000 
     52 CA         11.6320   61.9160   22.7690 C.3       6 GLL5        0.0000 
     53 CA         11.6790   62.3360   27.0570 C.3       4 GLP5        0.0000 
     54 CA         16.4237   60.1547   22.4175 C.3       2 GLC5        0.0000 
     55 CA         17.3950   62.3750   22.5060 C.3       6 GLL5        0.0000 
     56 CA         19.5973   61.2310   20.5955 C.3       2 GLC5        0.0000 
     57 CA         18.5210   62.9350   21.8980 C.3       6 GLL5        0.0000 
     58 CA         20.0520   59.8230   19.2190 C.3       4 GLP5        0.0000 
     59 CA         19.0040   63.2840   23.8840 C.3       2 GLC5        0.0000 
     60 CA         19.7640   62.3430   22.0460 C.3       6 GLL5        0.0000 
     61 CA         19.1470   64.0690   25.6440 C.3       4 GLP5        0.0000 
     62 CA         18.6685   62.4970   24.4922 C.3       2 GLC5        0.0000 
     63 CA         20.7013   59.8585   27.0192 C.3       2 GLC5        0.0000 
     64 CA         21.0000   60.3520   28.8790 C.3       4 GLP5        0.0000 
     65 CA         22.6817   60.3900   25.5450 C.3       2 GLC5        0.0000 
     66 CA         21.8080   59.7540   23.9350 C.3       6 GLL5        0.0000 
     67 CA         21.0375   61.9440   24.6362 C.3       2 GLC5        0.0000 
     68 CA         20.2079   60.2955   21.1247 C.3       2 GLC5        0.0000 
     69 CA         22.1041   58.3137   22.7223 C.3       2 GLC5        0.0000 
     70 CA         21.6430   60.8935   19.0070 C.3       2 GLC5        0.0000 
     71 CA         23.5740   62.5790   18.8540 C.3       6 GLL5        0.0000 
     72 CA         23.6485   62.6685   16.4226 C.3       2 GLC5        0.0000 
     73 CA         24.7740   62.5680   18.1290 C.3       6 GLL5        0.0000 
     74 CA         23.4040   62.6470   14.4730 C.3       4 GLP5        0.0000 
     75 CA         25.0980   61.5260   17.2595 C.3       2 GLC5        0.0000 
     76 CA         26.1920   60.7860   16.0570 C.3       4 GLP5        0.0000 
@<TRIPOS>BOND
@<TRIPOS>SUBSTRUCTURE
     1 SEC2        9 GROUP        1 X    SEC  0     ROOT SEC X 2
     2 GLC5        1 GROUP        1 X    GLC  0     **** GLC X 6
     3 SEP2       11 GROUP        1 Y    SEP  0     ROOT SEP Y 9
     4 GLP5        3 GROUP        1 Y    GLP  0     **** GLP Y 13
     5 SEL2       10 GROUP        1 Z    SEL  0     ROOT SEL Z 16
     6 GLL5        2 GROUP        1 Z    GLL  0     **** GLL Z 20
@<TRIPOS>SET

