#    Name: 4j6i_1JV_1_ligand
#    Modification time : Tue Mar 25 05:31:53 2014

@<TRIPOS>MOLECULE
4j6i_1JV_1_ligand
   55    59     1     0     0
SMALL
NO_CHARGES


@<TRIPOS>ATOM
      1 C1         10.7940   62.2860   21.5360 C.3       1 1JV1201     0.0000 
      2 C2         11.6320   61.9160   22.7690 C.3       1 1JV1201     0.0000 
      3 C3         12.4070   60.6420   22.4410 C.3       1 1JV1201     0.0000 
      4 O4         10.7410   61.5500   23.8230 O.3       1 1JV1201     0.0000 
      5 C5         12.4990   63.1070   23.2660 C.3       1 1JV1201     0.0000 
      6 N6         13.8730   63.2870   22.7440 N.pl3     1 1JV1201     0.0000 
      7 C7         14.9430   62.5260   23.0630 C.2       1 1JV1201     0.0000 
      8 C8         16.0320   62.9840   22.3920 C.2       1 1JV1201     0.0000 
      9 C9         15.6090   64.1250   21.6650 C.2       1 1JV1201     0.0000 
     10 N10        14.3250   64.3010   21.8800 N.2       1 1JV1201     0.0000 
     11 C11        17.3950   62.3750   22.5060 C.ar      1 1JV1201     0.0000 
     12 C12        18.5210   62.9350   21.8980 C.ar      1 1JV1201     0.0000 
     13 C13        19.7640   62.3430   22.0460 C.ar      1 1JV1201     0.0000 
     14 C14        19.9430   61.1820   22.7930 C.ar      1 1JV1201     0.0000 
     15 C15        18.8140   60.6300   23.4110 C.ar      1 1JV1201     0.0000 
     16 O16        18.9560   59.5250   24.1560 O.3       1 1JV1201     0.0000 
     17 C17        19.7380   59.6980   25.3100 C.3       1 1JV1201     0.0000 
     18 C18        21.0670   59.0320   25.0090 C.3       1 1JV1201     0.0000 
     19 C19        21.8080   59.7540   23.9350 C.2       1 1JV1201     0.0000 
     20 C20        21.3490   60.6300   22.9590 C.2       1 1JV1201     0.0000 
     21 N21        22.3610   61.0520   22.2140 N.2       1 1JV1201     0.0000 
     22 C22        23.5530   60.5950   22.4160 C.2       1 1JV1201     0.0000 
     23 S23        23.5230   59.4780   23.7250 S.3       1 1JV1201     0.0000 
     24 C24        24.7730   60.9140   21.6820 C.2       1 1JV1201     0.0000 
     25 N25        25.9350   60.3000   21.8230 N.2       1 1JV1201     0.0000 
     26 C26        26.8150   60.8450   20.9850 C.2       1 1JV1201     0.0000 
     27 N27        26.2460   61.8170   20.3310 N.2       1 1JV1201     0.0000 
     28 N28        24.9140   61.8900   20.7580 N.pl3     1 1JV1201     0.0000 
     29 C29        23.8950   62.8370   20.3120 C.3       1 1JV1201     0.0000 
     30 C30        23.5740   62.5790   18.8540 C.3       1 1JV1201     0.0000 
     31 F31        22.8940   61.3490   18.7360 F         1 1JV1201     0.0000 
     32 F32        22.7900   63.6600   18.4360 F         1 1JV1201     0.0000 
     33 F33        24.7740   62.5680   18.1290 F         1 1JV1201     0.0000 
     34 C34        17.5660   61.2200   23.2700 C.ar      1 1JV1201     0.0000 
     35 H          12.5282   63.0401   24.3956 H         1 1JV1201     0.0000 
     36 H          11.8971   64.0478   23.0818 H         1 1JV1201     0.0000 
     37 H          14.9388   61.7733   23.6722 H         1 1JV1201     0.0000 
     38 H          16.2083   64.6435   21.1222 H         1 1JV1201     0.0000 
     39 H          18.4205   63.7940   21.3370 H         1 1JV1201     0.0000 
     40 H          20.5926   62.7773   21.5854 H         1 1JV1201     0.0000 
     41 H          19.3097   59.2136   26.1802 H         1 1JV1201     0.0000 
     42 H          19.9287   60.7420   25.5316 H         1 1JV1201     0.0000 
     43 H          20.8829   57.9951   24.7030 H         1 1JV1201     0.0000 
     44 H          21.6680   59.0088   25.9261 H         1 1JV1201     0.0000 
     45 H          27.7484   60.5467   20.8874 H         1 1JV1201     0.0000 
     46 H          24.2486   63.8646   20.4148 H         1 1JV1201     0.0000 
     47 H          22.9794   62.7255   20.8959 H         1 1JV1201     0.0000 
     48 H          16.7441   60.7978   23.7392 H         1 1JV1201     0.0000 
     49 H          11.3671   62.4502   20.7331 H         1 1JV1201     0.0000 
     50 H          10.1502   61.5604   21.2931 H         1 1JV1201     0.0000 
     51 H          10.2569   63.1158   21.6874 H         1 1JV1201     0.0000 
     52 H          13.0136   60.7680   21.6561 H         1 1JV1201     0.0000 
     53 H          12.9771   60.3463   23.2075 H         1 1JV1201     0.0000 
     54 H          11.7958   59.8820   22.2200 H         1 1JV1201     0.0000 
     55 H          10.3907   62.4167   24.1783 H         1 1JV1201     0.0000 
@<TRIPOS>BOND
     1    2    1 1    
     2   49    1 1    
     3   50    1 1    
     4   51    1 1    
     5    3    2 1    
     6    4    2 1    
     7    5    2 1    
     8   52    3 1    
     9   53    3 1    
    10   54    3 1    
    11   55    4 1    
    12    6    5 1    
    13   35    5 1    
    14   36    5 1    
    15    7    6 1    
    16   10    6 1    
    17    8    7 2    
    18   37    7 1    
    19    9    8 1    
    20   11    8 1    
    21   10    9 2    
    22   38    9 1    
    23   12   11 ar   
    24   34   11 ar   
    25   13   12 ar   
    26   39   12 1    
    27   14   13 ar   
    28   40   13 1    
    29   15   14 ar   
    30   20   14 1    
    31   16   15 1    
    32   34   15 ar   
    33   17   16 1    
    34   18   17 1    
    35   41   17 1    
    36   42   17 1    
    37   19   18 1    
    38   43   18 1    
    39   44   18 1    
    40   20   19 2    
    41   23   19 1    
    42   21   20 1    
    43   22   21 2    
    44   23   22 1    
    45   24   22 1    
    46   25   24 2    
    47   28   24 1    
    48   26   25 1    
    49   27   26 2    
    50   45   26 1    
    51   28   27 1    
    52   29   28 1    
    53   30   29 1    
    54   46   29 1    
    55   47   29 1    
    56   31   30 1    
    57   32   30 1    
    58   33   30 1    
    59   48   34 1    
@<TRIPOS>SUBSTRUCTURE
     1 1JV1201     1 GROUP   
@<TRIPOS>SET

