#    Name: 1dq8_COA_3_INTS_M
#    Modification time : Mon Mar 24 22:17:21 2014

@<TRIPOS>MOLECULE
1dq8_COA_3_INTS_M
   93     0     9     0     0
SMALL
NO_CHARGES


@<TRIPOS>ATOM
      1 CA         49.6550   35.1545  -35.6455 C.3       3 GLC5        0.0000 
      2 CA         50.9640   35.5420  -36.7950 C.3       9 GLL5        0.0000 
      3 CA         48.3460   34.7670  -34.4960 C.3       6 GLP5        0.0000 
      4 CA         50.9730   33.5720  -36.2285 C.3       3 GLC5        0.0000 
      5 CA         50.9820   31.6020  -35.6620 C.3       6 GLP5        0.0000 
      6 CA         51.7510   36.2080  -38.1450 C.3       3 GLC5        0.0000 
      7 CA         52.5380   36.8740  -39.4950 C.3       6 GLP5        0.0000 
      8 CA         49.0190   36.3230  -37.5490 C.3       3 GLC5        0.0000 
      9 CA         47.0740   37.1040  -38.3030 C.3       6 GLP5        0.0000 
     10 N          52.3140   33.7970  -36.2875 N.am      1 SEC2        0.0000 
     11 N          51.6920   35.0410  -35.8270 N.am      7 SEL2        0.0000 
     12 N          52.9360   32.5530  -36.7480 N.am      4 SEP2        0.0000 
     13 CA         51.7245   37.2980  -37.8040 C.3       3 GLC5        0.0000 
     14 CA         50.9110   37.7220  -36.1130 C.3       9 GLL5        0.0000 
     15 CA         48.9925   37.4130  -37.2080 C.3       3 GLC5        0.0000 
     16 CA         52.8270   33.6370  -31.8095 C.3       3 GLC5        0.0000 
     17 CA         53.5050   34.6970  -33.0150 C.3       9 GLL5        0.0000 
     18 CA         52.1490   32.5770  -30.6040 C.3       6 GLP5        0.0000 
     19 CA         55.0445   35.2415  -35.3470 C.3       3 GLC5        0.0000 
     20 CA         54.7410   34.1990  -33.7240 C.3       9 GLL5        0.0000 
     21 CA         55.3480   36.2840  -36.9700 C.3       6 GLP5        0.0000 
     22 CA         56.8510   32.3575  -32.5625 C.3       3 GLC5        0.0000 
     23 CA         55.8710   34.3210  -32.6970 C.3       9 GLL5        0.0000 
     24 CA         57.8310   30.3940  -32.4280 C.3       6 GLP5        0.0000 
     25 N          56.6770   36.4320  -34.2545 N.am      1 SEC2        0.0000 
     26 N          56.9600   35.1350  -33.1390 N.am      7 SEL2        0.0000 
     27 N          56.3940   37.7290  -35.3700 N.am      4 SEP2        0.0000 
     28 N          57.2785   36.7745  -35.3545 N.am      1 SEC2        0.0000 
     29 N          58.1630   35.8200  -35.3390 N.am      7 SEL2        0.0000 
     30 N          59.6005   32.4840  -33.7375 N.am      1 SEC2        0.0000 
     31 N          59.3890   34.2030  -33.6540 N.am      7 SEL2        0.0000 
     32 N          59.8120   30.7650  -33.8210 N.am      4 SEP2        0.0000 
     33 NZ         57.0380   37.7160  -28.0735 N.4       2 LYC4        0.0000 
     34 NZ         56.8420   38.4180  -29.3100 N.4       8 LYL4        0.0000 
     35 NZ         57.2340   37.0140  -26.8370 N.4       5 LYP4        0.0000 
     36 N          57.0380   37.7160  -28.0735 N.am      1 SEC2        0.0000 
     37 N          56.8420   38.4180  -29.3100 N.am      7 SEL2        0.0000 
     38 N          57.2340   37.0140  -26.8370 N.am      4 SEP2        0.0000 
     39 NZ         53.5095   35.7260  -27.6795 N.4       2 LYC4        0.0000 
     40 NZ         54.5200   37.0440  -27.7950 N.4       8 LYL4        0.0000 
     41 NZ         51.9180   34.8470  -26.4620 N.4       5 LYP4        0.0000 
     42 NZ         55.8770   37.0290  -27.3160 N.4       2 LYC4        0.0000 
     43 N          53.5095   35.7260  -27.6795 N.am      1 SEC2        0.0000 
     44 N          54.5200   37.0440  -27.7950 N.am      7 SEL2        0.0000 
     45 N          52.4990   34.4080  -27.5640 N.am      4 SEP2        0.0000 
     46 N          53.5030   36.4420  -26.7945 N.am      1 SEC2        0.0000 
     47 N          52.4860   35.8400  -25.7940 N.am      4 SEP2        0.0000 
     48 CA         48.5650   37.3485  -32.3090 C.3       3 GLC5        0.0000 
     49 CA         48.8720   38.4390  -30.4100 C.3       9 GLL5        0.0000 
     50 CA         48.2580   36.2580  -34.2080 C.3       6 GLP5        0.0000 
     51 CA         47.7130   39.3900  -28.9475 C.3       3 GLC5        0.0000 
     52 CA         46.5540   40.3410  -27.4850 C.3       6 GLP5        0.0000 
     53 CA         49.1770   36.2475  -32.4105 C.3       3 GLC5        0.0000 
     54 CA         50.0960   36.2370  -30.6130 C.3       9 GLL5        0.0000 
     55 CA         48.9650   34.6495  -30.8685 C.3       3 GLC5        0.0000 
     56 CA         47.8340   33.0620  -31.1240 C.3       6 GLP5        0.0000 
     57 CA         51.1225   34.4070  -30.6085 C.3       3 GLC5        0.0000 
     58 CA         48.0500   38.7415  -27.8710 C.3       3 GLC5        0.0000 
     59 CA         49.5460   37.1420  -28.2570 C.3       9 GLL5        0.0000 
     60 CA         46.8670   35.6205  -25.3795 C.3       3 GLC5        0.0000 
     61 CA         46.2550   35.6570  -27.0370 C.3       9 GLL5        0.0000 
     62 CA         47.4790   35.5840  -23.7220 C.3       6 GLP5        0.0000 
     63 CA         44.6485   36.7325  -29.8280 C.3       3 GLC5        0.0000 
     64 CA         45.1440   35.6370  -28.0800 C.3       9 GLL5        0.0000 
     65 CA         44.1530   37.8280  -31.5760 C.3       6 GLP5        0.0000 
     66 N          45.5935   32.9110  -28.3290 N.am      1 SEC2        0.0000 
     67 N          44.4590   33.4130  -27.5810 N.am      7 SEL2        0.0000 
     68 N          46.7280   32.4090  -29.0770 N.am      4 SEP2        0.0000 
     69 CA         42.5105   33.6845  -26.2040 C.3       3 GLC5        0.0000 
     70 CA         41.6760   34.0850  -27.8560 C.3       9 GLL5        0.0000 
     71 CA         43.3450   33.2840  -24.5520 C.3       6 GLP5        0.0000 
     72 CA         42.1340   35.3680  -26.1575 C.3       3 GLC5        0.0000 
     73 CA         42.5920   36.6510  -24.4590 C.3       6 GLP5        0.0000 
     74 CA         41.7315   32.2935  -30.8570 C.3       3 GLC5        0.0000 
     75 CA         41.5830   33.6420  -29.3230 C.3       9 GLL5        0.0000 
     76 CA         41.8800   30.9450  -32.3910 C.3       6 GLP5        0.0000 
     77 CA         40.1010   35.3165  -31.4805 C.3       3 GLC5        0.0000 
     78 CA         41.5900   35.1120  -30.3840 C.3       9 GLL5        0.0000 
     79 CA         38.6120   35.5210  -32.5770 C.3       6 GLP5        0.0000 
     80 CA         42.8715   36.4700  -30.9800 C.3       3 GLC5        0.0000 
     81 CA         42.3755   34.3560  -31.8270 C.3       3 GLC5        0.0000 
     82 CA         43.1610   33.6000  -33.2700 C.3       6 GLP5        0.0000 
     83 CA         49.8369   36.7313  -34.8526 C.3       3 GLC5        0.0000 
     84 CA         51.7180   37.3840  -34.9610 C.3       9 GLL5        0.0000 
     85 CA         53.9900   32.8760  -32.3697 C.3       3 GLC5        0.0000 
     86 CA         52.6740   31.4920  -31.5290 C.3       6 GLP5        0.0000 
     87 CA         54.2340   34.1145  -30.1892 C.3       3 GLC5        0.0000 
     88 CA         55.1950   34.7200  -31.3560 C.3       9 GLL5        0.0000 
     89 CA         53.0090   32.9100  -29.4290 C.3       6 GLP5        0.0000 
     90 CA         46.1347   34.3965  -28.9147 C.3       3 GLC5        0.0000 
     91 CA         46.5700   33.1460  -30.2710 C.3       6 GLP5        0.0000 
     92 CA         41.4988   32.0593  -28.4228 C.3       3 GLC5        0.0000 
     93 CA         41.3680   30.2550  -28.2560 C.3       6 GLP5        0.0000 
@<TRIPOS>BOND
@<TRIPOS>SUBSTRUCTURE
     1 SEC2       10 GROUP        1 X    SEC  0     ROOT SEC X 2
     2 LYC4       33 GROUP        1 X    LYC  0     **** LYC X 4
     3 GLC5        1 GROUP        1 X    GLC  0     **** GLC X 6
     4 SEP2       12 GROUP        1 Y    SEP  0     ROOT SEP Y 9
     5 LYP4       35 GROUP        1 Y    LYP  0     **** LYP Y 11
     6 GLP5        3 GROUP        1 Y    GLP  0     **** GLP Y 13
     7 SEL2       11 GROUP        1 Z    SEL  0     ROOT SEL Z 16
     8 LYL4       34 GROUP        1 Z    LYL  0     **** LYL Z 18
     9 GLL5        2 GROUP        1 Z    GLL  0     **** GLL Z 20
@<TRIPOS>SET

