#    Name: 1dq8_COA_3_ligand
#    Modification time : Mon Mar 24 22:17:21 2014

@<TRIPOS>MOLECULE
1dq8_COA_3_ligand
   79    81     1     0     0
SMALL
NO_CHARGES


@<TRIPOS>ATOM
      1 N1A        50.5680   36.7840  -36.9740 N.ar      1 COA102      0.0000 
      2 C2A        50.9640   35.5420  -36.7950 C.ar      1 COA102      0.0000 
      3 N3A        51.6920   35.0410  -35.8270 N.ar      1 COA102      0.0000 
      4 C4A        52.1230   35.9900  -34.8020 C.ar      1 COA102      0.0000 
      5 C5A        51.7180   37.3840  -34.9610 C.ar      1 COA102      0.0000 
      6 C6A        50.9110   37.7220  -36.1130 C.ar      1 COA102      0.0000 
      7 N6A        50.4980   38.9700  -36.3220 N.pl3     1 COA102      0.0000 
      8 N7A        52.1900   38.1810  -33.9360 N.2       1 COA102      0.0000 
      9 C8A        52.8470   37.2230  -33.2190 C.2       1 COA102      0.0000 
     10 N9A        52.8760   35.8960  -33.6370 N.pl3     1 COA102      0.0000 
     11 C1B        53.5050   34.6970  -33.0150 C.3       1 COA102      0.0000 
     12 C2B        54.7410   34.1990  -33.7240 C.3       1 COA102      0.0000 
     13 O2B        54.5800   32.8390  -34.1160 O.3       1 COA102      0.0000 
     14 C3B        55.8710   34.3210  -32.6970 C.3       1 COA102      0.0000 
     15 O3B        56.9600   35.1350  -33.1390 O.3       1 COA102      0.0000 
     16 P3B        57.9750   34.6320  -34.2910 P.3       1 COA102      0.0000 
     17 O7A        58.1630   35.8200  -35.3390 O.co2     1 COA102      0.0000 
     18 O8A        59.3890   34.2030  -33.6540 O.co2     1 COA102      0.0000 
     19 O9A        57.3500   33.3420  -35.0310 O.co2     1 COA102      0.0000 
     20 C4B        55.1950   34.7200  -31.3560 C.3       1 COA102      0.0000 
     21 O4B        53.8460   35.0310  -31.6730 O.3       1 COA102      0.0000 
     22 C5B        55.7230   35.9180  -30.5430 C.3       1 COA102      0.0000 
     23 O5B        55.6410   37.1600  -31.2500 O.3       1 COA102      0.0000 
     24 P1A        55.6970   38.5580  -30.4250 P.3       1 COA102      0.0000 
     25 O1A        56.8420   38.4180  -29.3100 O.co2     1 COA102      0.0000 
     26 O2A        56.0330   39.7450  -31.4440 O.co2     1 COA102      0.0000 
     27 O3A        54.3130   38.9300  -29.7090 O.3       1 COA102      0.0000 
     28 P2A        53.6170   38.1910  -28.4530 P.3       1 COA102      0.0000 
     29 O4A        54.5200   37.0440  -27.7950 O.co2     1 COA102      0.0000 
     30 O5A        53.2600   39.3000  -27.3590 O.co2     1 COA102      0.0000 
     31 O6A        52.2570   37.5100  -28.9740 O.3       1 COA102      0.0000 
     32 CBP        49.9280   37.5050  -29.7390 C.3       1 COA102      0.0000 
     33 CCP        51.2850   38.2460  -29.7410 C.3       1 COA102      0.0000 
     34 CDP        48.8720   38.4390  -30.4100 C.3       1 COA102      0.0000 
     35 CEP        50.0960   36.2370  -30.6130 C.3       1 COA102      0.0000 
     36 CAP        49.5460   37.1420  -28.2570 C.3       1 COA102      0.0000 
     37 OAP        49.3020   38.3400  -27.5300 O.3       1 COA102      0.0000 
     38 C9P        48.3570   36.1910  -28.1040 C.2       1 COA102      0.0000 
     39 O9P        48.4240   35.0500  -28.5920 O.2       1 COA102      0.0000 
     40 N8P        47.2890   36.6230  -27.4370 N.am      1 COA102      0.0000 
     41 C7P        46.2550   35.6570  -27.0370 C.3       1 COA102      0.0000 
     42 C6P        45.1440   35.6370  -28.0800 C.3       1 COA102      0.0000 
     43 C5P        44.0920   34.5940  -27.7360 C.2       1 COA102      0.0000 
     44 O5P        44.4590   33.4130  -27.5810 O.2       1 COA102      0.0000 
     45 N4P        42.8230   35.0080  -27.6400 N.am      1 COA102      0.0000 
     46 C3P        41.6760   34.0850  -27.8560 C.3       1 COA102      0.0000 
     47 C2P        41.5830   33.6420  -29.3230 C.3       1 COA102      0.0000 
     48 S1P        41.5900   35.1120  -30.3840 S.3       1 COA102      0.0000 
     49 H          50.6340   34.8176  -37.5749 H         1 COA102      0.0000 
     50 H          50.7707   39.6445  -35.6359 H         1 COA102      0.0000 
     51 H          49.9522   39.1206  -37.1463 H         1 COA102      0.0000 
     52 H          53.3412   37.4794  -32.3377 H         1 COA102      0.0000 
     53 H          52.7686   33.8859  -33.0040 H         1 COA102      0.0000 
     54 H          54.9593   34.8477  -34.5350 H         1 COA102      0.0000 
     55 H          56.2177   33.2604  -32.5350 H         1 COA102      0.0000 
     56 H          55.1945   33.8374  -30.7041 H         1 COA102      0.0000 
     57 H          56.7681   35.6826  -30.2559 H         1 COA102      0.0000 
     58 H          55.1452   35.9506  -29.5968 H         1 COA102      0.0000 
     59 H          51.5953   38.3606  -30.7849 H         1 COA102      0.0000 
     60 H          51.1144   39.2452  -29.3267 H         1 COA102      0.0000 
     61 H          50.4331   36.6351  -27.8287 H         1 COA102      0.0000 
     62 H          47.1314   37.5975  -27.1769 H         1 COA102      0.0000 
     63 H          45.8224   35.9316  -26.0744 H         1 COA102      0.0000 
     64 H          46.6746   34.6536  -26.9577 H         1 COA102      0.0000 
     65 H          45.5725   35.4095  -29.0569 H         1 COA102      0.0000 
     66 H          44.6760   36.6211  -28.1251 H         1 COA102      0.0000 
     67 H          42.5656   35.9858  -27.4119 H         1 COA102      0.0000 
     68 H          40.7367   34.5769  -27.5836 H         1 COA102      0.0000 
     69 H          41.7848   33.1921  -27.2319 H         1 COA102      0.0000 
     70 H          40.6636   33.1850  -29.5688 H         1 COA102      0.0000 
     71 H          42.4318   33.1116  -29.6588 H         1 COA102      0.0000 
     72 H          48.7767   39.3049  -29.9189 H         1 COA102      0.0000 
     73 H          49.1195   38.6624  -31.3528 H         1 COA102      0.0000 
     74 H          47.9662   38.0162  -30.4371 H         1 COA102      0.0000 
     75 H          50.3467   36.4650  -31.5538 H         1 COA102      0.0000 
     76 H          50.8094   35.6329  -30.2578 H         1 COA102      0.0000 
     77 H          49.2528   35.7012  -30.6560 H         1 COA102      0.0000 
     78 H          55.4453   32.5912  -34.5517 H         1 COA102      0.0000 
     79 H          50.1746   38.5603  -27.0941 H         1 COA102      0.0000 
@<TRIPOS>BOND
     1    2    1 ar   
     2    6    1 ar   
     3    3    2 ar   
     4   49    2 1    
     5    4    3 ar   
     6    5    4 ar   
     7   10    4 1    
     8    6    5 ar   
     9    8    5 1    
    10    7    6 1    
    11   50    7 1    
    12   51    7 1    
    13    9    8 2    
    14   10    9 1    
    15   52    9 1    
    16   11   10 1    
    17   12   11 1    
    18   21   11 1    
    19   53   11 1    
    20   13   12 1    
    21   14   12 1    
    22   54   12 1    
    23   78   13 1    
    24   15   14 1    
    25   20   14 1    
    26   55   14 1    
    27   16   15 1    
    28   17   16 ar   
    29   18   16 ar   
    30   19   16 ar   
    31   21   20 1    
    32   22   20 1    
    33   56   20 1    
    34   23   22 1    
    35   57   22 1    
    36   58   22 1    
    37   24   23 1    
    38   25   24 ar   
    39   26   24 ar   
    40   27   24 1    
    41   28   27 1    
    42   29   28 ar   
    43   30   28 ar   
    44   31   28 1    
    45   33   31 1    
    46   33   32 1    
    47   34   32 1    
    48   35   32 1    
    49   36   32 1    
    50   59   33 1    
    51   60   33 1    
    52   72   34 1    
    53   73   34 1    
    54   74   34 1    
    55   75   35 1    
    56   76   35 1    
    57   77   35 1    
    58   37   36 1    
    59   38   36 1    
    60   61   36 1    
    61   79   37 1    
    62   39   38 2    
    63   40   38 am   
    64   41   40 1    
    65   62   40 1    
    66   42   41 1    
    67   63   41 1    
    68   64   41 1    
    69   43   42 1    
    70   65   42 1    
    71   66   42 1    
    72   44   43 2    
    73   45   43 am   
    74   46   45 1    
    75   67   45 1    
    76   47   46 1    
    77   68   46 1    
    78   69   46 1    
    79   48   47 1    
    80   70   47 1    
    81   71   47 1    
@<TRIPOS>SUBSTRUCTURE
     1 COA102      1 GROUP   
@<TRIPOS>SET

