#    Name: 3uxh_UXH_2_INTS_M
#    Modification time : Mon Mar 24 23:43:16 2014

@<TRIPOS>MOLECULE
3uxh_UXH_2_INTS_M
   34     0     9     0     0
SMALL
NO_CHARGES


@<TRIPOS>ATOM
      1 CA         24.5810  -12.5630  -12.1145 C.3       3 GLC5        0.0000 
      2 CA         23.3550  -11.8820  -13.0750 C.3       9 GLL5        0.0000 
      3 CA         25.8070  -13.2440  -11.1540 C.3       6 GLP5        0.0000 
      4 CA         22.2345  -11.8050  -11.7065 C.3       3 GLC5        0.0000 
      5 CA         21.1140  -11.7280  -10.3380 C.3       6 GLP5        0.0000 
      6 CA         22.4540  -11.2660  -14.2440 C.3       3 GLC5        0.0000 
      7 CA         21.5530  -10.6500  -15.4130 C.3       6 GLP5        0.0000 
      8 CA         23.7630  -19.1215  -17.7030 C.3       3 GLC5        0.0000 
      9 CA         24.2510  -17.6700  -16.2190 C.3       9 GLL5        0.0000 
     10 CA         23.2750  -20.5730  -19.1870 C.3       6 GLP5        0.0000 
     11 CA         26.4065  -15.9865  -14.2825 C.3       3 GLC5        0.0000 
     12 CA         25.4460  -14.4440  -15.4890 C.3       9 GLL5        0.0000 
     13 CA         27.3670  -17.5290  -13.0760 C.3       6 GLP5        0.0000 
     14 O          20.3195  -20.2135  -14.4970 O.2       1 ALC1        0.0000 
     15 O          21.0010  -18.8850  -14.7020 O.2       7 ALL1        0.0000 
     16 O          19.6380  -21.5420  -14.2920 O.2       4 ALP1        0.0000 
     17 N          21.3355  -20.8550  -16.2845 N.am      2 SEC2        0.0000 
     18 N          22.4040  -19.9370  -16.1380 N.am      8 SEL2        0.0000 
     19 N          20.2670  -21.7730  -16.4310 N.am      5 SEP2        0.0000 
     20 CA         25.7920  -13.6740  -17.6590 C.3       3 GLC5        0.0000 
     21 CA         27.6210  -13.8130  -16.6220 C.3       9 GLL5        0.0000 
     22 CA         23.9630  -13.5350  -18.6960 C.3       6 GLP5        0.0000 
     23 CA         22.9520  -14.9113  -16.2295 C.3       3 GLC5        0.0000 
     24 CA         24.5610  -15.4730  -15.4230 C.3       9 GLL5        0.0000 
     25 CA         21.9610  -14.2790  -17.4210 C.3       6 GLP5        0.0000 
     26 CA         24.6210  -17.0690  -18.1385 C.3       3 GLC5        0.0000 
     27 CA         25.0310  -16.5260  -16.1570 C.3       9 GLL5        0.0000 
     28 CA         24.6010  -17.0400  -20.0890 C.3       6 GLP5        0.0000 
     29 CA         25.9453  -17.1819  -14.5403 C.3       3 GLC5        0.0000 
     30 CA         22.9050  -15.8605  -16.6205 C.3       3 GLC5        0.0000 
     31 CA         22.6747  -14.0793  -15.6685 C.3       3 GLC5        0.0000 
     32 CA         22.9080  -14.4280  -13.8660 C.3       9 GLL5        0.0000 
     33 CA         24.6193  -13.6788  -16.9050 C.3       3 GLC5        0.0000 
     34 CA         25.1050  -13.2010  -14.7390 C.3       9 GLL5        0.0000 
@<TRIPOS>BOND
@<TRIPOS>SUBSTRUCTURE
     1 ALC1       14 GROUP        1 X    ALC  0     ROOT ALC X 1
     2 SEC2       17 GROUP        1 X    SEC  0     **** SEC X 2
     3 GLC5        1 GROUP        1 X    GLC  0     **** GLC X 6
     4 ALP1       16 GROUP        1 Y    ALP  0     ROOT ALP Y 8
     5 SEP2       19 GROUP        1 Y    SEP  0     **** SEP Y 9
     6 GLP5        3 GROUP        1 Y    GLP  0     **** GLP Y 13
     7 ALL1       15 GROUP        1 Z    ALL  0     ROOT ALL Z 15
     8 SEL2       18 GROUP        1 Z    SEL  0     **** SEL Z 16
     9 GLL5        2 GROUP        1 Z    GLL  0     **** GLL Z 20
@<TRIPOS>SET

