#    Name: 3uxh_UXH_2_ligand
#    Modification time : Mon Mar 24 23:43:16 2014

@<TRIPOS>MOLECULE
3uxh_UXH_2_ligand
   30    32     1     0     0
SMALL
NO_CHARGES


@<TRIPOS>ATOM
      1 N1         22.5940  -16.7130  -14.7270 N.ar      1 UXH302      0.0000 
      2 CL1        23.3550  -11.8820  -13.0750 Cl        1 UXH302      0.0000 
      3 C2         23.3250  -15.6140  -14.6530 C.ar      1 UXH302      0.0000 
      4 C3         24.5610  -15.4730  -15.4230 C.ar      1 UXH302      0.0000 
      5 C4         25.0310  -16.5260  -16.1570 C.ar      1 UXH302      0.0000 
      6 C5         24.2510  -17.6700  -16.2190 C.ar      1 UXH302      0.0000 
      7 C6         23.0570  -17.7860  -15.4520 C.ar      1 UXH302      0.0000 
      8 C7         22.9080  -14.4280  -13.8660 C.ar      1 UXH302      0.0000 
      9 C8         23.8690  -13.3310  -13.9660 C.ar      1 UXH302      0.0000 
     10 C9         25.1050  -13.2010  -14.7390 C.ar      1 UXH302      0.0000 
     11 C10        25.4460  -14.4440  -15.4890 C.ar      1 UXH302      0.0000 
     12 N11        21.7690  -14.4920  -13.1140 N.pl3     1 UXH302      0.0000 
     13 N13        25.8990  -12.0220  -14.7250 N.pl3     1 UXH302      0.0000 
     14 C14        22.1330  -18.9270  -15.4040 C.2       1 UXH302      0.0000 
     15 N15        21.0010  -18.8850  -14.7020 N.am      1 UXH302      0.0000 
     16 O16        22.4040  -19.9370  -16.1380 O.2       1 UXH302      0.0000 
     17 C17        26.2580  -16.0040  -16.7360 C.2       1 UXH302      0.0000 
     18 N18        26.4830  -14.7080  -16.3270 N.am      1 UXH302      0.0000 
     19 O19        27.0020  -16.7080  -17.5700 O.2       1 UXH302      0.0000 
     20 C20        27.6210  -13.8130  -16.6220 C.3       1 UXH302      0.0000 
     21 H          24.5253  -18.4578  -16.8245 H         1 UXH302      0.0000 
     22 H          21.2636  -15.3540  -13.1534 H         1 UXH302      0.0000 
     23 H          21.5408  -13.6712  -12.5903 H         1 UXH302      0.0000 
     24 H          26.8806  -12.1509  -14.8658 H         1 UXH302      0.0000 
     25 H          25.4089  -11.1632  -14.5757 H         1 UXH302      0.0000 
     26 H          20.8081  -18.0252  -14.2292 H         1 UXH302      0.0000 
     27 H          20.4464  -19.7171  -14.7112 H         1 UXH302      0.0000 
     28 H          28.1431  -13.5922  -15.7982 H         1 UXH302      0.0000 
     29 H          28.2594  -14.2257  -17.2717 H         1 UXH302      0.0000 
     30 H          27.3187  -12.9462  -17.0185 H         1 UXH302      0.0000 
@<TRIPOS>BOND
     1    3    1 ar   
     2    7    1 ar   
     3    9    2 1    
     4    4    3 ar   
     5    8    3 ar   
     6    5    4 ar   
     7   11    4 ar   
     8    6    5 ar   
     9   17    5 1    
    10    7    6 ar   
    11   21    6 1    
    12   14    7 1    
    13    9    8 ar   
    14   12    8 1    
    15   10    9 ar   
    16   11   10 ar   
    17   13   10 1    
    18   18   11 1    
    19   22   12 1    
    20   23   12 1    
    21   24   13 1    
    22   25   13 1    
    23   15   14 am   
    24   16   14 2    
    25   26   15 1    
    26   27   15 1    
    27   18   17 am   
    28   19   17 2    
    29   20   18 1    
    30   28   20 1    
    31   29   20 1    
    32   30   20 1    
@<TRIPOS>SUBSTRUCTURE
     1 UXH302      1 GROUP   
@<TRIPOS>SET

