#    Name: 2ZDQ_1_CAVITY_N1_6.mol2
#    Modification time : Tue Mar 11 05:33:11 2014

@<TRIPOS>MOLECULE
2ZDQ_1_CAVITY_N1_6.mol2
   92     0     7     0     0
SMALL
NO_CHARGES


@<TRIPOS>ATOM
      1 OD1        48.2274   16.3487    4.8133 O.3       3 ASP3        0.0000 
      2 CZ         49.5648   15.8297    4.3751 C.ar      5 PHE5        0.0000 
      3 OG         46.3549   15.4666    5.2780 O.2       1 SER1        0.0000 
      4 OD1        47.6923   14.9476    4.8398 O.3       3 ASP3        0.0000 
      5 NZ         49.0297   14.4286    4.4016 N.2       4 LYS4        0.0000 
      6 NZ         50.3671   13.9096    3.9634 N.2       4 LYS4        0.0000 
      7 CA         45.8199   14.0655    5.3045 C.3       6 GLY6        0.0000 
      8 O          47.1573   13.5465    4.8663 O.2       2 ALA2        0.0000 
      9 OD1        45.2849   12.6644    5.3310 O.3       3 ASP3        0.0000 
     10 O          46.6223   12.1454    4.8928 O.2       2 ALA2        0.0000 
     11 OD1        49.1463   15.9624    2.9408 O.3       3 ASP3        0.0000 
     12 CZ         50.4837   15.4434    2.5026 C.ar      5 PHE5        0.0000 
     13 O          44.5991   16.1183    4.2819 O.2       2 ALA2        0.0000 
     14 OD1        45.9365   15.5993    3.8437 O.3       3 ASP3        0.0000 
     15 OD1        47.2739   15.0803    3.4055 O.3       3 ASP3        0.0000 
     16 OD1        48.6112   14.5613    2.9673 O.3       3 ASP3        0.0000 
     17 NZ         49.9486   14.0423    2.5291 N.2       4 LYS4        0.0000 
     18 CA         44.0640   14.7172    4.3084 C.3       6 GLY6        0.0000 
     19 NZ         45.4014   14.1982    3.8702 N.2       4 LYS4        0.0000 
     20 NZ         46.7388   13.6792    3.4320 N.2       4 LYS4        0.0000 
     21 O          48.0762   13.1602    2.9938 O.2       2 ALA2        0.0000 
     22 OD1        44.8664   12.7971    3.8967 O.3       3 ASP3        0.0000 
     23 NZ         46.2038   12.2781    3.4585 N.2       4 LYS4        0.0000 
     24 OD1        48.7278   16.0951    1.5065 O.3       3 ASP3        0.0000 
     25 NZ         50.0652   15.5761    1.0683 N.2       4 LYS4        0.0000 
     26 OD1        45.5180   15.7320    2.4094 O.3       3 ASP3        0.0000 
     27 OD1        46.8554   15.2130    1.9712 O.3       3 ASP3        0.0000 
     28 NZ         48.1928   14.6940    1.5330 N.2       4 LYS4        0.0000 
     29 CA         43.6456   14.8499    2.8741 C.3       6 GLY6        0.0000 
     30 NZ         44.9830   14.3309    2.4359 N.2       4 LYS4        0.0000 
     31 OD1        46.9719   16.7468    0.5104 O.3       3 ASP3        0.0000 
     32 O          45.0995   15.8647    0.9751 O.2       2 ALA2        0.0000 
     33 NZ         46.4369   15.3457    0.5369 N.2       4 LYS4        0.0000 
     34 NZ         44.5645   14.4636    1.0015 N.2       4 LYS4        0.0000 
     35 N          49.0643   16.0833    7.6820 N.2       2 ALA2        0.0000 
     36 CA         50.4017   15.5643    7.2438 C.3       6 GLY6        0.0000 
     37 CZ         47.1919   15.2012    8.1467 C.ar      5 PHE5        0.0000 
     38 DU         48.5293   14.6822    7.7084 H         7 CUB7        0.0000 
     39 NZ         49.8667   14.1632    7.2702 N.2       4 LYS4        0.0000 
     40 CZ         46.6569   13.8001    8.1731 C.ar      5 PHE5        0.0000 
     41 CZ         47.9942   13.2811    7.7349 C.ar      5 PHE5        0.0000 
     42 CZ         49.3316   12.7622    7.2967 C.ar      5 PHE5        0.0000 
     43 OD1        47.4592   11.8801    7.7614 O.3       3 ASP3        0.0000 
     44 N          48.6458   16.2160    6.2476 N.2       2 ALA2        0.0000 
     45 CA         49.9832   15.6970    5.8094 C.3       6 GLY6        0.0000 
     46 OG         46.7734   15.3339    6.7123 O.2       1 SER1        0.0000 
     47 DU         48.1108   14.8149    6.2741 H         7 CUB7        0.0000 
     48 NZ         49.4482   14.2959    5.8359 N.2       4 LYS4        0.0000 
     49 CA         46.2384   13.9328    6.7388 C.3       6 GLY6        0.0000 
     50 O          47.5758   13.4138    6.3006 O.2       2 ALA2        0.0000 
     51 O          48.9132   12.8948    5.8624 O.2       2 ALA2        0.0000 
     52 OD1        47.0407   12.0128    6.3271 O.3       3 ASP3        0.0000 
     53 N          53.9480   15.9156   12.5163 N.2       2 ALA2        0.0000 
     54 N          52.0756   15.0335   12.9810 N.2       2 ALA2        0.0000 
     55 CA         53.4130   14.5146   12.5428 C.3       6 GLY6        0.0000 
     56 O          51.5406   13.6325   13.0075 O.2       2 ALA2        0.0000 
     57 CA         52.8780   13.1135   12.5693 C.3       6 GLY6        0.0000 
     58 CZ         51.0055   12.2314   13.0340 C.ar      5 PHE5        0.0000 
     59 CA         51.6571   15.1662   11.5467 C.3       6 GLY6        0.0000 
     60 OG         52.9945   14.6472   11.1085 O.2       1 SER1        0.0000 
     61 CZ         51.1221   13.7652   11.5732 C.ar      5 PHE5        0.0000 
     62 CA         52.4595   13.2462   11.1350 C.3       6 GLY6        0.0000 
     63 CZ         50.5871   12.3641   11.5997 C.ar      5 PHE5        0.0000 
     64 CA         51.9245   11.8451   11.1615 C.3       6 GLY6        0.0000 
     65 CZ         50.0520   10.9630   11.6262 C.ar      5 PHE5        0.0000 
     66 N          51.3894   10.4440   11.1880 N.2       2 ALA2        0.0000 
     67 CZ         48.1796   10.0809   12.0909 C.ar      5 PHE5        0.0000 
     68 O          49.5170    9.5619   11.6526 O.2       2 ALA2        0.0000 
     69 O          50.8544    9.0429   11.2144 O.2       2 ALA2        0.0000 
     70 CA         51.2387   15.2989   10.1124 C.3       6 GLY6        0.0000 
     71 CZ         50.7036   13.8978   10.1389 C.ar      5 PHE5        0.0000 
     72 CA         52.0410   13.3789    9.7007 C.3       6 GLY6        0.0000 
     73 CZ         48.8312   13.0158   10.6036 C.ar      5 PHE5        0.0000 
     74 CZ         50.1686   12.4968   10.1654 C.ar      5 PHE5        0.0000 
     75 CZ         51.5060   11.9778    9.7272 C.ar      5 PHE5        0.0000 
     76 CZ         48.2962   11.6147   10.6301 C.ar      5 PHE5        0.0000 
     77 CZ         49.6336   11.0957   10.1918 C.ar      5 PHE5        0.0000 
     78 CZ         50.9709   10.5767    9.7536 C.ar      5 PHE5        0.0000 
     79 CZ         47.7611   10.2136   10.6565 C.ar      5 PHE5        0.0000 
     80 CZ         49.0985    9.6946   10.2183 C.ar      5 PHE5        0.0000 
     81 CA         49.4828   15.9506    9.1163 C.3       6 GLY6        0.0000 
     82 NZ         50.8202   15.4316    8.6781 N.2       4 LYS4        0.0000 
     83 CZ         48.9478   14.5495    9.1428 C.ar      5 PHE5        0.0000 
     84 NZ         50.2852   14.0305    8.7046 N.2       4 LYS4        0.0000 
     85 NZ         51.6225   13.5115    8.2663 N.2       4 LYS4        0.0000 
     86 CZ         48.4127   13.1485    9.1693 C.ar      5 PHE5        0.0000 
     87 CZ         49.7501   12.6295    8.7310 C.ar      5 PHE5        0.0000 
     88 CZ         46.5403   12.2664    9.6339 C.ar      5 PHE5        0.0000 
     89 CZ         47.8777   11.7474    9.1957 C.ar      5 PHE5        0.0000 
     90 O          53.8315   14.3819   13.9771 O.2       2 ALA2        0.0000 
     91 CA         55.1689   13.8629   13.5389 C.3       6 GLY6        0.0000 
     92 N          53.2964   12.9808   14.0036 N.2       2 ALA2        0.0000 
@<TRIPOS>BOND
@<TRIPOS>SUBSTRUCTURE
     1 SER1        3 GROUP   
     2 ALA2        8 GROUP   
     3 ASP3        1 GROUP   
     4 LYS4        5 GROUP   
     5 PHE5        2 GROUP   
     6 GLY6        7 GROUP   
     7 CUB7       38 GROUP   
@<TRIPOS>SET

