#    Name: 2zdq_ATP_1_INTS_M
#    Modification time : Tue Mar 25 10:36:14 2014

@<TRIPOS>MOLECULE
2zdq_ATP_1_INTS_M
   96     0    12     0     0
SMALL
NO_CHARGES


@<TRIPOS>ATOM
      1 NZ         46.6250   17.5365    1.8765 N.4       3 LYC4        0.0000 
      2 NZ         46.1150   17.1970    0.7490 N.4      11 LYL4        0.0000 
      3 NZ         47.1350   17.8760    3.0040 N.4       7 LYP4        0.0000 
      4 NZ         45.2625   17.1465   -1.0385 N.4       3 LYC4        0.0000 
      5 NZ         44.4100   17.0960   -2.8260 N.4       7 LYP4        0.0000 
      6 N          44.7855   17.7640    0.8565 N.am      2 SEC2        0.0000 
      7 N          46.1150   17.1970    0.7490 N.am     10 SEL2        0.0000 
      8 N          43.4560   18.3310    0.9640 N.am      6 SEP2        0.0000 
      9 N          46.6250   17.5365    1.8765 N.am      2 SEC2        0.0000 
     10 N          47.1350   17.8760    3.0040 N.am      6 SEP2        0.0000 
     11 NZ         44.5775   16.0990   -1.4230 N.4       3 LYC4        0.0000 
     12 NZ         44.7450   15.1020   -0.0200 N.4      11 LYL4        0.0000 
     13 N          45.3760   13.7685    0.2870 N.am      2 SEC2        0.0000 
     14 N          44.7450   15.1020   -0.0200 N.am     10 SEL2        0.0000 
     15 N          46.0070   12.4350    0.5940 N.am      6 SEP2        0.0000 
     16 N          44.5775   16.0990   -1.4230 N.am      2 SEC2        0.0000 
     17 N          44.4100   17.0960   -2.8260 N.am      6 SEP2        0.0000 
     18 NZ         48.4960   14.9300   -0.9755 N.4       3 LYC4        0.0000 
     19 NZ         47.4920   15.1290   -0.0910 N.4      11 LYL4        0.0000 
     20 NZ         50.0810   14.8030   -3.0460 N.4       7 LYP4        0.0000 
     21 N          48.4960   14.9300   -0.9755 N.am      2 SEC2        0.0000 
     22 N          47.4920   15.1290   -0.0910 N.am     10 SEL2        0.0000 
     23 N          49.5000   14.7310   -1.8600 N.am      6 SEP2        0.0000 
     24 N          47.0900   14.1130   -1.2165 N.am      2 SEC2        0.0000 
     25 N          46.6880   13.0970   -2.3420 N.am      6 SEP2        0.0000 
     26 NZ         43.6310   12.3700    2.6360 N.4       3 LYC4        0.0000 
     27 NZ         44.1330   13.5520    2.3240 N.4      11 LYL4        0.0000 
     28 NZ         43.1290   11.1880    2.9480 N.4       7 LYP4        0.0000 
     29 NZ         45.4565   16.9735    2.8935 N.4       3 LYC4        0.0000 
     30 NZ         43.7780   16.0710    2.7830 N.4      11 LYL4        0.0000 
     31 N          43.8550   17.3720    3.2365 N.am      2 SEC2        0.0000 
     32 N          43.7780   16.0710    2.7830 N.am     10 SEL2        0.0000 
     33 N          43.9320   18.6730    3.6900 N.am      6 SEP2        0.0000 
     34 NZ         44.1895   11.6300    3.9345 N.4       3 LYC4        0.0000 
     35 NZ         45.2500   12.0720    4.9210 N.4      11 LYL4        0.0000 
     36 NZ         45.1475   11.2035    6.0805 N.4       3 LYC4        0.0000 
     37 NZ         45.0450   10.3350    7.2400 N.4       7 LYP4        0.0000 
     38 N          44.1895   11.6300    3.9345 N.am      2 SEC2        0.0000 
     39 N          45.2500   12.0720    4.9210 N.am     10 SEL2        0.0000 
     40 N          43.1290   11.1880    2.9480 N.am      6 SEP2        0.0000 
     41 N          45.1475   11.2035    6.0805 N.am      2 SEC2        0.0000 
     42 N          45.0450   10.3350    7.2400 N.am      6 SEP2        0.0000 
     43 N          48.1210   11.8625    3.9405 N.am      2 SEC2        0.0000 
     44 N          47.4300   13.0490    3.8620 N.am     10 SEL2        0.0000 
     45 N          48.8120   10.6760    4.0190 N.am      6 SEP2        0.0000 
     46 CA         45.1350   15.1860    6.3915 C.3       4 GLC5        0.0000 
     47 CA         47.0550   15.0840    5.9570 C.3      12 GLL5        0.0000 
     48 CA         43.2150   15.2880    6.8260 C.3       8 GLP5        0.0000 
     49 CA         47.9770   16.5985    8.3965 C.3       4 GLC5        0.0000 
     50 CA         48.2290   15.2210    6.9380 C.3      12 GLL5        0.0000 
     51 CA         47.7250   17.9760    9.8550 C.3       8 GLP5        0.0000 
     52 CA         49.8685   12.2590    6.8600 C.3       4 GLC5        0.0000 
     53 CA         49.3880   14.2670    6.6050 C.3      12 GLL5        0.0000 
     54 CA         50.3490   10.2510    7.1150 C.3       8 GLP5        0.0000 
     55 O          51.7315   14.9205    6.2160 O.2       1 ALC1        0.0000 
     56 O          50.2070   14.7770    5.5530 O.2       9 ALL1        0.0000 
     57 O          53.2560   15.0640    6.8790 O.2       5 ALP1        0.0000 
     58 O          51.3540   14.1675    5.5075 O.2       1 ALC1        0.0000 
     59 O          52.5010   13.5580    5.4620 O.2       5 ALP1        0.0000 
     60 CA         50.8905   12.4000    7.4330 C.3       4 GLC5        0.0000 
     61 CA         50.0940   14.1500    7.9620 C.3      12 GLL5        0.0000 
     62 CA         51.6870   10.6500    6.9040 C.3       8 GLP5        0.0000 
     63 N          51.0020   16.8590    8.3305 N.am      2 SEC2        0.0000 
     64 N          50.9780   15.2490    8.2030 N.am     10 SEL2        0.0000 
     65 N          51.0260   18.4690    8.4580 N.am      6 SEP2        0.0000 
     66 O          52.1170   15.1565    7.5410 O.2       1 ALC1        0.0000 
     67 O          50.9780   15.2490    8.2030 O.2       9 ALL1        0.0000 
     68 CA         48.0275   14.4790   10.4615 C.3       4 GLC5        0.0000 
     69 CA         48.9340   14.1310    8.9530 C.3      12 GLL5        0.0000 
     70 CA         47.1210   14.8270   11.9700 C.3       8 GLP5        0.0000 
     71 CA         49.4125   15.8125   10.0150 C.3       4 GLC5        0.0000 
     72 CA         49.8910   17.4940   11.0770 C.3       8 GLP5        0.0000 
     73 N          46.1890   10.6145    8.1935 N.am      2 SEC2        0.0000 
     74 N          47.3330   10.8940    9.1470 N.am     10 SEL2        0.0000 
     75 CA         48.8045    9.1570   12.7560 C.3       4 GLC5        0.0000 
     76 CA         48.7650    9.5380   10.7550 C.3      12 GLL5        0.0000 
     77 CA         48.8440    8.7760   14.7570 C.3       8 GLP5        0.0000 
     78 O          46.8520    8.0785    9.7365 O.2       1 ALC1        0.0000 
     79 O          48.0380    8.3660   10.7270 O.2       9 ALL1        0.0000 
     80 O          45.6660    7.7910    8.7460 O.2       5 ALP1        0.0000 
     81 O          48.0365    7.4880   11.9875 O.2       1 ALC1        0.0000 
     82 O          48.0350    6.6100   13.2480 O.2       5 ALP1        0.0000 
     83 N          50.4910    9.0470   12.7620 N.am      2 SEC2        0.0000 
     84 N          49.8810    9.6480   11.5130 N.am     10 SEL2        0.0000 
     85 N          51.1010    8.4460   14.0110 N.am      6 SEP2        0.0000 
     86 CA         49.7215    9.7770   13.1545 C.3       4 GLC5        0.0000 
     87 CA         50.5990   10.7780   11.5520 C.3      12 GLL5        0.0000 
     88 CA         51.5425    9.4020   12.8290 C.3       4 GLC5        0.0000 
     89 CA         52.4860    8.0260   14.1060 C.3       8 GLP5        0.0000 
     90 CA         52.5870   11.2895   11.2880 C.3       4 GLC5        0.0000 
     91 CA         54.5750   11.8010   11.0240 C.3       8 GLP5        0.0000 
     92 CA         50.4541   16.1925    6.7479 C.3       4 GLC5        0.0000 
     93 CA         51.4570   17.9380    6.1290 C.3       8 GLP5        0.0000 
     94 CA         46.8568   10.8277   11.2945 C.3       4 GLC5        0.0000 
     95 CA         48.3520   10.6490    9.9870 C.3      12 GLL5        0.0000 
     96 CA         45.1550   11.5620   12.2180 C.3       8 GLP5        0.0000 
@<TRIPOS>BOND
@<TRIPOS>SUBSTRUCTURE
     1 ALC1       55 GROUP        1 X    ALC  0     ROOT ALC X 1
     2 SEC2        6 GROUP        1 X    SEC  0     **** SEC X 2
     3 LYC4        1 GROUP        1 X    LYC  0     **** LYC X 4
     4 GLC5       46 GROUP        1 X    GLC  0     **** GLC X 6
     5 ALP1       57 GROUP        1 Y    ALP  0     ROOT ALP Y 8
     6 SEP2        8 GROUP        1 Y    SEP  0     **** SEP Y 9
     7 LYP4        3 GROUP        1 Y    LYP  0     **** LYP Y 11
     8 GLP5       48 GROUP        1 Y    GLP  0     **** GLP Y 13
     9 ALL1       56 GROUP        1 Z    ALL  0     ROOT ALL Z 15
    10 SEL2        7 GROUP        1 Z    SEL  0     **** SEL Z 16
    11 LYL4        2 GROUP        1 Z    LYL  0     **** LYL Z 18
    12 GLL5       47 GROUP        1 Z    GLL  0     **** GLL Z 20
@<TRIPOS>SET

