#    Name: 2zdq_ATP_1_ligand
#    Modification time : Tue Mar 25 10:36:14 2014

@<TRIPOS>MOLECULE
2zdq_ATP_1_ligand
   43    45     1     0     0
SMALL
NO_CHARGES


@<TRIPOS>ATOM
      1 PG         46.1780   15.7360    0.4550 P.3       1 ATP1501     0.0000 
      2 O1G        46.1150   17.1970    0.7490 O.co2     1 ATP1501     0.0000 
      3 O2G        44.7450   15.1020   -0.0200 O.co2     1 ATP1501     0.0000 
      4 O3G        47.4920   15.1290   -0.0910 O.co2     1 ATP1501     0.0000 
      5 PB         44.7980   14.8600    2.5900 P.3       1 ATP1501     0.0000 
      6 O1B        44.1330   13.5520    2.3240 O.co2     1 ATP1501     0.0000 
      7 O2B        43.7780   16.0710    2.7830 O.co2     1 ATP1501     0.0000 
      8 O3B        46.2760   15.1450    2.0220 O.3       1 ATP1501     0.0000 
      9 PA         45.9870   13.3200    4.5350 P.3       1 ATP1501     0.0000 
     10 O1A        45.2500   12.0720    4.9210 O.co2     1 ATP1501     0.0000 
     11 O2A        47.4300   13.0490    3.8620 O.co2     1 ATP1501     0.0000 
     12 O3A        45.1700   14.6550    4.1760 O.3       1 ATP1501     0.0000 
     13 O5'        46.4820   13.7640    6.0200 O.3       1 ATP1501     0.0000 
     14 C5'        47.0550   15.0840    5.9570 C.3       1 ATP1501     0.0000 
     15 C4'        48.2290   15.2210    6.9380 C.3       1 ATP1501     0.0000 
     16 O4'        47.8360   14.8910    8.3100 O.3       1 ATP1501     0.0000 
     17 C3'        49.3880   14.2670    6.6050 C.3       1 ATP1501     0.0000 
     18 O3'        50.2070   14.7770    5.5530 O.3       1 ATP1501     0.0000 
     19 C2'        50.0940   14.1500    7.9620 C.3       1 ATP1501     0.0000 
     20 O2'        50.9780   15.2490    8.2030 O.3       1 ATP1501     0.0000 
     21 C1'        48.9340   14.1310    8.9530 C.3       1 ATP1501     0.0000 
     22 N9         48.5140   12.7400    9.2260 N.pl3     1 ATP1501     0.0000 
     23 C8         47.4280   12.1120    8.7050 C.2       1 ATP1501     0.0000 
     24 N7         47.3330   10.8940    9.1470 N.2       1 ATP1501     0.0000 
     25 C5         48.3520   10.6490    9.9870 C.ar      1 ATP1501     0.0000 
     26 C6         48.7650    9.5380   10.7550 C.ar      1 ATP1501     0.0000 
     27 N6         48.0380    8.3660   10.7270 N.pl3     1 ATP1501     0.0000 
     28 N1         49.8810    9.6480   11.5130 N.ar      1 ATP1501     0.0000 
     29 C2         50.5990   10.7780   11.5520 C.ar      1 ATP1501     0.0000 
     30 N3         50.2440   11.8490   10.8450 N.ar      1 ATP1501     0.0000 
     31 C4         49.1400   11.8330   10.0550 C.ar      1 ATP1501     0.0000 
     32 H          46.3159   15.8559    6.2125 H         1 ATP1501     0.0000 
     33 H          47.4339   15.3103    4.9507 H         1 ATP1501     0.0000 
     34 H          48.6128   16.2272    6.9011 H         1 ATP1501     0.0000 
     35 H          48.9467   13.3123    6.3900 H         1 ATP1501     0.0000 
     36 H          50.5717   13.1985    7.9983 H         1 ATP1501     0.0000 
     37 H          49.2435   14.6240    9.8438 H         1 ATP1501     0.0000 
     38 H          46.8072   12.5548    8.0711 H         1 ATP1501     0.0000 
     39 H          48.3999    7.6106   11.2732 H         1 ATP1501     0.0000 
     40 H          47.2123    8.3738   10.1629 H         1 ATP1501     0.0000 
     41 H          51.4635   10.8169   12.1567 H         1 ATP1501     0.0000 
     42 H          51.1465   14.6228    5.8587 H         1 ATP1501     0.0000 
     43 H          51.5139   15.3389    7.3635 H         1 ATP1501     0.0000 
@<TRIPOS>BOND
     1    2    1 ar   
     2    3    1 ar   
     3    4    1 ar   
     4    8    1 1    
     5    6    5 ar   
     6    7    5 ar   
     7    8    5 1    
     8   12    5 1    
     9   10    9 ar   
    10   11    9 ar   
    11   12    9 1    
    12   13    9 1    
    13   14   13 1    
    14   15   14 1    
    15   32   14 1    
    16   33   14 1    
    17   16   15 1    
    18   17   15 1    
    19   34   15 1    
    20   21   16 1    
    21   18   17 1    
    22   19   17 1    
    23   35   17 1    
    24   42   18 1    
    25   20   19 1    
    26   21   19 1    
    27   36   19 1    
    28   43   20 1    
    29   22   21 1    
    30   37   21 1    
    31   23   22 1    
    32   31   22 1    
    33   24   23 2    
    34   38   23 1    
    35   25   24 1    
    36   26   25 ar   
    37   31   25 ar   
    38   27   26 1    
    39   28   26 ar   
    40   39   27 1    
    41   40   27 1    
    42   29   28 ar   
    43   30   29 ar   
    44   41   29 1    
    45   31   30 ar   
@<TRIPOS>SUBSTRUCTURE
     1 ATP1501     1 GROUP   
@<TRIPOS>SET

