#    Name: 3sfz_ADP_6_INTS_M
#    Modification time : Tue Mar 25 12:34:40 2014

@<TRIPOS>MOLECULE
3sfz_ADP_6_INTS_M
   64     0    12     0     0
SMALL
NO_CHARGES


@<TRIPOS>ATOM
      1 NZ          1.1570   35.5540  -19.0190 N.4       3 LYC4        0.0000 
      2 NZ         -0.6120   35.5470  -18.8790 N.4      11 LYL4        0.0000 
      3 NZ          2.9260   35.5610  -19.1590 N.4       7 LYP4        0.0000 
      4 N          -1.0390   37.0490  -18.2025 N.am      2 SEC2        0.0000 
      5 N          -0.6120   35.5470  -18.8790 N.am     10 SEL2        0.0000 
      6 N          -1.4660   38.5510  -17.5260 N.am      6 SEP2        0.0000 
      7 N          -1.5260   35.2600  -20.0585 N.am      2 SEC2        0.0000 
      8 N          -2.4400   34.9730  -21.2380 N.am      6 SEP2        0.0000 
      9 NZ          2.0425   35.2140  -18.2280 N.4       3 LYC4        0.0000 
     10 NZ          1.1590   34.8670  -17.2970 N.4      11 LYL4        0.0000 
     11 N           2.0425   35.2140  -18.2280 N.am      2 SEC2        0.0000 
     12 N           1.1590   34.8670  -17.2970 N.am     10 SEL2        0.0000 
     13 N           2.9260   35.5610  -19.1590 N.am      6 SEP2        0.0000 
     14 N          -1.4025   32.6735  -19.2965 N.am      2 SEC2        0.0000 
     15 N          -0.4530   33.0750  -18.3400 N.am     10 SEL2        0.0000 
     16 N          -2.3520   32.2720  -20.2530 N.am      6 SEP2        0.0000 
     17 N          -4.3235   35.3490  -19.4710 N.am      2 SEC2        0.0000 
     18 N          -3.3610   35.4560  -18.1020 N.am     10 SEL2        0.0000 
     19 N          -5.2860   35.2420  -20.8400 N.am      6 SEP2        0.0000 
     20 N          -2.7075   32.6465  -18.8705 N.am      2 SEC2        0.0000 
     21 N          -3.0630   33.0210  -17.4880 N.am     10 SEL2        0.0000 
     22 CA         -6.0825   35.2320  -17.1015 C.3       4 GLC5        0.0000 
     23 CA         -5.0520   34.6230  -15.7270 C.3      12 GLL5        0.0000 
     24 CA         -7.1130   35.8410  -18.4760 C.3       8 GLP5        0.0000 
     25 CA         -4.4690   34.5500  -12.5790 C.3       4 GLC5        0.0000 
     26 CA         -5.5340   34.9150  -14.3060 C.3      12 GLL5        0.0000 
     27 CA         -3.4040   34.1850  -10.8520 C.3       8 GLP5        0.0000 
     28 CA         -7.0725   35.2785  -16.3085 C.3       4 GLC5        0.0000 
     29 CA         -7.0320   34.7160  -14.1410 C.3      12 GLL5        0.0000 
     30 O          -8.1715   37.4500  -11.6015 O.2       1 ALC1        0.0000 
     31 O          -8.2730   36.0700  -12.4800 O.2       9 ALL1        0.0000 
     32 O          -8.0700   38.8300  -10.7230 O.2       5 ALP1        0.0000 
     33 CA         -5.3815   38.7110  -13.7945 C.3       4 GLC5        0.0000 
     34 CA         -6.4310   37.0550  -13.7560 C.3      12 GLL5        0.0000 
     35 CA         -4.3320   40.3670  -13.8330 C.3       8 GLP5        0.0000 
     36 CA         -4.9305   37.1545  -12.3205 C.3       4 GLC5        0.0000 
     37 CA         -3.4300   37.2540  -10.8850 C.3       8 GLP5        0.0000 
     38 CA         -8.9850   42.3100  -16.3480 C.3       4 GLC5        0.0000 
     39 CA         -8.2730   40.5400  -16.7090 C.3      12 GLL5        0.0000 
     40 CA         -9.6970   44.0800  -15.9870 C.3       8 GLP5        0.0000 
     41 O          -9.0845   42.3430  -18.2895 O.2       1 ALC1        0.0000 
     42 O          -8.0390   41.2330  -17.8930 O.2       9 ALL1        0.0000 
     43 O         -10.1300   43.4530  -18.6860 O.2       5 ALP1        0.0000 
     44 N         -10.7250   41.5500  -16.3705 N.am      2 SEC2        0.0000 
     45 N          -9.3810   40.7790  -15.9490 N.am     10 SEL2        0.0000 
     46 N         -12.0690   42.3210  -16.7920 N.am      6 SEP2        0.0000 
     47 CA        -10.2905   38.4240  -15.4735 C.3       4 GLC5        0.0000 
     48 CA         -9.6070   40.1040  -14.8070 C.3      12 GLL5        0.0000 
     49 CA        -10.9740   36.7440  -16.1400 C.3       8 GLP5        0.0000 
     50 CA        -11.4185   40.1985  -15.4750 C.3       4 GLC5        0.0000 
     51 CA        -13.2300   40.2930  -16.1430 C.3       8 GLP5        0.0000 
     52 CA         -9.6520   42.0920  -15.3970 C.3       4 GLC5        0.0000 
     53 CA         -8.6560   41.6250  -13.6645 C.3       4 GLC5        0.0000 
     54 CA         -7.7050   43.1460  -12.5220 C.3       8 GLP5        0.0000 
     55 CA         -9.3015   37.8060  -15.5960 C.3       4 GLC5        0.0000 
     56 CA         -7.6290   38.8680  -15.0520 C.3      12 GLL5        0.0000 
     57 CA         -6.1675   33.1287  -13.0518 C.3       4 GLC5        0.0000 
     58 CA         -6.0520   31.4420  -11.8800 C.3       8 GLP5        0.0000 
     59 CA         -9.1130   35.5040  -14.5723 C.3       4 GLC5        0.0000 
     60 CA        -10.9050   35.6060  -15.1950 C.3       8 GLP5        0.0000 
     61 CA         -7.8662   38.9032  -18.1638 C.3       4 GLC5        0.0000 
     62 CA         -7.3460   39.5550  -16.2660 C.3      12 GLL5        0.0000 
     63 CA         -7.9230   37.7590  -19.8400 C.3       8 GLP5        0.0000 
     64 CA         -5.9097   39.7892  -14.7460 C.3       4 GLC5        0.0000 
@<TRIPOS>BOND
@<TRIPOS>SUBSTRUCTURE
     1 ALC1       30 GROUP        1 X    ALC  0     ROOT ALC X 1
     2 SEC2        4 GROUP        1 X    SEC  0     **** SEC X 2
     3 LYC4        1 GROUP        1 X    LYC  0     **** LYC X 4
     4 GLC5       22 GROUP        1 X    GLC  0     **** GLC X 6
     5 ALP1       32 GROUP        1 Y    ALP  0     ROOT ALP Y 8
     6 SEP2        6 GROUP        1 Y    SEP  0     **** SEP Y 9
     7 LYP4        3 GROUP        1 Y    LYP  0     **** LYP Y 11
     8 GLP5       24 GROUP        1 Y    GLP  0     **** GLP Y 13
     9 ALL1       31 GROUP        1 Z    ALL  0     ROOT ALL Z 15
    10 SEL2        5 GROUP        1 Z    SEL  0     **** SEL Z 16
    11 LYL4        2 GROUP        1 Z    LYL  0     **** LYL Z 18
    12 GLL5       23 GROUP        1 Z    GLL  0     **** GLL Z 20
@<TRIPOS>SET

