#    Name: 3sfz_ADP_6_ligand
#    Modification time : Tue Mar 25 12:34:40 2014

@<TRIPOS>MOLECULE
3sfz_ADP_6_ligand
   39    41     1     0     0
SMALL
NO_CHARGES


@<TRIPOS>ATOM
      1 PB         -0.3260   34.5950  -17.8120 P.3       1 ADP1250     0.0000 
      2 O1B        -0.6120   35.5470  -18.8790 O.co2     1 ADP1250     0.0000 
      3 O2B         1.1590   34.8670  -17.2970 O.co2     1 ADP1250     0.0000 
      4 O3B        -0.4530   33.0750  -18.3400 O.co2     1 ADP1250     0.0000 
      5 PA         -2.8900   34.5520  -17.0360 P.3       1 ADP1250     0.0000 
      6 O1A        -3.3610   35.4560  -18.1020 O.co2     1 ADP1250     0.0000 
      7 O2A        -3.0630   33.0210  -17.4880 O.co2     1 ADP1250     0.0000 
      8 O3A        -1.3360   34.8340  -16.6200 O.3       1 ADP1250     0.0000 
      9 O5'        -3.6570   34.8350  -15.6570 O.3       1 ADP1250     0.0000 
     10 C5'        -5.0520   34.6230  -15.7270 C.3       1 ADP1250     0.0000 
     11 C4'        -5.5340   34.9150  -14.3060 C.3       1 ADP1250     0.0000 
     12 O4'        -5.2160   36.2680  -13.8910 O.3       1 ADP1250     0.0000 
     13 C3'        -7.0320   34.7160  -14.1410 C.3       1 ADP1250     0.0000 
     14 O3'        -7.2720   33.7240  -13.1560 O.3       1 ADP1250     0.0000 
     15 C2'        -7.6100   36.0880  -13.7580 C.3       1 ADP1250     0.0000 
     16 O2'        -8.2730   36.0700  -12.4800 O.3       1 ADP1250     0.0000 
     17 C1'        -6.4310   37.0550  -13.7560 C.3       1 ADP1250     0.0000 
     18 N9         -6.5900   37.9930  -14.8740 N.pl3     1 ADP1250     0.0000 
     19 C8         -5.7370   38.1580  -15.9310 C.2       1 ADP1250     0.0000 
     20 N7         -6.1810   39.0690  -16.7410 N.2       1 ADP1250     0.0000 
     21 C5         -7.3460   39.5550  -16.2660 C.ar      1 ADP1250     0.0000 
     22 C6         -8.2730   40.5400  -16.7090 C.ar      1 ADP1250     0.0000 
     23 N6         -8.0390   41.2330  -17.8930 N.pl3     1 ADP1250     0.0000 
     24 N1         -9.3810   40.7790  -15.9490 N.ar      1 ADP1250     0.0000 
     25 C2         -9.6070   40.1040  -14.8070 C.ar      1 ADP1250     0.0000 
     26 N3         -8.7560   39.1670  -14.3620 N.ar      1 ADP1250     0.0000 
     27 C4         -7.6290   38.8680  -15.0520 C.ar      1 ADP1250     0.0000 
     28 H          -5.3067   33.6061  -15.9614 H         1 ADP1250     0.0000 
     29 H          -5.5438   35.3087  -16.3917 H         1 ADP1250     0.0000 
     30 H          -5.0374   34.2068  -13.6283 H         1 ADP1250     0.0000 
     31 H          -7.4307   34.4485  -15.1046 H         1 ADP1250     0.0000 
     32 H          -8.2753   36.3912  -14.5552 H         1 ADP1250     0.0000 
     33 H          -6.4412   37.5794  -12.8204 H         1 ADP1250     0.0000 
     34 H          -4.9054   37.6349  -16.0283 H         1 ADP1250     0.0000 
     35 H          -8.7254   41.9145  -18.1470 H         1 ADP1250     0.0000 
     36 H          -7.2047   40.9897  -18.3877 H         1 ADP1250     0.0000 
     37 H         -10.4763   40.3184  -14.2483 H         1 ADP1250     0.0000 
     38 H          -7.5539   34.2311  -12.3415 H         1 ADP1250     0.0000 
     39 H          -8.1049   36.9747  -12.0886 H         1 ADP1250     0.0000 
@<TRIPOS>BOND
     1    2    1 ar   
     2    3    1 ar   
     3    4    1 ar   
     4    8    1 1    
     5    6    5 ar   
     6    7    5 ar   
     7    8    5 1    
     8    9    5 1    
     9   10    9 1    
    10   11   10 1    
    11   28   10 1    
    12   29   10 1    
    13   12   11 1    
    14   13   11 1    
    15   30   11 1    
    16   17   12 1    
    17   14   13 1    
    18   15   13 1    
    19   31   13 1    
    20   38   14 1    
    21   16   15 1    
    22   17   15 1    
    23   32   15 1    
    24   39   16 1    
    25   18   17 1    
    26   33   17 1    
    27   19   18 1    
    28   27   18 1    
    29   20   19 2    
    30   34   19 1    
    31   21   20 1    
    32   22   21 ar   
    33   27   21 ar   
    34   23   22 1    
    35   24   22 ar   
    36   35   23 1    
    37   36   23 1    
    38   25   24 ar   
    39   26   25 ar   
    40   37   25 1    
    41   27   26 ar   
@<TRIPOS>SUBSTRUCTURE
     1 ADP1250     1 GROUP   
@<TRIPOS>SET

