#    Name: 2e99_B08_4_INTS_M
#    Modification time : Tue Mar 25 10:45:52 2014

@<TRIPOS>MOLECULE
2e99_B08_4_INTS_M
   63     0     6     0     0
SMALL
NO_CHARGES


@<TRIPOS>ATOM
      1 CA         12.0075   38.6175   25.8050 C.3       2 GLC5        0.0000 
      2 CA         10.1760   38.3840   26.7040 C.3       6 GLL5        0.0000 
      3 CA         13.8390   38.8510   24.9060 C.3       4 GLP5        0.0000 
      4 CA         11.2220   40.4380   26.0850 C.3       2 GLC5        0.0000 
      5 CA          9.3840   39.3190   26.0490 C.3       6 GLL5        0.0000 
      6 CA         13.0600   41.5570   26.1210 C.3       4 GLP5        0.0000 
      7 CA         10.3905   34.3210   28.9890 C.3       2 GLC5        0.0000 
      8 CA          8.3770   35.1780   28.7400 C.3       6 GLL5        0.0000 
      9 CA         12.4040   33.4640   29.2380 C.3       4 GLP5        0.0000 
     10 CA          6.7360   30.7790   29.8060 C.3       2 GLC5        0.0000 
     11 CA          8.5680   31.8970   30.1910 C.3       6 GLL5        0.0000 
     12 CA          4.9040   29.6610   29.4210 C.3       4 GLP5        0.0000 
     13 CA         10.6660   34.6225   33.0105 C.3       2 GLC5        0.0000 
     14 CA          9.9960   33.2480   32.1560 C.3       6 GLL5        0.0000 
     15 CA         11.3360   35.9970   33.8650 C.3       4 GLP5        0.0000 
     16 CA         10.8550   32.3200   30.1830 C.3       2 GLC5        0.0000 
     17 CA          9.3060   31.1760   31.1280 C.3       6 GLL5        0.0000 
     18 CA         11.0695   28.4270   30.5990 C.3       2 GLC5        0.0000 
     19 CA          9.4130   29.6470   31.0670 C.3       6 GLL5        0.0000 
     20 CA         12.7260   27.2070   30.1310 C.3       4 GLP5        0.0000 
     21 CA          6.9690   29.9010   32.8610 C.3       2 GLC5        0.0000 
     22 CA          8.3750   28.9040   31.9190 C.3       6 GLL5        0.0000 
     23 CA          5.5630   30.8980   33.8030 C.3       4 GLP5        0.0000 
     24 CA          6.6395   29.2825   30.6700 C.3       2 GLC5        0.0000 
     25 N           6.6745   27.8625   29.4125 N.am      1 SEC2        0.0000 
     26 N           7.8640   27.2650   29.7200 N.am      5 SEL2        0.0000 
     27 N           5.4850   28.4600   29.1050 N.am      3 SEP2        0.0000 
     28 N          10.7425   26.3010   30.6910 N.am      1 SEC2        0.0000 
     29 N           9.6690   26.4910   31.3800 N.am      5 SEL2        0.0000 
     30 N          11.8160   26.1110   30.0020 N.am      3 SEP2        0.0000 
     31 N           8.9315   30.6015   35.7615 N.am      1 SEC2        0.0000 
     32 N           8.7340   30.3230   34.2810 N.am      5 SEL2        0.0000 
     33 N           9.1290   30.8800   37.2420 N.am      3 SEP2        0.0000 
     34 N           7.6830   30.4885   35.1370 N.am      1 SEC2        0.0000 
     35 N           6.6320   30.6540   35.9930 N.am      3 SEP2        0.0000 
     36 N           6.6430   28.0045   34.8005 N.am      1 SEC2        0.0000 
     37 N           8.0120   27.8370   34.4680 N.am      5 SEL2        0.0000 
     38 N           5.2740   28.1720   35.1330 N.am      3 SEP2        0.0000 
     39 N           6.8915   31.0095   32.0695 N.am      1 SEC2        0.0000 
     40 N           7.0980   29.5280   31.7640 N.am      5 SEL2        0.0000 
     41 N           6.6850   32.4910   32.3750 N.am      3 SEP2        0.0000 
     42 CA          8.8555   38.5508   28.6517 C.3       2 GLC5        0.0000 
     43 CA          9.5940   37.2730   27.3030 C.3       6 GLL5        0.0000 
     44 CA          7.8260   39.2730   30.3000 C.3       4 GLP5        0.0000 
     45 CA          8.3290   40.3623   27.5715 C.3       2 GLC5        0.0000 
     46 CA          7.9630   41.4980   29.1210 C.3       4 GLP5        0.0000 
     47 CA          7.8230   38.4135   28.6140 C.3       2 GLC5        0.0000 
     48 CA          7.4260   38.0210   26.5980 C.3       6 GLL5        0.0000 
     49 CA          8.6800   36.3757   30.0763 C.3       2 GLC5        0.0000 
     50 CA          7.6290   35.9990   27.9010 C.3       6 GLL5        0.0000 
     51 CA          9.3570   37.1630   31.8320 C.3       4 GLP5        0.0000 
     52 CA          7.9145   37.4308   29.3102 C.3       2 GLC5        0.0000 
     53 CA          4.8643   36.5562   28.6013 C.3       2 GLC5        0.0000 
     54 CA          6.2950   35.6870   27.6550 C.3       6 GLL5        0.0000 
     55 CA          3.7160   37.9910   29.2590 C.3       4 GLP5        0.0000 
     56 CA          4.4712   32.9925   29.1863 C.3       2 GLC5        0.0000 
     57 CA          5.7300   34.5560   28.2320 C.3       6 GLL5        0.0000 
     58 CA          2.8340   31.8410   29.7260 C.3       4 GLP5        0.0000 
     59 CA          9.0385   35.4891   31.1651 C.3       2 GLC5        0.0000 
     60 CA          9.2610   33.9630   31.2180 C.3       6 GLL5        0.0000 
     61 CA         10.6561   33.3711   29.9768 C.3       2 GLC5        0.0000 
     62 CA         11.6280   33.1208   31.3320 C.3       2 GLC5        0.0000 
     63 CA         13.2500   33.6880   30.5310 C.3       4 GLP5        0.0000 
@<TRIPOS>BOND
@<TRIPOS>SUBSTRUCTURE
     1 SEC2       25 GROUP        1 X    SEC  0     ROOT SEC X 2
     2 GLC5        1 GROUP        1 X    GLC  0     **** GLC X 6
     3 SEP2       27 GROUP        1 Y    SEP  0     ROOT SEP Y 9
     4 GLP5        3 GROUP        1 Y    GLP  0     **** GLP Y 13
     5 SEL2       26 GROUP        1 Z    SEL  0     ROOT SEL Z 16
     6 GLL5        2 GROUP        1 Z    GLL  0     **** GLL Z 20
@<TRIPOS>SET

