#    Name: 2e99_B08_4_ligand
#    Modification time : Tue Mar 25 10:45:52 2014

@<TRIPOS>MOLECULE
2e99_B08_4_ligand
   45    47     1     0     0
SMALL
NO_CHARGES


@<TRIPOS>ATOM
      1 CAN         9.5940   37.2730   27.3030 C.ar      1 B08508      0.0000 
      2 CAI        10.1760   38.3840   26.7040 C.ar      1 B08508      0.0000 
      3 CAH         9.3840   39.3190   26.0490 C.ar      1 B08508      0.0000 
      4 CAJ         8.0060   39.1340   25.9950 C.ar      1 B08508      0.0000 
      5 CAO         7.4260   38.0210   26.5980 C.ar      1 B08508      0.0000 
      6 CAW         8.2140   37.0870   27.2580 C.ar      1 B08508      0.0000 
      7 CAY         7.6290   35.9990   27.9010 C.ar      1 B08508      0.0000 
      8 CAT         8.3770   35.1780   28.7400 C.ar      1 B08508      0.0000 
      9 CAQ         6.2950   35.6870   27.6550 C.ar      1 B08508      0.0000 
     10 CAL         5.7300   34.5560   28.2320 C.ar      1 B08508      0.0000 
     11 CAR         6.4870   33.7320   29.0610 C.ar      1 B08508      0.0000 
     12 CAZ         7.8150   34.0450   29.3220 C.ar      1 B08508      0.0000 
     13 CAX         8.5430   33.2900   30.2350 C.ar      1 B08508      0.0000 
     14 CAS         8.5680   31.8970   30.1910 C.ar      1 B08508      0.0000 
     15 CAP         9.2610   33.9630   31.2180 C.ar      1 B08508      0.0000 
     16 CAK         9.9960   33.2480   32.1560 C.ar      1 B08508      0.0000 
     17 CAM        10.0160   31.8590   32.1100 C.ar      1 B08508      0.0000 
     18 CAV         9.3060   31.1760   31.1280 C.ar      1 B08508      0.0000 
     19 CAU         9.4130   29.6470   31.0670 C.3       1 B08508      0.0000 
     20 CBA         8.3750   28.9040   31.9190 C.3       1 B08508      0.0000 
     21 PBB         8.2030   27.1560   31.2890 P.3       1 B08508      0.0000 
     22 OAD         7.8640   27.2650   29.7200 O.co2     1 B08508      0.0000 
     23 OAE         9.6690   26.4910   31.3800 O.co2     1 B08508      0.0000 
     24 OAA         7.1860   26.4070   32.0610 O.co2     1 B08508      0.0000 
     25 PBC         8.8410   28.8130   33.7260 P.3       1 B08508      0.0000 
     26 OAF        10.3960   28.3880   33.7930 O.co2     1 B08508      0.0000 
     27 OAG         8.7340   30.3230   34.2810 O.co2     1 B08508      0.0000 
     28 OAB         8.0120   27.8370   34.4680 O.co2     1 B08508      0.0000 
     29 OAC         7.0980   29.5280   31.7640 O.3       1 B08508      0.0000 
     30 H          10.1870   36.5801   27.7849 H         1 B08508      0.0000 
     31 H          11.1965   38.5143   26.7459 H         1 B08508      0.0000 
     32 H           9.8112   40.1401   25.6081 H         1 B08508      0.0000 
     33 H           7.4141   39.8207   25.5087 H         1 B08508      0.0000 
     34 H           6.4037   37.8906   26.5533 H         1 B08508      0.0000 
     35 H           9.3658   35.4132   28.9342 H         1 B08508      0.0000 
     36 H           5.7295   36.2928   27.0474 H         1 B08508      0.0000 
     37 H           4.7422   34.3239   28.0455 H         1 B08508      0.0000 
     38 H           6.0627   32.8945   29.4781 H         1 B08508      0.0000 
     39 H           8.0384   31.3981   29.4624 H         1 B08508      0.0000 
     40 H           9.2476   34.9913   31.2503 H         1 B08508      0.0000 
     41 H          10.5248   33.7462   32.8837 H         1 B08508      0.0000 
     42 H          10.5608   31.3307   32.8085 H         1 B08508      0.0000 
     43 H          10.4225   29.3473   31.3951 H         1 B08508      0.0000 
     44 H           9.3082   29.3243   30.0175 H         1 B08508      0.0000 
     45 H           6.9831   29.6405   30.7770 H         1 B08508      0.0000 
@<TRIPOS>BOND
     1    2    1 ar   
     2    6    1 ar   
     3   30    1 1    
     4    3    2 ar   
     5   31    2 1    
     6    4    3 ar   
     7   32    3 1    
     8    5    4 ar   
     9   33    4 1    
    10    6    5 ar   
    11   34    5 1    
    12    7    6 1    
    13    8    7 ar   
    14    9    7 ar   
    15   12    8 ar   
    16   35    8 1    
    17   10    9 ar   
    18   36    9 1    
    19   11   10 ar   
    20   37   10 1    
    21   12   11 ar   
    22   38   11 1    
    23   13   12 1    
    24   14   13 ar   
    25   15   13 ar   
    26   18   14 ar   
    27   39   14 1    
    28   16   15 ar   
    29   40   15 1    
    30   17   16 ar   
    31   41   16 1    
    32   18   17 ar   
    33   42   17 1    
    34   19   18 1    
    35   20   19 1    
    36   43   19 1    
    37   44   19 1    
    38   21   20 1    
    39   25   20 1    
    40   29   20 1    
    41   22   21 ar   
    42   23   21 ar   
    43   24   21 ar   
    44   26   25 ar   
    45   27   25 ar   
    46   28   25 ar   
    47   45   29 1    
@<TRIPOS>SUBSTRUCTURE
     1 B08508      1 GROUP   
@<TRIPOS>SET

