#    Name: 3elc_F01_2_INTS_M
#    Modification time : Tue Mar 25 02:05:42 2014

@<TRIPOS>MOLECULE
3elc_F01_2_INTS_M
   28     0     9     0     0
SMALL
NO_CHARGES


@<TRIPOS>ATOM
      1 N          40.4465   10.4910    9.8050 N.am      2 SEC2        0.0000 
      2 N          39.8550   11.6580   10.5740 N.am      8 SEL2        0.0000 
      3 N          41.0380    9.3240    9.0360 N.am      5 SEP2        0.0000 
      4 N          39.3945   11.2995    9.3505 N.am      2 SEC2        0.0000 
      5 N          38.9340   10.9410    8.1270 N.am      5 SEP2        0.0000 
      6 N          40.9725    9.6770   10.3770 N.am      2 SEC2        0.0000 
      7 N          40.9070   10.0300   11.7180 N.am      8 SEL2        0.0000 
      8 O          42.6225    7.5610   14.1595 O.2       1 ALC1        0.0000 
      9 O          42.0010    8.3470   12.9340 O.2       7 ALL1        0.0000 
     10 O          43.2440    6.7750   15.3850 O.2       4 ALP1        0.0000 
     11 O          42.8530    7.9870   11.6980 O.2       1 ALC1        0.0000 
     12 O          43.7050    7.6270   10.4620 O.2       4 ALP1        0.0000 
     13 O          35.1305   13.0385   14.8005 O.2       1 ALC1        0.0000 
     14 O          36.1940   13.8220   14.9830 O.2       7 ALL1        0.0000 
     15 O          34.0670   12.2550   14.6180 O.2       4 ALP1        0.0000 
     16 CA         42.3323    9.8347   15.9820 C.3       3 GLC5        0.0000 
     17 CA         41.3610    9.6470   15.3030 C.3       9 GLL5        0.0000 
     18 CA         43.4910    9.7730   17.2520 C.3       6 GLP5        0.0000 
     19 CA         42.1684   11.2876   13.4135 C.3       3 GLC5        0.0000 
     20 CA         40.9860   10.1460   14.1210 C.3       9 GLL5        0.0000 
     21 CA         43.6160   11.9610   12.4180 C.3       6 GLP5        0.0000 
     22 CA         39.2799    9.5366   13.6145 C.3       3 GLC5        0.0000 
     23 CA         37.8390    8.4590   12.8200 C.3       6 GLP5        0.0000 
     24 CA         39.6869    9.7016   15.8285 C.3       3 GLC5        0.0000 
     25 CA         38.6530    8.7890   17.2480 C.3       6 GLP5        0.0000 
     26 CA         36.7469   15.3624   15.0679 C.3       3 GLC5        0.0000 
     27 CA         38.9910   14.6120   16.1980 C.3       9 GLL5        0.0000 
     28 CA         35.3660   16.7650   15.0900 C.3       6 GLP5        0.0000 
@<TRIPOS>BOND
@<TRIPOS>SUBSTRUCTURE
     1 ALC1        8 GROUP        1 X    ALC  0     ROOT ALC X 1
     2 SEC2        1 GROUP        1 X    SEC  0     **** SEC X 2
     3 GLC5       16 GROUP        1 X    GLC  0     **** GLC X 6
     4 ALP1       10 GROUP        1 Y    ALP  0     ROOT ALP Y 8
     5 SEP2        3 GROUP        1 Y    SEP  0     **** SEP Y 9
     6 GLP5       18 GROUP        1 Y    GLP  0     **** GLP Y 13
     7 ALL1        9 GROUP        1 Z    ALL  0     ROOT ALL Z 15
     8 SEL2        2 GROUP        1 Z    SEL  0     **** SEL Z 16
     9 GLL5       17 GROUP        1 Z    GLL  0     **** GLL Z 20
@<TRIPOS>SET

