#    Name: 3elc_F01_2_ligand
#    Modification time : Tue Mar 25 02:05:42 2014

@<TRIPOS>MOLECULE
3elc_F01_2_ligand
   30    31     1     0     0
SMALL
NO_CHARGES


@<TRIPOS>ATOM
      1 O1         39.8550   11.6580   10.5740 O.2       1 F01902      0.0000 
      2 C6         40.1840   11.2230   11.6760 C.2       1 F01902      0.0000 
      3 N1         40.9070   10.0300   11.7180 N.2       1 F01902      0.0000 
      4 C7         41.3110    9.4860   12.9370 C.2       1 F01902      0.0000 
      5 N2         42.0010    8.3470   12.9340 N.pl3     1 F01902      0.0000 
      6 C8         40.9860   10.1460   14.1210 C.2       1 F01902      0.0000 
      7 F1         41.3610    9.6470   15.3030 F         1 F01902      0.0000 
      8 C9         40.2680   11.3320   14.1060 C.2       1 F01902      0.0000 
      9 N3         39.8540   11.8890   12.8820 N.am      1 F01902      0.0000 
     10 C1         39.0970   13.1740   12.8730 C.3       1 F01902      0.0000 
     11 O4         39.6200   14.0680   13.9200 O.3       1 F01902      0.0000 
     12 C4         38.5140   14.4970   14.7430 C.3       1 F01902      0.0000 
     13 C5         38.9910   14.6120   16.1980 C.3       1 F01902      0.0000 
     14 O5         39.2970   13.3110   16.7340 O.3       1 F01902      0.0000 
     15 C3         37.5030   13.3650   14.6210 C.3       1 F01902      0.0000 
     16 O3         36.1940   13.8220   14.9830 O.3       1 F01902      0.0000 
     17 C2         37.6040   13.0060   13.1420 C.3       1 F01902      0.0000 
     18 O2         36.9190   13.9570   12.3270 O.3       1 F01902      0.0000 
     19 H          42.2035    7.9576   12.0355 H         1 F01902      0.0000 
     20 H          42.2545    7.9837   13.8305 H         1 F01902      0.0000 
     21 H          40.0338   11.8109   14.9831 H         1 F01902      0.0000 
     22 H          39.2109   13.6628   11.9123 H         1 F01902      0.0000 
     23 H          38.0945   15.3880   14.4156 H         1 F01902      0.0000 
     24 H          38.1968   15.1067   16.7710 H         1 F01902      0.0000 
     25 H          39.8697   15.2690   16.2098 H         1 F01902      0.0000 
     26 H          37.8521   12.5484   15.1906 H         1 F01902      0.0000 
     27 H          37.3413   12.0200   12.9930 H         1 F01902      0.0000 
     28 H          40.2615   13.1617   16.5160 H         1 F01902      0.0000 
     29 H          35.5808   13.0711   14.7377 H         1 F01902      0.0000 
     30 H          36.1660   14.2896   12.8949 H         1 F01902      0.0000 
@<TRIPOS>BOND
     1    2    1 2    
     2    3    2 1    
     3    9    2 am   
     4    4    3 2    
     5    5    4 1    
     6    6    4 1    
     7   19    5 1    
     8   20    5 1    
     9    7    6 1    
    10    8    6 2    
    11    9    8 1    
    12   21    8 1    
    13   10    9 1    
    14   11   10 1    
    15   17   10 1    
    16   22   10 1    
    17   12   11 1    
    18   13   12 1    
    19   15   12 1    
    20   23   12 1    
    21   14   13 1    
    22   24   13 1    
    23   25   13 1    
    24   28   14 1    
    25   16   15 1    
    26   17   15 1    
    27   26   15 1    
    28   29   16 1    
    29   18   17 1    
    30   27   17 1    
    31   30   18 1    
@<TRIPOS>SUBSTRUCTURE
     1 F01902      1 GROUP   
@<TRIPOS>SET

