#    Name: 3bhj_AB3_1_INTS_M
#    Modification time : Mon Mar 24 19:34:10 2014

@<TRIPOS>MOLECULE
3bhj_AB3_1_INTS_M
   38     0     9     0     0
SMALL
NO_CHARGES


@<TRIPOS>ATOM
      1 CA         28.4005   19.4215   -0.9190 C.3       3 GLC5        0.0000 
      2 CA         29.9920   18.1390   -0.4310 C.3       9 GLL5        0.0000 
      3 CA         26.8090   20.7040   -1.4070 C.3       6 GLP5        0.0000 
      4 CA         24.8490   15.3630   -1.2550 C.3       3 GLC5        0.0000 
      5 CA         26.0900   13.8720   -1.7350 C.3       9 GLL5        0.0000 
      6 CA         23.6080   16.8540   -0.7750 C.3       6 GLP5        0.0000 
      7 CA         26.0620   12.2425    0.8345 C.3       3 GLC5        0.0000 
      8 CA         25.6930   14.1030    0.5500 C.3       9 GLL5        0.0000 
      9 CA         26.4310   10.3820    1.1190 C.3       6 GLP5        0.0000 
     10 CA         28.6040   14.8230    2.3470 C.3       3 GLC5        0.0000 
     11 CA         27.0370   15.9730    2.9970 C.3       9 GLL5        0.0000 
     12 CA         30.1710   13.6730    1.6970 C.3       6 GLP5        0.0000 
     13 CA         26.4300   12.8650    5.8085 C.3       3 GLC5        0.0000 
     14 CA         26.6400   14.9660    5.1750 C.3       9 GLL5        0.0000 
     15 CA         26.2200   10.7640    6.4420 C.3       6 GLP5        0.0000 
     16 N          26.5295   13.9480    7.1775 N.am      2 SEC2        0.0000 
     17 N          26.4850   13.8570    5.9500 N.am      8 SEL2        0.0000 
     18 N          26.5740   14.0390    8.4050 N.am      5 SEP2        0.0000 
     19 O          26.5915   12.6685    5.6210 O.2       1 ALC1        0.0000 
     20 O          26.4850   13.8570    5.9500 O.2       7 ALL1        0.0000 
     21 O          26.6980   11.4800    5.2920 O.2       4 ALP1        0.0000 
     22 CA         29.9810   15.0730    0.1473 C.3       3 GLC5        0.0000 
     23 CA         29.2810   16.9990   -1.1730 C.3       9 GLL5        0.0000 
     24 CA         27.4745   18.4855   -1.2685 C.3       3 GLC5        0.0000 
     25 CA         26.0660   19.6910   -0.7650 C.3       6 GLP5        0.0000 
     26 CA         28.6137   14.4527    0.8733 C.3       3 GLC5        0.0000 
     27 CA         27.3980   15.3970   -0.5380 C.3       9 GLL5        0.0000 
     28 CA         24.9914   15.7609   -0.2376 C.3       3 GLC5        0.0000 
     29 CA         26.7150   15.0680    0.6370 C.3       9 GLL5        0.0000 
     30 CA         28.2327   13.5538    4.2372 C.3       3 GLC5        0.0000 
     31 CA         26.9030   14.8270    3.8040 C.3       9 GLL5        0.0000 
     32 CA         29.6940   12.2110    3.9850 C.3       6 GLP5        0.0000 
     33 CA         25.8920   18.9428    4.0303 C.3       3 GLC5        0.0000 
     34 CA         26.9450   17.2390    3.5980 C.3       9 GLL5        0.0000 
     35 CA         24.9750   20.5760    3.7770 C.3       6 GLP5        0.0000 
     36 CA         26.2293   17.3073    7.2793 C.3       3 GLC5        0.0000 
     37 CA         26.6730   17.3800    4.9690 C.3       9 GLL5        0.0000 
     38 CA         25.8600   17.8090    9.1920 C.3       6 GLP5        0.0000 
@<TRIPOS>BOND
@<TRIPOS>SUBSTRUCTURE
     1 ALC1       19 GROUP        1 X    ALC  0     ROOT ALC X 1
     2 SEC2       16 GROUP        1 X    SEC  0     **** SEC X 2
     3 GLC5        1 GROUP        1 X    GLC  0     **** GLC X 6
     4 ALP1       21 GROUP        1 Y    ALP  0     ROOT ALP Y 8
     5 SEP2       18 GROUP        1 Y    SEP  0     **** SEP Y 9
     6 GLP5        3 GROUP        1 Y    GLP  0     **** GLP Y 13
     7 ALL1       20 GROUP        1 Z    ALL  0     ROOT ALL Z 15
     8 SEL2       17 GROUP        1 Z    SEL  0     **** SEL Z 16
     9 GLL5        2 GROUP        1 Z    GLL  0     **** GLL Z 20
@<TRIPOS>SET

