#    Name: 3bhj_AB3_1_ligand
#    Modification time : Mon Mar 24 19:34:10 2014

@<TRIPOS>MOLECULE
3bhj_AB3_1_ligand
   38    40     1     0     0
SMALL
NO_CHARGES


@<TRIPOS>ATOM
      1 C20        29.9920   18.1390   -0.4310 C.3       1 AB3307      0.0000 
      2 C14        29.2810   16.9990   -1.1730 C.3       1 AB3307      0.0000 
      3 C19        30.3010   15.9470   -1.6320 C.3       1 AB3307      0.0000 
      4 C21        28.4850   17.5610   -2.3710 C.3       1 AB3307      0.0000 
      5 N11        28.2990   16.3330   -0.2160 N.pl3     1 AB3307      0.0000 
      6 N15        28.2590   16.6110    0.9980 N.2       1 AB3307      0.0000 
      7 C7         27.3980   15.3970   -0.5380 C.ar      1 AB3307      0.0000 
      8 N3         27.0560   14.7910   -1.7020 N.ar      1 AB3307      0.0000 
      9 C6         26.0900   13.8720   -1.7350 C.ar      1 AB3307      0.0000 
     10 N5         25.4230   13.5310   -0.6420 N.ar      1 AB3307      0.0000 
     11 C2         25.6930   14.1030    0.5500 C.ar      1 AB3307      0.0000 
     12 N1         24.9600   13.6940    1.5950 N.pl3     1 AB3307      0.0000 
     13 C4         26.7150   15.0680    0.6370 C.ar      1 AB3307      0.0000 
     14 C13        27.3230   15.8810    1.6180 C.2       1 AB3307      0.0000 
     15 C18        27.0370   15.9730    2.9970 C.ar      1 AB3307      0.0000 
     16 C28        26.9030   14.8270    3.8040 C.ar      1 AB3307      0.0000 
     17 C27        26.9450   17.2390    3.5980 C.ar      1 AB3307      0.0000 
     18 C30        26.6730   17.3800    4.9690 C.ar      1 AB3307      0.0000 
     19 C26        26.5240   16.2310    5.7640 C.ar      1 AB3307      0.0000 
     20 C29        26.6400   14.9660    5.1750 C.ar      1 AB3307      0.0000 
     21 O33        26.4850   13.8570    5.9500 O.3       1 AB3307      0.0000 
     22 H          25.8539   13.4072   -2.6560 H         1 AB3307      0.0000 
     23 H          25.1693   14.1226    2.4739 H         1 AB3307      0.0000 
     24 H          24.2694   12.9969    1.4022 H         1 AB3307      0.0000 
     25 H          26.9975   13.8974    3.3899 H         1 AB3307      0.0000 
     26 H          27.0802   18.0847    3.0197 H         1 AB3307      0.0000 
     27 H          26.5845   18.3069    5.3833 H         1 AB3307      0.0000 
     28 H          26.3328   16.3201    6.7625 H         1 AB3307      0.0000 
     29 H          30.4769   17.8093    0.3791 H         1 AB3307      0.0000 
     30 H          30.6667   18.5956   -1.0109 H         1 AB3307      0.0000 
     31 H          29.3485   18.8396   -0.1226 H         1 AB3307      0.0000 
     32 H          30.9841   16.3367   -2.2496 H         1 AB3307      0.0000 
     33 H          30.7969   15.5489   -0.8602 H         1 AB3307      0.0000 
     34 H          29.8622   15.1920   -2.1192 H         1 AB3307      0.0000 
     35 H          29.0789   18.0314   -3.0237 H         1 AB3307      0.0000 
     36 H          28.0112   16.8382   -2.8740 H         1 AB3307      0.0000 
     37 H          27.7906   18.2189   -2.0797 H         1 AB3307      0.0000 
     38 H          26.6462   13.0861    5.3337 H         1 AB3307      0.0000 
@<TRIPOS>BOND
     1    2    1 1    
     2   29    1 1    
     3   30    1 1    
     4   31    1 1    
     5    3    2 1    
     6    4    2 1    
     7    5    2 1    
     8   32    3 1    
     9   33    3 1    
    10   34    3 1    
    11   35    4 1    
    12   36    4 1    
    13   37    4 1    
    14    6    5 1    
    15    7    5 1    
    16   14    6 2    
    17    8    7 ar   
    18   13    7 ar   
    19    9    8 ar   
    20   10    9 ar   
    21   22    9 1    
    22   11   10 ar   
    23   12   11 1    
    24   13   11 ar   
    25   23   12 1    
    26   24   12 1    
    27   14   13 1    
    28   15   14 1    
    29   16   15 ar   
    30   17   15 ar   
    31   20   16 ar   
    32   25   16 1    
    33   18   17 ar   
    34   26   17 1    
    35   19   18 ar   
    36   27   18 1    
    37   20   19 ar   
    38   28   19 1    
    39   21   20 1    
    40   38   21 1    
@<TRIPOS>SUBSTRUCTURE
     1 AB3307      1 GROUP   
@<TRIPOS>SET

