#    Name: 2gcg_NDP_3_INTS_M
#    Modification time : Tue Mar 25 14:00:43 2014

@<TRIPOS>MOLECULE
2gcg_NDP_3_INTS_M
   62     0     9     0     0
SMALL
NO_CHARGES


@<TRIPOS>ATOM
      1 N         -19.6175   11.7510  -39.8690 N.am      2 SEC2        0.0000 
      2 N         -19.8810   13.4450  -39.9860 N.am      8 SEL2        0.0000 
      3 N         -19.3540   10.0570  -39.7520 N.am      5 SEP2        0.0000 
      4 CA        -14.4300   14.5805  -40.6845 C.3       3 GLC5        0.0000 
      5 CA        -16.2700   15.3440  -40.5480 C.3       9 GLL5        0.0000 
      6 CA        -12.5900   13.8170  -40.8210 C.3       6 GLP5        0.0000 
      7 N         -15.8600   17.2575  -42.3900 N.am      2 SEC2        0.0000 
      8 N         -15.6240   16.5230  -40.9620 N.am      8 SEL2        0.0000 
      9 N         -16.0960   17.9920  -43.8180 N.am      5 SEP2        0.0000 
     10 CA        -13.6685   15.2915  -40.3535 C.3       3 GLC5        0.0000 
     11 CA        -14.7470   16.7660  -39.8860 C.3       9 GLL5        0.0000 
     12 CA        -14.5800   16.5075  -41.8960 C.3       3 GLC5        0.0000 
     13 CA        -14.4130   16.2490  -43.9060 C.3       6 GLP5        0.0000 
     14 CA         -9.7600   16.3865  -41.8745 C.3       3 GLC5        0.0000 
     15 CA        -10.3820   17.0040  -40.3100 C.3       9 GLL5        0.0000 
     16 CA         -9.1380   15.7690  -43.4390 C.3       6 GLP5        0.0000 
     17 CA        -11.4860   15.4105  -40.5655 C.3       3 GLC5        0.0000 
     18 CA         -8.8885   16.4085  -40.1700 C.3       3 GLC5        0.0000 
     19 CA         -7.3950   15.8130  -40.0300 C.3       6 GLP5        0.0000 
     20 CA        -10.2810   16.7255  -38.5640 C.3       3 GLC5        0.0000 
     21 CA        -10.1800   16.4470  -36.8180 C.3       6 GLP5        0.0000 
     22 CA        -11.7895   17.0605  -41.9730 C.3       3 GLC5        0.0000 
     23 CA        -13.1970   17.1170  -43.6360 C.3       6 GLP5        0.0000 
     24 CA        -12.5795   15.8535  -40.4610 C.3       3 GLC5        0.0000 
     25 CA        -12.5690   17.8900  -40.1010 C.3       9 GLL5        0.0000 
     26 CA        -11.3745   17.1685  -38.4595 C.3       3 GLC5        0.0000 
     27 N         -19.4735   10.6445  -42.3980 N.am      2 SEC2        0.0000 
     28 N         -19.6060   12.2530  -42.6020 N.am      8 SEL2        0.0000 
     29 N         -19.3410    9.0360  -42.1940 N.am      5 SEP2        0.0000 
     30 CA        -19.8730   12.5280  -45.3175 C.3       3 GLC5        0.0000 
     31 CA        -18.8320   14.1480  -44.6600 C.3       9 GLL5        0.0000 
     32 CA        -20.9140   10.9080  -45.9750 C.3       6 GLP5        0.0000 
     33 CA        -21.5405   17.5090  -47.4505 C.3       3 GLC5        0.0000 
     34 CA        -19.7750   16.2000  -47.6470 C.3       9 GLL5        0.0000 
     35 CA        -23.3060   18.8180  -47.2540 C.3       6 GLP5        0.0000 
     36 CA        -17.2895   15.3720  -48.7980 C.3       3 GLC5        0.0000 
     37 CA        -19.0800   14.9660  -48.2080 C.3       9 GLL5        0.0000 
     38 CA        -15.4990   15.7780  -49.3880 C.3       6 GLP5        0.0000 
     39 O         -17.9075   12.9625  -51.8110 O.2       1 ALC1        0.0000 
     40 O         -19.1050   12.2400  -52.7720 O.2       7 ALL1        0.0000 
     41 O         -16.7100   13.6850  -50.8500 O.2       4 ALP1        0.0000 
     42 O         -18.7285   11.8815  -53.9250 O.2       1 ALC1        0.0000 
     43 O         -18.3520   11.5230  -55.0780 O.2       4 ALP1        0.0000 
     44 CA        -23.5945   11.7830  -47.8220 C.3       3 GLC5        0.0000 
     45 CA        -22.0620   12.8160  -48.8770 C.3       9 GLL5        0.0000 
     46 CA        -25.1270   10.7500  -46.7670 C.3       6 GLP5        0.0000 
     47 N         -12.2665   18.2740  -36.1930 N.am      2 SEC2        0.0000 
     48 N         -13.3910   18.2780  -36.8120 N.am      8 SEL2        0.0000 
     49 N         -11.1420   18.2700  -35.5740 N.am      5 SEP2        0.0000 
     50 CA        -15.6480   15.7282  -42.4408 C.3       3 GLC5        0.0000 
     51 CA        -17.4960   15.0710  -41.4030 C.3       9 GLL5        0.0000 
     52 CA        -17.0808   13.4029  -39.6169 C.3       3 GLC5        0.0000 
     53 CA        -17.4310   11.4170  -39.2140 C.3       6 GLP5        0.0000 
     54 CA        -12.7595   17.8263  -41.8803 C.3       3 GLC5        0.0000 
     55 CA        -11.8815   19.7888  -41.5930 C.3       3 GLC5        0.0000 
     56 CA        -12.0750   19.1810  -40.1480 C.3       9 GLL5        0.0000 
     57 CA        -11.7860   20.9910  -43.0300 C.3       6 GLP5        0.0000 
     58 CA        -22.9638   13.5330  -47.6342 C.3       3 GLC5        0.0000 
     59 CA        -24.3120   13.8020  -46.6800 C.3       6 GLP5        0.0000 
     60 CA        -20.9486   11.0478  -49.6536 C.3       3 GLC5        0.0000 
     61 CA        -20.2400    9.3760  -49.5710 C.3       6 GLP5        0.0000 
     62 CA        -21.2647   12.0860  -47.2818 C.3       3 GLC5        0.0000 
@<TRIPOS>BOND
@<TRIPOS>SUBSTRUCTURE
     1 ALC1       39 GROUP        1 X    ALC  0     ROOT ALC X 1
     2 SEC2        1 GROUP        1 X    SEC  0     **** SEC X 2
     3 GLC5        4 GROUP        1 X    GLC  0     **** GLC X 6
     4 ALP1       41 GROUP        1 Y    ALP  0     ROOT ALP Y 8
     5 SEP2        3 GROUP        1 Y    SEP  0     **** SEP Y 9
     6 GLP5        6 GROUP        1 Y    GLP  0     **** GLP Y 13
     7 ALL1       40 GROUP        1 Z    ALL  0     ROOT ALL Z 15
     8 SEL2        2 GROUP        1 Z    SEL  0     **** SEL Z 16
     9 GLL5        5 GROUP        1 Z    GLL  0     **** GLL Z 20
@<TRIPOS>SET

