#    Name: 2gcg_NDP_3_ligand
#    Modification time : Tue Mar 25 14:00:43 2014

@<TRIPOS>MOLECULE
2gcg_NDP_3_ligand
   74    78     1     0     0
SMALL
NO_CHARGES


@<TRIPOS>ATOM
      1 PA        -19.9940   14.7710  -40.6220 P.3       1 NDP2003     0.0000 
      2 O1A       -19.8810   13.4450  -39.9860 O.co2     1 NDP2003     0.0000 
      3 O2A       -20.8590   15.6670  -39.8000 O.co2     1 NDP2003     0.0000 
      4 O5B       -18.6140   15.5870  -40.7350 O.3       1 NDP2003     0.0000 
      5 C5B       -17.4960   15.0710  -41.4030 C.3       1 NDP2003     0.0000 
      6 C4B       -16.2700   15.3440  -40.5480 C.3       1 NDP2003     0.0000 
      7 O4B       -15.6240   16.5230  -40.9620 O.3       1 NDP2003     0.0000 
      8 C3B       -16.5780   15.5700  -39.0640 C.3       1 NDP2003     0.0000 
      9 O3B       -16.3640   14.3800  -38.3480 O.3       1 NDP2003     0.0000 
     10 C2B       -15.6120   16.6750  -38.6540 C.3       1 NDP2003     0.0000 
     11 O2B       -14.7890   16.3460  -37.5680 O.3       1 NDP2003     0.0000 
     12 C1B       -14.7470   16.7660  -39.8860 C.3       1 NDP2003     0.0000 
     13 N9A       -13.9200   17.9740  -39.9690 N.pl3     1 NDP2003     0.0000 
     14 C8A       -14.2770   19.2950  -39.9420 C.2       1 NDP2003     0.0000 
     15 N7A       -13.1370   20.0200  -40.0540 N.2       1 NDP2003     0.0000 
     16 C5A       -12.0750   19.1810  -40.1480 C.ar      1 NDP2003     0.0000 
     17 C6A       -10.6950   19.3850  -40.2740 C.ar      1 NDP2003     0.0000 
     18 N6A       -10.1730   20.5300  -39.8260 N.pl3     1 NDP2003     0.0000 
     19 N1A        -9.8560   18.2860  -40.3600 N.ar      1 NDP2003     0.0000 
     20 C2A       -10.3820   17.0040  -40.3100 C.ar      1 NDP2003     0.0000 
     21 N3A       -11.7440   16.8170  -40.1780 N.ar      1 NDP2003     0.0000 
     22 C4A       -12.5690   17.8900  -40.1010 C.ar      1 NDP2003     0.0000 
     23 O3        -20.5310   14.6150  -42.1370 O.3       1 NDP2003     0.0000 
     24 PN        -20.6300   13.2530  -43.0030 P.3       1 NDP2003     0.0000 
     25 O1N       -19.6060   12.2530  -42.6020 O.co2     1 NDP2003     0.0000 
     26 O2N       -22.0410   12.8600  -43.0950 O.co2     1 NDP2003     0.0000 
     27 O5D       -20.1900   13.8610  -44.4250 O.3       1 NDP2003     0.0000 
     28 C5D       -18.8320   14.1480  -44.6600 C.3       1 NDP2003     0.0000 
     29 C4D       -18.7360   14.9850  -45.9210 C.3       1 NDP2003     0.0000 
     30 O4D       -18.5990   14.1930  -47.1110 O.3       1 NDP2003     0.0000 
     31 C3D       -19.9530   15.8770  -46.1660 C.3       1 NDP2003     0.0000 
     32 O3D       -20.0380   17.0090  -45.3130 O.3       1 NDP2003     0.0000 
     33 C2D       -19.7750   16.2000  -47.6470 C.3       1 NDP2003     0.0000 
     34 O2D       -18.9360   17.3050  -47.8910 O.3       1 NDP2003     0.0000 
     35 C1D       -19.0800   14.9660  -48.2080 C.3       1 NDP2003     0.0000 
     36 N1N       -20.0820   14.2050  -48.9640 N.pl3     1 NDP2003     0.0000 
     37 C2N       -19.8020   13.8380  -50.2540 C.2       1 NDP2003     0.0000 
     38 C3N       -20.6310   12.9210  -50.9200 C.2       1 NDP2003     0.0000 
     39 C7N       -20.3540   12.4700  -52.3160 C.2       1 NDP2003     0.0000 
     40 O7N       -21.5020   12.2280  -53.0700 O.2       1 NDP2003     0.0000 
     41 N7N       -19.1050   12.2400  -52.7720 N.am      1 NDP2003     0.0000 
     42 C4N       -21.8740   12.3250  -50.2710 C.3       1 NDP2003     0.0000 
     43 C5N       -22.0620   12.8160  -48.8770 C.2       1 NDP2003     0.0000 
     44 C6N       -21.1690   13.7120  -48.3000 C.2       1 NDP2003     0.0000 
     45 P2B       -14.5580   17.4240  -36.3960 P.3       1 NDP2003     0.0000 
     46 O1X       -14.2740   16.6510  -35.1200 O.co2     1 NDP2003     0.0000 
     47 O2X       -15.7960   18.2760  -36.1900 O.co2     1 NDP2003     0.0000 
     48 O3X       -13.3910   18.2780  -36.8120 O.co2     1 NDP2003     0.0000 
     49 H         -17.3345   15.5439  -42.3757 H         1 NDP2003     0.0000 
     50 H         -17.5611   13.9900  -41.5547 H         1 NDP2003     0.0000 
     51 H         -15.5923   14.5007  -40.6124 H         1 NDP2003     0.0000 
     52 H         -17.5696   15.9484  -38.9971 H         1 NDP2003     0.0000 
     53 H         -16.1433   17.5775  -38.5645 H         1 NDP2003     0.0000 
     54 H         -14.0564   15.8696  -39.8058 H         1 NDP2003     0.0000 
     55 H         -15.1636   19.6340  -39.8596 H         1 NDP2003     0.0000 
     56 H          -9.1877   20.6439  -39.9533 H         1 NDP2003     0.0000 
     57 H         -10.8144   21.1704  -39.4035 H         1 NDP2003     0.0000 
     58 H          -9.7521   16.1891  -40.3718 H         1 NDP2003     0.0000 
     59 H         -18.2375   13.2429  -44.8124 H         1 NDP2003     0.0000 
     60 H         -18.3818   14.7194  -43.8434 H         1 NDP2003     0.0000 
     61 H         -17.8703   15.6555  -45.8363 H         1 NDP2003     0.0000 
     62 H         -20.8218   15.2203  -46.1035 H         1 NDP2003     0.0000 
     63 H         -20.7275   16.2659  -48.1041 H         1 NDP2003     0.0000 
     64 H         -18.2953   15.2889  -48.8476 H         1 NDP2003     0.0000 
     65 H         -18.9865   14.2264  -50.7488 H         1 NDP2003     0.0000 
     66 H         -18.3633   12.3904  -52.1184 H         1 NDP2003     0.0000 
     67 H         -19.0322   11.9396  -53.7230 H         1 NDP2003     0.0000 
     68 H         -21.7813   11.2310  -50.2742 H         1 NDP2003     0.0000 
     69 H         -22.7482   12.5859  -50.8819 H         1 NDP2003     0.0000 
     70 H         -22.8762   12.4622  -48.3702 H         1 NDP2003     0.0000 
     71 H         -21.3472   14.0171  -47.3089 H         1 NDP2003     0.0000 
     72 H         -15.8179   14.6499  -37.5550 H         1 NDP2003     0.0000 
     73 H         -20.9462   16.9527  -44.8982 H         1 NDP2003     0.0000 
     74 H         -18.9811   17.8534  -47.0560 H         1 NDP2003     0.0000 
@<TRIPOS>BOND
     1    2    1 ar   
     2    3    1 ar   
     3    4    1 1    
     4   23    1 1    
     5    5    4 1    
     6    6    5 1    
     7   49    5 1    
     8   50    5 1    
     9    7    6 1    
    10    8    6 1    
    11   51    6 1    
    12   12    7 1    
    13    9    8 1    
    14   10    8 1    
    15   52    8 1    
    16   72    9 1    
    17   11   10 1    
    18   12   10 1    
    19   53   10 1    
    20   45   11 1    
    21   13   12 1    
    22   54   12 1    
    23   14   13 1    
    24   22   13 1    
    25   15   14 2    
    26   55   14 1    
    27   16   15 1    
    28   17   16 ar   
    29   22   16 ar   
    30   18   17 1    
    31   19   17 ar   
    32   56   18 1    
    33   57   18 1    
    34   20   19 ar   
    35   21   20 ar   
    36   58   20 1    
    37   22   21 ar   
    38   24   23 1    
    39   25   24 ar   
    40   26   24 ar   
    41   27   24 1    
    42   28   27 1    
    43   29   28 1    
    44   59   28 1    
    45   60   28 1    
    46   30   29 1    
    47   31   29 1    
    48   61   29 1    
    49   35   30 1    
    50   32   31 1    
    51   33   31 1    
    52   62   31 1    
    53   73   32 1    
    54   34   33 1    
    55   35   33 1    
    56   63   33 1    
    57   74   34 1    
    58   36   35 1    
    59   64   35 1    
    60   37   36 1    
    61   44   36 1    
    62   38   37 2    
    63   65   37 1    
    64   39   38 1    
    65   42   38 1    
    66   40   39 2    
    67   41   39 am   
    68   66   41 1    
    69   67   41 1    
    70   43   42 1    
    71   68   42 1    
    72   69   42 1    
    73   44   43 2    
    74   70   43 1    
    75   71   44 1    
    76   46   45 ar   
    77   47   45 ar   
    78   48   45 ar   
@<TRIPOS>SUBSTRUCTURE
     1 NDP2003     1 GROUP   
@<TRIPOS>SET

