#    Name: 4fuy_EK2_1_INTS_M
#    Modification time : Mon Mar 24 20:49:03 2014

@<TRIPOS>MOLECULE
4fuy_EK2_1_INTS_M
   73     0     6     0     0
SMALL
NO_CHARGES


@<TRIPOS>ATOM
      1 N          24.0065    4.0205   14.4375 N.am      1 SEC2        0.0000 
      2 N          22.9530    5.0550   14.7700 N.am      5 SEL2        0.0000 
      3 N          25.0600    2.9860   14.1050 N.am      3 SEP2        0.0000 
      4 CA         24.8055    6.3215   14.4635 C.3       2 GLC5        0.0000 
      5 CA         23.5570    6.6020   12.6210 C.3       6 GLL5        0.0000 
      6 CA         26.0540    6.0410   16.3060 C.3       4 GLP5        0.0000 
      7 CA         23.6075    4.5240   12.3835 C.3       2 GLC5        0.0000 
      8 CA         23.6580    2.4460   12.1460 C.3       4 GLP5        0.0000 
      9 N          22.7535    9.1590   10.3960 N.am      1 SEC2        0.0000 
     10 N          22.7500    7.8700   10.6980 N.am      5 SEL2        0.0000 
     11 N          22.7570   10.4480   10.0940 N.am      3 SEP2        0.0000 
     12 CA         22.6845    6.7705    9.7160 C.3       2 GLC5        0.0000 
     13 CA         21.4450    7.5010   11.1640 C.3       6 GLL5        0.0000 
     14 CA         23.9240    6.0400    8.2680 C.3       4 GLP5        0.0000 
     15 CA         20.3360    6.7110    9.6325 C.3       2 GLC5        0.0000 
     16 CA         19.2270    5.9210    8.1010 C.3       4 GLP5        0.0000 
     17 CA         21.3980    8.8290    9.6260 C.3       2 GLC5        0.0000 
     18 CA         21.3510   10.1570    8.0880 C.3       4 GLP5        0.0000 
     19 CA         21.7110    9.0755   14.0375 C.3       2 GLC5        0.0000 
     20 CA         21.3160    7.5730   12.6650 C.3       6 GLL5        0.0000 
     21 CA         22.1060   10.5780   15.4100 C.3       4 GLP5        0.0000 
     22 CA         21.7710    5.2365   16.8165 C.3       2 GLC5        0.0000 
     23 CA         20.7450    5.7600   15.0400 C.3       6 GLL5        0.0000 
     24 CA         22.7970    4.7130   18.5930 C.3       4 GLP5        0.0000 
     25 CA         20.1370    4.7315   13.4620 C.3       2 GLC5        0.0000 
     26 CA         19.5290    3.7030   11.8840 C.3       4 GLP5        0.0000 
     27 CA         20.9645    8.6690   15.3400 C.3       2 GLC5        0.0000 
     28 CA         19.8230    6.7600   15.2700 C.3       6 GLL5        0.0000 
     29 CA         19.2810    4.2570   13.9585 C.3       2 GLC5        0.0000 
     30 CA         19.0330    4.8110   16.0330 C.3       6 GLL5        0.0000 
     31 CA         17.1985    7.4065   18.7420 C.3       2 GLC5        0.0000 
     32 CA         16.7160    5.3740   18.3890 C.3       6 GLL5        0.0000 
     33 CA         17.6810    9.4390   19.0950 C.3       4 GLP5        0.0000 
     34 CA         18.9960    6.8950   18.8445 C.3       2 GLC5        0.0000 
     35 CA         17.9660    5.1530   18.9690 C.3       6 GLL5        0.0000 
     36 CA         20.0260    8.6370   18.7200 C.3       4 GLP5        0.0000 
     37 CA         21.2390    4.2840   19.5900 C.3       2 GLC5        0.0000 
     38 CA         19.6810    3.8550   20.5870 C.3       6 GLL5        0.0000 
     39 CA         20.6125    4.8835   21.7525 C.3       2 GLC5        0.0000 
     40 CA         21.5440    5.9120   22.9180 C.3       4 GLP5        0.0000 
     41 CA         18.2475    5.2625   21.2985 C.3       2 GLC5        0.0000 
     42 CA         16.8140    6.6700   22.0100 C.3       4 GLP5        0.0000 
     43 CA         20.4515    2.6905   22.2470 C.3       2 GLC5        0.0000 
     44 CA         21.2220    1.5260   23.9070 C.3       4 GLP5        0.0000 
     45 CA         16.8165    2.2860   21.9550 C.3       2 GLC5        0.0000 
     46 CA         17.0200    3.4480   20.3870 C.3       6 GLL5        0.0000 
     47 CA         16.6130    1.1240   23.5230 C.3       4 GLP5        0.0000 
     48 CA         12.4775    1.7375   20.2105 C.3       2 GLC5        0.0000 
     49 CA         14.3840    2.8550   20.4250 C.3       6 GLL5        0.0000 
     50 CA         10.5710    0.6200   19.9960 C.3       4 GLP5        0.0000 
     51 CA         14.1910    2.6910   22.4225 C.3       2 GLC5        0.0000 
     52 CA         13.9980    2.5270   24.4200 C.3       4 GLP5        0.0000 
     53 CA         23.7825    6.6242   10.2245 C.3       2 GLC5        0.0000 
     54 CA         20.4548    5.6200   11.8993 C.3       2 GLC5        0.0000 
     55 CA         19.6433    7.5438   17.1522 C.3       2 GLC5        0.0000 
     56 CA         17.4657    4.7470   14.8250 C.3       2 GLC5        0.0000 
     57 CA         18.6980    6.1410   15.8990 C.3       6 GLL5        0.0000 
     58 CA         16.0660    4.0180   13.6840 C.3       4 GLP5        0.0000 
     59 CA         17.3500    8.0258   17.9610 C.3       2 GLC5        0.0000 
     60 CA         17.4870    6.7590   16.2510 C.3       6 GLL5        0.0000 
     61 CA         15.8145    5.6602   15.6690 C.3       2 GLC5        0.0000 
     62 CA         16.5510    6.4660   17.4030 C.3       6 GLL5        0.0000 
     63 CA         14.6100    4.7080   14.5110 C.3       4 GLP5        0.0000 
     64 CA         15.3872    4.8623   16.5632 C.3       2 GLC5        0.0000 
     65 CA         15.3486    6.2663   19.6140 C.3       2 GLC5        0.0000 
     66 CA         14.5740    7.2430   20.8590 C.3       4 GLP5        0.0000 
     67 CA         17.1691    5.3639   20.9653 C.3       2 GLC5        0.0000 
     68 CA         18.6435    2.0266   20.0470 C.3       2 GLC5        0.0000 
     69 CA         18.0910    4.1820   19.9390 C.3       6 GLL5        0.0000 
     70 CA         19.3340    0.3200   19.7690 C.3       4 GLP5        0.0000 
     71 CA         14.3305    4.7553   20.7480 C.3       2 GLC5        0.0000 
     72 CA         15.7820    3.7140   19.8350 C.3       6 GLL5        0.0000 
     73 CA         13.5780    6.2260   21.3660 C.3       4 GLP5        0.0000 
@<TRIPOS>BOND
@<TRIPOS>SUBSTRUCTURE
     1 SEC2        1 GROUP        1 X    SEC  0     ROOT SEC X 2
     2 GLC5        4 GROUP        1 X    GLC  0     **** GLC X 6
     3 SEP2        3 GROUP        1 Y    SEP  0     ROOT SEP Y 9
     4 GLP5        6 GROUP        1 Y    GLP  0     **** GLP Y 13
     5 SEL2        2 GROUP        1 Z    SEL  0     ROOT SEL Z 16
     6 GLL5        5 GROUP        1 Z    GLL  0     **** GLL Z 20
@<TRIPOS>SET

