#    Name: 4fuy_EK2_1_ligand
#    Modification time : Mon Mar 24 20:49:03 2014

@<TRIPOS>MOLECULE
4fuy_EK2_1_ligand
   42    45     1     0     0
SMALL
NO_CHARGES


@<TRIPOS>ATOM
      1 O1         22.9530    5.0550   14.7700 O.2       1 EK2401      0.0000 
      2 C14        22.0870    5.8280   14.3890 C.2       1 EK2401      0.0000 
      3 N4         22.2490    6.6260   13.2970 N.am      1 EK2401      0.0000 
      4 C18        23.5570    6.6020   12.6210 C.3       1 EK2401      0.0000 
      5 C17        23.7250    7.8150   11.7410 C.3       1 EK2401      0.0000 
      6 O2         22.7500    7.8700   10.6980 O.3       1 EK2401      0.0000 
      7 C16        21.4450    7.5010   11.1640 C.3       1 EK2401      0.0000 
      8 C15        21.3160    7.5730   12.6650 C.3       1 EK2401      0.0000 
      9 C12        20.7450    5.7600   15.0400 C.2       1 EK2401      0.0000 
     10 C11        19.8230    6.7600   15.2700 C.2       1 EK2401      0.0000 
     11 N3         20.2650    4.5630   15.5280 N.pl3     1 EK2401      0.0000 
     12 C13        19.0330    4.8110   16.0330 C.2       1 EK2401      0.0000 
     13 C10        18.6980    6.1410   15.8990 C.2       1 EK2401      0.0000 
     14 C9         17.4870    6.7590   16.2510 C.2       1 EK2401      0.0000 
     15 N2         16.8610    7.7040   15.5150 N.pl3     1 EK2401      0.0000 
     16 N1         15.6460    8.0580   16.0140 N.2       1 EK2401      0.0000 
     17 C8         15.4820    7.3180   17.0980 C.2       1 EK2401      0.0000 
     18 C7         16.5510    6.4660   17.4030 C.2       1 EK2401      0.0000 
     19 C3         16.7160    5.3740   18.3890 C.ar      1 EK2401      0.0000 
     20 C2         15.6130    4.6590   18.8420 C.ar      1 EK2401      0.0000 
     21 C4         17.9660    5.1530   18.9690 C.ar      1 EK2401      0.0000 
     22 C5         18.0910    4.1820   19.9390 C.ar      1 EK2401      0.0000 
     23 CL2        19.6810    3.8550   20.5870 Cl        1 EK2401      0.0000 
     24 C6         17.0200    3.4480   20.3870 C.ar      1 EK2401      0.0000 
     25 C1         15.7820    3.7140   19.8350 C.ar      1 EK2401      0.0000 
     26 CL1        14.3840    2.8550   20.4250 Cl        1 EK2401      0.0000 
     27 H          23.6492    5.7005   12.0033 H         1 EK2401      0.0000 
     28 H          24.3668    6.5856   13.3604 H         1 EK2401      0.0000 
     29 H          24.7533    7.7965   11.3260 H         1 EK2401      0.0000 
     30 H          23.6710    8.7155   12.3862 H         1 EK2401      0.0000 
     31 H          21.1880    6.4681   10.8472 H         1 EK2401      0.0000 
     32 H          20.6656    8.1567   10.7213 H         1 EK2401      0.0000 
     33 H          21.5315    8.5947   12.9908 H         1 EK2401      0.0000 
     34 H          20.2853    7.3358   12.9441 H         1 EK2401      0.0000 
     35 H          19.8914    7.6674   15.0670 H         1 EK2401      0.0000 
     36 H          20.7222    3.7318   15.5070 H         1 EK2401      0.0000 
     37 H          18.4481    4.1432   16.4416 H         1 EK2401      0.0000 
     38 H          17.2466    8.1040   14.6895 H         1 EK2401      0.0000 
     39 H          14.6661    7.3369   17.6852 H         1 EK2401      0.0000 
     40 H          14.6864    4.8343   18.4408 H         1 EK2401      0.0000 
     41 H          18.7727    5.7078   18.6730 H         1 EK2401      0.0000 
     42 H          17.1308    2.7320   21.1009 H         1 EK2401      0.0000 
@<TRIPOS>BOND
     1    2    1 2    
     2    3    2 am   
     3    9    2 1    
     4    4    3 1    
     5    8    3 1    
     6    5    4 1    
     7   27    4 1    
     8   28    4 1    
     9    6    5 1    
    10   29    5 1    
    11   30    5 1    
    12    7    6 1    
    13    8    7 1    
    14   31    7 1    
    15   32    7 1    
    16   33    8 1    
    17   34    8 1    
    18   10    9 2    
    19   11    9 1    
    20   13   10 1    
    21   35   10 1    
    22   12   11 1    
    23   36   11 1    
    24   13   12 2    
    25   37   12 1    
    26   14   13 1    
    27   15   14 1    
    28   18   14 2    
    29   16   15 1    
    30   38   15 1    
    31   17   16 2    
    32   18   17 1    
    33   39   17 1    
    34   19   18 1    
    35   20   19 ar   
    36   21   19 ar   
    37   25   20 ar   
    38   40   20 1    
    39   22   21 ar   
    40   41   21 1    
    41   23   22 1    
    42   24   22 ar   
    43   25   24 ar   
    44   42   24 1    
    45   26   25 1    
@<TRIPOS>SUBSTRUCTURE
     1 EK2401      1 GROUP   
@<TRIPOS>SET

