#    Name: 2ggq_TTP_1_INTS_M
#    Modification time : Tue Mar 25 14:24:46 2014

@<TRIPOS>MOLECULE
2ggq_TTP_1_INTS_M
   70     0    12     0     0
SMALL
NO_CHARGES


@<TRIPOS>ATOM
      1 N          -2.0615   37.0635   10.7210 N.am      2 SEC2        0.0000 
      2 N          -1.0160   37.9330   11.0550 N.am     10 SEL2        0.0000 
      3 N          -3.1070   36.1940   10.3870 N.am      6 SEP2        0.0000 
      4 N          -0.4100   36.9925    9.8045 N.am      2 SEC2        0.0000 
      5 N           0.1960   36.0520    8.5540 N.am      6 SEP2        0.0000 
      6 NZ          0.7855   36.4070    9.6980 N.4       3 LYC4        0.0000 
      7 NZ          1.3750   36.7620   10.8420 N.4      11 LYL4        0.0000 
      8 NZ          0.1960   36.0520    8.5540 N.4       7 LYP4        0.0000 
      9 N           2.4405   36.0545   11.5120 N.am      2 SEC2        0.0000 
     10 N           1.3750   36.7620   10.8420 N.am     10 SEL2        0.0000 
     11 N           3.5060   35.3470   12.1820 N.am      6 SEP2        0.0000 
     12 N           0.7855   36.4070    9.6980 N.am      2 SEC2        0.0000 
     13 N           2.7300   38.4180   12.3905 N.am      2 SEC2        0.0000 
     14 N           1.2310   38.9240   11.7590 N.am     10 SEL2        0.0000 
     15 N           4.2290   37.9120   13.0220 N.am      6 SEP2        0.0000 
     16 N           1.5750   37.1505   14.1850 N.am      2 SEC2        0.0000 
     17 N           0.1880   37.1950   13.1500 N.am     10 SEL2        0.0000 
     18 N           2.9620   37.1060   15.2200 N.am      6 SEP2        0.0000 
     19 NZ         -1.6990   34.7765   12.4125 N.4       3 LYC4        0.0000 
     20 NZ         -0.1440   34.7250   12.6170 N.4      11 LYL4        0.0000 
     21 NZ         -3.7790   35.2990   11.0780 N.4       7 LYP4        0.0000 
     22 N          -0.0670   33.2315   13.0285 N.am      2 SEC2        0.0000 
     23 N          -0.1440   34.7250   12.6170 N.am     10 SEL2        0.0000 
     24 N           0.0100   31.7380   13.4400 N.am      6 SEP2        0.0000 
     25 N          -1.6990   34.7765   12.4125 N.am      2 SEC2        0.0000 
     26 N          -3.2540   34.8280   12.2080 N.am      6 SEP2        0.0000 
     27 NZ          0.4005   35.4425   16.0620 N.4       3 LYC4        0.0000 
     28 NZ          1.0390   35.3830   14.7170 N.4      11 LYL4        0.0000 
     29 NZ         -0.2380   35.5020   17.4070 N.4       7 LYP4        0.0000 
     30 N           2.0005   36.2445   14.9685 N.am      2 SEC2        0.0000 
     31 N           1.0390   35.3830   14.7170 N.am     10 SEL2        0.0000 
     32 N           1.8155   34.2160   14.1335 N.am      2 SEC2        0.0000 
     33 N           2.5920   33.0490   13.5500 N.am      6 SEP2        0.0000 
     34 N           0.4005   35.4425   16.0620 N.am      2 SEC2        0.0000 
     35 N          -0.2380   35.5020   17.4070 N.am      6 SEP2        0.0000 
     36 NZ         -0.7910   35.7060   15.9670 N.4       3 LYC4        0.0000 
     37 NZ         -1.3440   35.9100   14.5270 N.4      11 LYL4        0.0000 
     38 N          -2.2990   35.3690   13.3675 N.am      2 SEC2        0.0000 
     39 N          -1.3440   35.9100   14.5270 N.am     10 SEL2        0.0000 
     40 N          -0.7910   35.7060   15.9670 N.am      2 SEC2        0.0000 
     41 O           0.3270   42.0715   17.2770 O.2       1 ALC1        0.0000 
     42 O           1.0850   41.2170   16.5070 O.2       9 ALL1        0.0000 
     43 O          -0.4310   42.9260   18.0470 O.2       5 ALP1        0.0000 
     44 CA          0.5360   43.9410   16.1795 C.3       4 GLC5        0.0000 
     45 CA          0.9330   42.6710   14.5410 C.3      12 GLL5        0.0000 
     46 CA          0.1390   45.2110   17.8180 C.3       8 GLP5        0.0000 
     47 CA          3.1635   40.8405   12.6330 C.3       4 GLC5        0.0000 
     48 CA          2.1840   42.0470   13.9410 C.3      12 GLL5        0.0000 
     49 CA          4.1430   39.6340   11.3250 C.3       8 GLP5        0.0000 
     50 N           5.8450   44.3300   14.1315 N.am      2 SEC2        0.0000 
     51 N           4.6310   43.5610   13.8950 N.am     10 SEL2        0.0000 
     52 N           7.0590   45.0990   14.3680 N.am      6 SEP2        0.0000 
     53 N           3.9045   44.5730   14.7330 N.am      2 SEC2        0.0000 
     54 N           3.1780   45.5850   15.5710 N.am      6 SEP2        0.0000 
     55 O           5.7885   44.6955   11.9475 O.2       1 ALC1        0.0000 
     56 O           4.6320   43.8680   11.7140 O.2       9 ALL1        0.0000 
     57 O           6.9450   45.5230   12.1810 O.2       5 ALP1        0.0000 
     58 N           5.6275   42.9835    9.0925 N.am      2 SEC2        0.0000 
     59 N           4.6790   44.1810    9.5270 N.am     10 SEL2        0.0000 
     60 N           6.5760   41.7860    8.6580 N.am      6 SEP2        0.0000 
     61 CA          2.9265   44.2085    7.7390 C.3       4 GLC5        0.0000 
     62 CA          2.1660   42.8040    9.0060 C.3      12 GLL5        0.0000 
     63 CA          3.6870   45.6130    6.4720 C.3       8 GLP5        0.0000 
     64 CA          1.7488   44.1715   14.5775 C.3       4 GLC5        0.0000 
     65 CA          1.9390   45.9840   14.9140 C.3       8 GLP5        0.0000 
     66 CA          3.2422   41.1606   10.9629 C.3       4 GLC5        0.0000 
     67 CA          2.8020   42.9890   10.3650 C.3      12 GLL5        0.0000 
     68 CA          0.9117   44.2116   10.4744 C.3       4 GLC5        0.0000 
     69 CA          2.1990   42.4780   11.5160 C.3      12 GLL5        0.0000 
     70 CA         -0.5180   45.7360   10.3480 C.3       8 GLP5        0.0000 
@<TRIPOS>BOND
@<TRIPOS>SUBSTRUCTURE
     1 ALC1       41 GROUP        1 X    ALC  0     ROOT ALC X 1
     2 SEC2        1 GROUP        1 X    SEC  0     **** SEC X 2
     3 LYC4        6 GROUP        1 X    LYC  0     **** LYC X 4
     4 GLC5       44 GROUP        1 X    GLC  0     **** GLC X 6
     5 ALP1       43 GROUP        1 Y    ALP  0     ROOT ALP Y 8
     6 SEP2        3 GROUP        1 Y    SEP  0     **** SEP Y 9
     7 LYP4        8 GROUP        1 Y    LYP  0     **** LYP Y 11
     8 GLP5       46 GROUP        1 Y    GLP  0     **** GLP Y 13
     9 ALL1       42 GROUP        1 Z    ALL  0     ROOT ALL Z 15
    10 SEL2        2 GROUP        1 Z    SEL  0     **** SEL Z 16
    11 LYL4        7 GROUP        1 Z    LYL  0     **** LYL Z 18
    12 GLL5       45 GROUP        1 Z    GLL  0     **** GLL Z 20
@<TRIPOS>SET

