#    Name: 2ggq_TTP_1_ligand
#    Modification time : Tue Mar 25 14:24:46 2014

@<TRIPOS>MOLECULE
2ggq_TTP_1_ligand
   42    43     1     0     0
SMALL
NO_CHARGES


@<TRIPOS>ATOM
      1 PA         -1.6360   39.4610   11.1270 P.3       1 TTP500      0.0000 
      2 O1A        -3.0160   39.4440   11.7810 O.co2     1 TTP500      0.0000 
      3 O2A        -1.7280   40.0090    9.7000 O.co2     1 TTP500      0.0000 
      4 O3A        -1.0160   37.9330   11.0550 O.3       1 TTP500      0.0000 
      5 PB          0.4580   37.6340   11.6380 P.3       1 TTP500      0.0000 
      6 O1B         1.3750   36.7620   10.8420 O.co2     1 TTP500      0.0000 
      7 O2B         1.2310   38.9240   11.7590 O.co2     1 TTP500      0.0000 
      8 O3B         0.1880   37.1950   13.1500 O.3       1 TTP500      0.0000 
      9 PG         -0.0600   35.7450   13.7450 P.3       1 TTP500      0.0000 
     10 O1G        -0.1440   34.7250   12.6170 O.co2     1 TTP500      0.0000 
     11 O2G         1.0390   35.3830   14.7170 O.co2     1 TTP500      0.0000 
     12 O3G        -1.3440   35.9100   14.5270 O.co2     1 TTP500      0.0000 
     13 O5'        -0.6260   40.2920   12.1040 O.3       1 TTP500      0.0000 
     14 C5'        -0.6950   40.1050   13.5390 C.3       1 TTP500      0.0000 
     15 C4'         0.5830   40.2900   14.3870 C.3       1 TTP500      0.0000 
     16 O4'         1.8120   40.6500   13.7190 O.3       1 TTP500      0.0000 
     17 C3'         0.3490   41.4670   15.2960 C.3       1 TTP500      0.0000 
     18 O3'         1.0850   41.2170   16.5070 O.3       1 TTP500      0.0000 
     19 C2'         0.9330   42.6710   14.5410 C.3       1 TTP500      0.0000 
     20 C1'         2.1840   42.0470   13.9410 C.3       1 TTP500      0.0000 
     21 N1          2.7860   42.6550   12.7140 N.am      1 TTP500      0.0000 
     22 C2          4.0370   43.3690   12.8030 C.2       1 TTP500      0.0000 
     23 O2          4.6310   43.5610   13.8950 O.2       1 TTP500      0.0000 
     24 N3          4.6320   43.8680   11.7140 N.am      1 TTP500      0.0000 
     25 C4          4.0820   43.7100   10.5110 C.2       1 TTP500      0.0000 
     26 O4          4.6790   44.1810    9.5270 O.2       1 TTP500      0.0000 
     27 C5          2.8020   42.9890   10.3650 C.2       1 TTP500      0.0000 
     28 C5M         2.1660   42.8040    9.0060 C.3       1 TTP500      0.0000 
     29 C6          2.1990   42.4780   11.5160 C.2       1 TTP500      0.0000 
     30 H          -1.0956   39.0722   13.7807 H         1 TTP500      0.0000 
     31 H          -1.4805   40.7897   13.9860 H         1 TTP500      0.0000 
     32 H           0.7172   39.4335   15.0247 H         1 TTP500      0.0000 
     33 H          -0.6724   41.6031   15.4423 H         1 TTP500      0.0000 
     34 H           1.1939   43.4223   15.2239 H         1 TTP500      0.0000 
     35 H           0.2732   42.9640   13.7809 H         1 TTP500      0.0000 
     36 H           2.9485   42.0362   14.7540 H         1 TTP500      0.0000 
     37 H           5.5394   44.3878   11.8105 H         1 TTP500      0.0000 
     38 H           1.3042   41.9685   11.4242 H         1 TTP500      0.0000 
     39 H           2.7611   42.2956    8.3836 H         1 TTP500      0.0000 
     40 H           1.3043   42.3000    9.0647 H         1 TTP500      0.0000 
     41 H           1.9640   43.6800    8.5681 H         1 TTP500      0.0000 
     42 H           0.4216   41.3457   17.2441 H         1 TTP500      0.0000 
@<TRIPOS>BOND
     1    2    1 ar   
     2    3    1 ar   
     3    4    1 1    
     4   13    1 1    
     5    5    4 1    
     6    6    5 ar   
     7    7    5 ar   
     8    8    5 1    
     9    9    8 1    
    10   10    9 ar   
    11   11    9 ar   
    12   12    9 ar   
    13   14   13 1    
    14   15   14 1    
    15   30   14 1    
    16   31   14 1    
    17   16   15 1    
    18   17   15 1    
    19   32   15 1    
    20   20   16 1    
    21   18   17 1    
    22   19   17 1    
    23   33   17 1    
    24   42   18 1    
    25   20   19 1    
    26   34   19 1    
    27   35   19 1    
    28   21   20 1    
    29   36   20 1    
    30   22   21 1    
    31   29   21 1    
    32   23   22 2    
    33   24   22 1    
    34   25   24 1    
    35   37   24 1    
    36   26   25 2    
    37   27   25 1    
    38   28   27 1    
    39   29   27 2    
    40   39   28 1    
    41   40   28 1    
    42   41   28 1    
    43   38   29 1    
@<TRIPOS>SUBSTRUCTURE
     1 TTP500      1 GROUP   
@<TRIPOS>SET

