#    Name: 2Q8D_2_CAVITY_N1_6.mol2
#    Modification time : Tue Mar 11 07:06:51 2014

@<TRIPOS>MOLECULE
2Q8D_2_CAVITY_N1_6.mol2
  112     0     7     0     0
SMALL
NO_CHARGES


@<TRIPOS>ATOM
      1 N          -7.3153   -7.2255   11.1414 N.2       2 ALA2        0.0000 
      2 O          -8.1822   -6.1702    9.5182 O.2       2 ALA2        0.0000 
      3 N          -8.7112   -6.8377   10.7530 N.2       2 ALA2        0.0000 
      4 N          -5.7278  -10.6223   13.6298 N.2       2 ALA2        0.0000 
      5 OG         -5.5367   -8.2320    9.5372 O.2       1 SER1        0.0000 
      6 N          -6.0657   -8.8995   10.7719 N.2       2 ALA2        0.0000 
      7 N          -6.5948   -9.5669   12.0066 N.2       2 ALA2        0.0000 
      8 OG         -6.4036   -7.1766    7.9140 O.2       1 SER1        0.0000 
      9 OG         -6.9326   -7.8441    9.1487 O.2       1 SER1        0.0000 
     10 N          -7.4617   -8.5116   10.3834 N.2       2 ALA2        0.0000 
     11 N          -7.9907   -9.1791   11.6182 N.2       2 ALA2        0.0000 
     12 N          -8.3286   -7.4563    8.7602 N.2       2 ALA2        0.0000 
     13 CA         -8.8576   -8.1238    9.9950 C.3       6 GLY6        0.0000 
     14 CA         -5.0073  -12.9637   14.4951 C.3       6 GLY6        0.0000 
     15 DU         -5.3452  -11.2409   11.6371 H         7 CUB7        0.0000 
     16 CA         -5.8742  -11.9084   12.8719 C.3       6 GLY6        0.0000 
     17 OG         -5.6831   -9.5181    8.7792 O.2       1 SER1        0.0000 
     18 DU         -6.2121  -10.1856   10.0139 H         7 CUB7        0.0000 
     19 DU         -6.7411  -10.8530   11.2487 H         7 CUB7        0.0000 
     20 CA         -7.2702  -11.5205   12.4834 C.3       6 GLY6        0.0000 
     21 OG         -7.0790   -9.1302    8.3907 O.2       1 SER1        0.0000 
     22 CA         -7.6081   -9.7977    9.6255 C.3       6 GLY6        0.0000 
     23 CA         -8.1371  -10.4652   10.8602 C.3       6 GLY6        0.0000 
     24 O          -8.6661  -11.1327   12.0950 O.2       2 ALA2        0.0000 
     25 CA         -9.0040   -9.4099    9.2370 C.3       6 GLY6        0.0000 
     26 DU         -2.6997  -13.3027   11.6561 H         7 CUB7        0.0000 
     27 NZ         -2.5085  -10.9124    7.5634 N.2       4 LYS4        0.0000 
     28 DU         -3.5666  -12.2473   10.0329 H         7 CUB7        0.0000 
     29 O          -4.6247  -13.5823   12.5023 O.2       2 ALA2        0.0000 
     30 OG         -3.9045  -10.5245    7.1749 O.2       1 SER1        0.0000 
     31 NZ         -4.4335  -11.1920    8.4097 N.2       4 LYS4        0.0000 
     32 DU         -4.9626  -11.8595    9.6444 H         7 CUB7        0.0000 
     33 DU         -6.0206  -13.1945   12.1139 H         7 CUB7        0.0000 
     34 CA         -6.5497  -13.8619   13.3486 C.3       6 GLY6        0.0000 
     35 OG         -5.8295  -10.8042    8.0212 O.2       1 SER1        0.0000 
     36 DU         -6.3585  -11.4716    9.2560 H         7 CUB7        0.0000 
     37 DU         -6.8875  -12.1391   10.4907 H         7 CUB7        0.0000 
     38 DU         -7.4166  -12.8066   11.7254 H         7 CUB7        0.0000 
     39 CA         -7.9456  -13.4741   12.9602 C.3       6 GLY6        0.0000 
     40 OG         -7.2254  -10.4163    7.6328 O.2       1 SER1        0.0000 
     41 DU         -7.7545  -11.0838    8.8675 H         7 CUB7        0.0000 
     42 NZ         -8.2835  -11.7513   10.1022 N.2       4 LYS4        0.0000 
     43 NZ         -8.8125  -12.4188   11.3370 N.2       4 LYS4        0.0000 
     44 NZ         -9.3416  -13.0863   12.5717 N.2       4 LYS4        0.0000 
     45 N          -8.6214  -10.0285    7.2443 N.2       2 ALA2        0.0000 
     46 NZ         -9.1504  -10.6960    8.4790 N.2       4 LYS4        0.0000 
     47 NZ         -2.3170  -13.9213    9.6634 N.2       4 LYS4        0.0000 
     48 DU         -2.8461  -14.5887   10.8981 H         7 CUB7        0.0000 
     49 NZ         -3.7130  -13.5334    9.2749 N.2       4 LYS4        0.0000 
     50 DU         -4.2420  -14.2009   10.5096 H         7 CUB7        0.0000 
     51 N          -4.7711  -14.8684   11.7444 N.2       2 ALA2        0.0000 
     52 NZ         -4.5799  -12.4781    7.6517 N.2       4 LYS4        0.0000 
     53 DU         -5.1089  -13.1456    8.8864 H         7 CUB7        0.0000 
     54 OD1        -5.6380  -13.8131   10.1212 O.3       3 ASP3        0.0000 
     55 OD1        -6.1670  -14.4806   11.3559 O.3       3 ASP3        0.0000 
     56 CZ         -5.9759  -12.0903    7.2632 C.ar      5 PHE5        0.0000 
     57 DU         -6.5049  -12.7577    8.4980 H         7 CUB7        0.0000 
     58 OD1        -7.0339  -13.4252    9.7327 O.3       3 ASP3        0.0000 
     59 OD1        -7.5630  -14.0927   10.9675 O.3       3 ASP3        0.0000 
     60 N          -8.0920  -14.7602   12.2022 N.2       2 ALA2        0.0000 
     61 CZ         -7.3718  -11.7024    6.8748 C.ar      5 PHE5        0.0000 
     62 NZ         -7.9009  -12.3699    8.1095 N.2       4 LYS4        0.0000 
     63 OD1        -8.4299  -13.0374    9.3443 O.3       3 ASP3        0.0000 
     64 OD1        -8.9589  -13.7049   10.5790 O.3       3 ASP3        0.0000 
     65 NZ         -9.4880  -14.3724   11.8137 N.2       4 LYS4        0.0000 
     66 CZ         -8.7678  -11.3146    6.4863 C.ar      5 PHE5        0.0000 
     67 NZ         -9.2968  -11.9821    7.7211 N.2       4 LYS4        0.0000 
     68 NZ         -2.4634  -15.2074    8.9054 N.2       4 LYS4        0.0000 
     69 NZ         -3.8594  -14.8195    8.5169 N.2       4 LYS4        0.0000 
     70 CA         -4.3884  -15.4870    9.7517 C.3       6 GLY6        0.0000 
     71 NZ         -5.2553  -14.4317    8.1285 N.2       4 LYS4        0.0000 
     72 CA         -5.7844  -15.0992    9.3632 C.3       6 GLY6        0.0000 
     73 NZ         -6.1223  -13.3764    6.5053 N.2       4 LYS4        0.0000 
     74 OD1        -6.6513  -14.0438    7.7400 O.3       3 ASP3        0.0000 
     75 CZ         -7.5182  -12.9885    6.1168 C.ar      5 PHE5        0.0000 
     76 OD1        -8.0472  -13.6560    7.3516 O.3       3 ASP3        0.0000 
     77 CZ         -8.9142  -12.6007    5.7284 C.ar      5 PHE5        0.0000 
     78 NZ         -9.4432  -13.2682    6.9631 N.2       4 LYS4        0.0000 
     79 N         -10.3101  -12.2128    5.3399 N.2       2 ALA2        0.0000 
     80 NZ        -10.8392  -12.8803    6.5746 N.2       4 LYS4        0.0000 
     81 NZ         -3.4767  -15.4381    6.5242 N.2       4 LYS4        0.0000 
     82 CA         -4.0058  -16.1056    7.7590 C.3       6 GLY6        0.0000 
     83 CA         -5.4017  -15.7178    7.3705 C.3       6 GLY6        0.0000 
     84 OG         -6.2686  -14.6625    5.7473 O.2       1 SER1        0.0000 
     85 OD1        -6.7977  -15.3299    6.9820 O.3       3 ASP3        0.0000 
     86 OG         -7.6646  -14.2746    5.3588 O.2       1 SER1        0.0000 
     87 OD1        -8.1936  -14.9421    6.5936 O.3       3 ASP3        0.0000 
     88 OG         -8.5315  -13.2193    3.7357 O.2       1 SER1        0.0000 
     89 OG         -9.0606  -13.8868    4.9704 O.2       1 SER1        0.0000 
     90 OD1        -9.5896  -14.5543    6.2051 O.3       3 ASP3        0.0000 
     91 N          -9.9275  -12.8315    3.3472 N.2       2 ALA2        0.0000 
     92 N         -10.4565  -13.4989    4.5819 N.2       2 ALA2        0.0000 
     93 NZ        -10.9855  -14.1664    5.8167 N.2       4 LYS4        0.0000 
     94 NZ         -5.0191  -16.3364    5.3778 N.2       4 LYS4        0.0000 
     95 CA         -5.5481  -17.0039    6.6125 C.3       6 GLY6        0.0000 
     96 CA         -6.9441  -16.6160    6.2241 C.3       6 GLY6        0.0000 
     97 CA         -8.3400  -16.2282    5.8356 C.3       6 GLY6        0.0000 
     98 OG         -9.2069  -15.1729    4.2124 O.2       1 SER1        0.0000 
     99 NZ         -9.7360  -15.8404    5.4472 N.2       4 LYS4        0.0000 
    100 OG        -10.0739  -14.1176    2.5892 O.2       1 SER1        0.0000 
    101 NZ        -10.6029  -14.7850    3.8240 N.2       4 LYS4        0.0000 
    102 O         -11.4698  -13.7297    2.2008 O.2       2 ALA2        0.0000 
    103 NZ        -11.9989  -14.3972    3.4355 N.2       4 LYS4        0.0000 
    104 CZ         -5.1655  -17.6225    4.6198 C.ar      5 PHE5        0.0000 
    105 OG         -6.5614  -17.2347    4.2314 O.2       1 SER1        0.0000 
    106 CA         -7.0905  -17.9021    5.4661 C.3       6 GLY6        0.0000 
    107 OG         -7.9574  -16.8468    3.8429 O.2       1 SER1        0.0000 
    108 N          -8.4864  -17.5143    5.0776 N.2       2 ALA2        0.0000 
    109 OG         -9.3533  -16.4590    3.4545 O.2       1 SER1        0.0000 
    110 N          -9.8824  -17.1265    4.6892 N.2       2 ALA2        0.0000 
    111 OG        -10.2203  -15.4037    1.8313 O.2       1 SER1        0.0000 
    112 NZ        -10.7493  -16.0711    3.0660 N.2       4 LYS4        0.0000 
@<TRIPOS>BOND
@<TRIPOS>SUBSTRUCTURE
     1 SER1        5 GROUP   
     2 ALA2        1 GROUP   
     3 ASP3       54 GROUP   
     4 LYS4       27 GROUP   
     5 PHE5       56 GROUP   
     6 GLY6       13 GROUP   
     7 CUB7       15 GROUP   
@<TRIPOS>SET

