#    Name: 2q8d_THR_GLY_GLY_VAL_MLY_2_INTS_M
#    Modification time : Mon Mar 24 21:01:08 2014

@<TRIPOS>MOLECULE
2q8d_THR_GLY_GLY_VAL_MLY_2_INTS_M
   65     0     9     0     0
SMALL
NO_CHARGES


@<TRIPOS>ATOM
      1 CA        -17.6790   -3.3695   10.5380 C.3       3 GLC5        0.0000 
      2 CA        -16.8150   -3.3890   12.4570 C.3       9 GLL5        0.0000 
      3 CA        -18.5430   -3.3500    8.6190 C.3       6 GLP5        0.0000 
      4 CA        -15.8860   -2.1415   11.3185 C.3       3 GLC5        0.0000 
      5 CA        -14.9570   -0.8940   10.1800 C.3       6 GLP5        0.0000 
      6 CA        -15.6220   -4.0800   11.1575 C.3       3 GLC5        0.0000 
      7 CA        -14.4290   -4.7710    9.8580 C.3       6 GLP5        0.0000 
      8 CA        -17.6660   -5.1635   12.8905 C.3       3 GLC5        0.0000 
      9 CA        -18.5170   -6.9380   13.3240 C.3       6 GLP5        0.0000 
     10 CA        -13.7740   -4.1185   11.6785 C.3       3 GLC5        0.0000 
     11 CA        -13.1190   -3.4660   13.4990 C.3       9 GLL5        0.0000 
     12 N         -13.3215   -6.9750   14.0095 N.am      2 SEC2        0.0000 
     13 N         -12.5060   -5.7650   13.7160 N.am      8 SEL2        0.0000 
     14 N         -14.1370   -8.1850   14.3030 N.am      5 SEP2        0.0000 
     15 CA        -11.0420   -5.9190   10.8530 C.3       3 GLC5        0.0000 
     16 CA         -9.9030   -5.3970   12.6940 C.3       9 GLL5        0.0000 
     17 CA        -12.1810   -6.4410    9.0120 C.3       6 GLP5        0.0000 
     18 CA        -11.0550   -7.2600   12.9490 C.3       3 GLC5        0.0000 
     19 CA        -12.2070   -9.1230   13.2040 C.3       6 GLP5        0.0000 
     20 O          -8.2245   -7.3330   12.5795 O.2       1 ALC1        0.0000 
     21 O          -8.5460   -6.6830   11.1370 O.2       7 ALL1        0.0000 
     22 O          -7.9030   -7.9830   14.0220 O.2       4 ALP1        0.0000 
     23 CA        -10.1275   -6.8000    9.4140 C.3       3 GLC5        0.0000 
     24 CA         -8.0740   -7.1590    9.8160 C.3       9 GLL5        0.0000 
     25 CA         -9.6455   -8.2740   10.3650 C.3       3 GLC5        0.0000 
     26 CA        -11.2170   -9.3890   10.9140 C.3       6 GLP5        0.0000 
     27 CA         -7.1960   -5.0315    7.0505 C.3       3 GLC5        0.0000 
     28 CA         -6.7190   -5.1500    9.0080 C.3       9 GLL5        0.0000 
     29 CA         -7.6730   -4.9130    5.0930 C.3       6 GLP5        0.0000 
     30 CA         -5.4670   -7.0255   12.7265 C.3       3 GLC5        0.0000 
     31 CA         -5.6520   -6.8340   10.5720 C.3       9 GLL5        0.0000 
     32 CA         -5.2820   -7.2170   14.8810 C.3       6 GLP5        0.0000 
     33 O          -8.5700   -8.4580    7.1870 O.2       1 ALC1        0.0000 
     34 O          -8.2650   -9.1890    8.4880 O.2       7 ALL1        0.0000 
     35 O          -8.8750   -7.7270    5.8860 O.2       4 ALP1        0.0000 
     36 CA         -9.6780  -10.0055    9.5445 C.3       3 GLC5        0.0000 
     37 CA         -8.1390  -10.6220    8.1750 C.3       9 GLL5        0.0000 
     38 CA         -9.3200   -9.9320    5.1985 C.3       3 GLC5        0.0000 
     39 CA         -8.9720  -10.9290    6.9230 C.3       9 GLL5        0.0000 
     40 CA         -9.6680   -8.9350    3.4740 C.3       6 GLP5        0.0000 
     41 CA        -10.7770  -10.2745    7.1195 C.3       3 GLC5        0.0000 
     42 CA        -12.5820   -9.6200    7.3160 C.3       6 GLP5        0.0000 
     43 CA         -9.7820  -10.7710    4.3790 C.3       3 GLC5        0.0000 
     44 CA         -9.8960  -12.6070    5.2840 C.3       9 GLL5        0.0000 
     45 CA         -8.2895  -11.7495    4.2150 C.3       3 GLC5        0.0000 
     46 CA         -6.6830  -10.8920    3.1460 C.3       6 GLP5        0.0000 
     47 CA        -13.2020  -15.3320    2.5445 C.3       3 GLC5        0.0000 
     48 CA        -11.6720  -14.0830    3.1240 C.3       9 GLL5        0.0000 
     49 CA        -14.7320  -16.5810    1.9650 C.3       6 GLP5        0.0000 
     50 CA        -11.0730  -14.5105    1.0385 C.3       3 GLC5        0.0000 
     51 CA        -10.4740  -14.9380   -1.0470 C.3       6 GLP5        0.0000 
     52 CA        -12.3285  -12.8915    1.7220 C.3       3 GLC5        0.0000 
     53 CA        -12.9850  -11.7000    0.3200 C.3       6 GLP5        0.0000 
     54 CA         -9.6740  -10.9590    2.8815 C.3       3 GLC5        0.0000 
     55 CA         -9.6800  -12.9830    2.2890 C.3       9 GLL5        0.0000 
     56 CA         -8.1815  -11.9375    2.7175 C.3       3 GLC5        0.0000 
     57 CA         -7.9900  -13.7690    1.4730 C.3       3 GLC5        0.0000 
     58 CA         -6.3000  -14.5550    0.6570 C.3       6 GLP5        0.0000 
     59 CA        -10.0770  -13.9605    0.6210 C.3       3 GLC5        0.0000 
     60 CA        -11.3325  -12.3415    1.3045 C.3       3 GLC5        0.0000 
     61 N          -5.7675   -9.3365    6.7060 N.am      2 SEC2        0.0000 
     62 N          -5.7940  -10.2190    7.7430 N.am      8 SEL2        0.0000 
     63 N          -5.7410   -8.4540    5.6690 N.am      5 SEP2        0.0000 
     64 CA         -7.5559  -10.9406    5.6702 C.3       3 GLC5        0.0000 
     65 CA         -6.4050  -10.3150    4.3740 C.3       6 GLP5        0.0000 
@<TRIPOS>BOND
@<TRIPOS>SUBSTRUCTURE
     1 ALC1       20 GROUP        1 X    ALC  0     ROOT ALC X 1
     2 SEC2       12 GROUP        1 X    SEC  0     **** SEC X 2
     3 GLC5        1 GROUP        1 X    GLC  0     **** GLC X 6
     4 ALP1       22 GROUP        1 Y    ALP  0     ROOT ALP Y 8
     5 SEP2       14 GROUP        1 Y    SEP  0     **** SEP Y 9
     6 GLP5        3 GROUP        1 Y    GLP  0     **** GLP Y 13
     7 ALL1       21 GROUP        1 Z    ALL  0     ROOT ALL Z 15
     8 SEL2       13 GROUP        1 Z    SEL  0     **** SEL Z 16
     9 GLL5        2 GROUP        1 Z    GLL  0     **** GLL Z 20
@<TRIPOS>SET

