#    Name: 2q8d_THR_GLY_GLY_VAL_MLY_2_ligand
#    Modification time : Mon Mar 24 21:01:08 2014

@<TRIPOS>MOLECULE
2q8d_THR_GLY_GLY_VAL_MLY_2_ligand
   69    68     5     0     0
SMALL
NO_CHARGES


@<TRIPOS>ATOM
      1 N         -18.0860   -2.8920   13.0720 N.4       1 THR32       0.0000
      2 CA        -16.8150   -3.3890   12.4570 C.3       1 THR32       0.0000
      3 C         -15.5450   -3.0700   13.2700 C.3       1 THR32       0.0000
      4 O         -15.5800   -2.2680   14.2110 O.2       1 THR32       0.0000
      5 HA        -16.6930   -2.9550   11.4464 H         1 THR32       0.0000
      6 H         -16.8684   -4.4860   12.3211 H         1 THR32       0.0000
      7 H         -15.2682   -2.0236   12.3114 H         1 THR32       0.0000
      8 HNCA      -18.2378   -3.2842   13.9793 H         1 THR32       0.0000
      9 H         -18.0827   -1.8978   13.1793 H         1 THR32       0.0000
     10 H         -18.8836   -3.1240   12.5152 H         1 THR32       0.0000
     11 N         -14.4350   -3.7140   12.8970 N.am      2 GLY33       0.0000
     12 CA        -13.1190   -3.4660   13.4990 C.3       2 GLY33       0.0000
     13 C         -12.1610   -4.6390   13.3520 C.2       2 GLY33       0.0000
     14 O         -12.5060   -5.7650   13.7160 O.2       2 GLY33       0.0000
     15 HNCA      -14.4478   -4.4423   12.1418 H         2 GLY33       0.0000
     16 HA2       -13.2263   -3.2409   14.5771 H         2 GLY33       0.0000
     17 HA3       -12.6483   -2.5762   13.0396 H         2 GLY33       0.0000
     18 N         -10.9640   -4.3770   12.8180 N.am      3 GLY34       0.0000
     19 CA         -9.9030   -5.3970   12.6940 C.3       3 GLY34       0.0000
     20 C          -9.3760   -5.6450   11.2860 C.2       3 GLY34       0.0000
     21 O          -9.6930   -4.8940   10.3570 O.2       3 GLY34       0.0000
     22 HNCA      -10.7115   -3.4300   12.4566 H         3 GLY34       0.0000
     23 HA2       -10.2668   -6.3719   13.1017 H         3 GLY34       0.0000
     24 HA3        -9.0356   -5.1204   13.3421 H         3 GLY34       0.0000
     25 N          -8.5460   -6.6830   11.1370 N.am      4 VAL35       0.0000
     26 CA         -8.0740   -7.1590    9.8160 C.3       4 VAL35       0.0000
     27 C          -8.0540   -8.6900    9.7070 C.2       4 VAL35       0.0000
     28 O          -7.8500   -9.3930   10.7020 O.2       4 VAL35       0.0000
     29 CB         -6.6580   -6.6210    9.4340 C.3       4 VAL35       0.0000
     30 CG1        -6.7190   -5.1500    9.0080 C.3       4 VAL35       0.0000
     31 CG2        -5.6520   -6.8340   10.5720 C.3       4 VAL35       0.0000
     32 HNCA       -8.1795   -7.2231   11.9548 H         4 VAL35       0.0000
     33 HA         -8.7583   -6.7966    9.0265 H         4 VAL35       0.0000
     34 HB         -6.3162   -7.2067    8.5697 H         4 VAL35       0.0000
     35 H          -5.8163   -4.7968    8.7620 H         4 VAL35       0.0000
     36 H          -7.3119   -5.0177    8.2137 H         4 VAL35       0.0000
     37 H          -7.0731   -4.5661    9.7386 H         4 VAL35       0.0000
     38 HG21       -4.7429   -6.4928   10.3328 H         4 VAL35       0.0000
     39 HG22       -5.9316   -6.3620   11.4081 H         4 VAL35       0.0000
     40 HG23       -5.5507   -7.8019   10.8018 H         4 VAL35       0.0000
     41 N          -8.2650   -9.1890    8.4880 N.am      5 MLY36       0.0000
     42 CA         -8.1390  -10.6220    8.1750 C.3       5 MLY36       0.0000
     43 CB         -8.9720  -10.9290    6.9230 C.3       5 MLY36       0.0000
     44 CG         -8.8580  -12.3570    6.3840 C.3       5 MLY36       0.0000
     45 CD         -9.8960  -12.6070    5.2840 C.3       5 MLY36       0.0000
     46 CE         -9.7060  -13.9580    4.5820 C.3       5 MLY36       0.0000
     47 NZ        -10.2000  -14.0440    3.1780 N.4       5 MLY36       0.0000
     48 CH1       -11.6720  -14.0830    3.1240 C.3       5 MLY36       0.0000
     49 CH2        -9.6800  -12.9830    2.2890 C.3       5 MLY36       0.0000
     50 C          -6.6890  -11.0410    8.0210 C.2       5 MLY36       0.0000
     51 O          -5.7940  -10.2190    7.7430 O.2       5 MLY36       0.0000
     52 H          -8.5347   -8.5813    7.6788 H         5 MLY36       0.0000
     53 H          -8.5780  -11.2007    8.9998 H         5 MLY36       0.0000
     54 H          -8.6793  -10.2208    6.1212 H         5 MLY36       0.0000
     55 H         -10.0373  -10.7161    7.1462 H         5 MLY36       0.0000
     56 H          -9.0211  -13.0616    7.1962 H         5 MLY36       0.0000
     57 H          -7.8613  -12.5085    5.9761 H         5 MLY36       0.0000
     58 H          -9.8278  -11.8056    4.5393 H         5 MLY36       0.0000
     59 H         -10.8991  -12.5721    5.7245 H         5 MLY36       0.0000
     60 H         -10.2045  -14.7397    5.2024 H         5 MLY36       0.0000
     61 H          -8.6197  -14.2102    4.6124 H         5 MLY36       0.0000
     62 H          -9.8392  -15.0262    2.7635 H         5 MLY36       0.0000
     63 H          -6.5556  -12.0716    8.1748 H         5 MLY36       0.0000
     64 H         -12.0077  -14.1431    2.1839 H         5 MLY36       0.0000
     65 H         -12.0410  -14.8703    3.6179 H         5 MLY36       0.0000
     66 H         -12.0803  -13.2651    3.5293 H         5 MLY36       0.0000
     67 H          -8.6823  -13.0074    2.2257 H         5 MLY36       0.0000
     68 H         -10.0350  -13.0713    1.3583 H         5 MLY36       0.0000
     69 H          -9.9309  -12.0709    2.6131 H         5 MLY36       0.0000
@<TRIPOS>BOND
     1    2    1 1
     2    8    1 1
     3    9    1 1
     4   10    1 1
     5    3    2 1
     6    5    2 1
     7    6    2 1
     8    4    3 2
     9    7    3 1
    10   12   11 1
    11   15   11 1
    12   13   12 1
    13   16   12 1
    14   17   12 1
    15   14   13 2
    16   19   18 1
    17   22   18 1
    18   20   19 1
    19   23   19 1
    20   24   19 1
    21   21   20 2
    22   26   25 1
    23   32   25 1
    24   27   26 1
    25   29   26 1
    26   33   26 1
    27   28   27 2
    28   30   29 1
    29   31   29 1
    30   34   29 1
    31   35   30 1
    32   36   30 1
    33   37   30 1
    34   38   31 1
    35   39   31 1
    36   40   31 1
    37   42   41 1
    38   52   41 1
    39   43   42 1
    40   50   42 1
    41   53   42 1
    42   44   43 1
    43   54   43 1
    44   55   43 1
    45   45   44 1
    46   56   44 1
    47   57   44 1
    48   46   45 1
    49   58   45 1
    50   59   45 1
    51   47   46 1
    52   60   46 1
    53   61   46 1
    54   48   47 1
    55   49   47 1
    56   62   47 1
    57   64   48 1
    58   65   48 1
    59   66   48 1
    60   67   49 1
    61   68   49 1
    62   69   49 1
    63   51   50 2
    64   63   50 1
    65   11    3 am
    66   18   13 am
    67   25   20 am
    68   41   27 1 
@<TRIPOS>SUBSTRUCTURE
     1 THR32       1 RESIDUE
     2 GLY33      11 RESIDUE
     3 GLY34      18 RESIDUE
     4 VAL35      25 RESIDUE
     5 MLY36      41 GROUP
@<TRIPOS>SET

