#    Name: 4ha9_NDP_1_INTS_M
#    Modification time : Tue Mar 25 00:45:07 2014

@<TRIPOS>MOLECULE
4ha9_NDP_1_INTS_M
   85     0     9     0     0
SMALL
NO_CHARGES


@<TRIPOS>ATOM
      1 N         -24.9320   -1.7990  -14.5560 N.am      2 SEC2        0.0000 
      2 N         -24.5240   -0.6710  -13.4620 N.am      8 SEL2        0.0000 
      3 N         -25.3400   -2.9270  -15.6500 N.am      5 SEP2        0.0000 
      4 N         -23.5570   -1.4840  -14.0160 N.am      2 SEC2        0.0000 
      5 N         -22.5900   -2.2970  -14.5700 N.am      5 SEP2        0.0000 
      6 N         -23.4935    2.3460  -10.8380 N.am      2 SEC2        0.0000 
      7 N         -24.1100    1.3720  -11.8130 N.am      8 SEL2        0.0000 
      8 N         -22.8770    3.3200   -9.8630 N.am      5 SEP2        0.0000 
      9 CA        -26.3095    2.8305  -11.7950 C.3       3 GLC5        0.0000 
     10 CA        -27.3670    1.2640  -11.9190 C.3       9 GLL5        0.0000 
     11 CA        -25.2520    4.3970  -11.6710 C.3       6 GLP5        0.0000 
     12 CA        -28.4295   -1.3110   -7.5835 C.3       3 GLC5        0.0000 
     13 CA        -28.9170    0.0180   -9.1140 C.3       9 GLL5        0.0000 
     14 CA        -27.9420   -2.6400   -6.0530 C.3       6 GLP5        0.0000 
     15 N         -26.2135    3.2260   -6.8030 N.am      2 SEC2        0.0000 
     16 N         -26.8650    1.8800   -6.7650 N.am      8 SEL2        0.0000 
     17 N         -25.5620    4.5720   -6.8410 N.am      5 SEP2        0.0000 
     18 CA        -29.4610    3.1755   -5.6045 C.3       3 GLC5        0.0000 
     19 CA        -27.9620    1.6180   -6.0100 C.3       9 GLL5        0.0000 
     20 CA        -30.9600    4.7330   -5.1990 C.3       6 GLP5        0.0000 
     21 CA        -29.0995    3.3740   -3.8430 C.3       3 GLC5        0.0000 
     22 CA        -28.3390    1.9180   -4.6950 C.3       9 GLL5        0.0000 
     23 CA        -29.8600    4.8300   -2.9910 C.3       6 GLP5        0.0000 
     24 O         -27.4455    2.5340   -2.1065 O.2       1 ALC1        0.0000 
     25 O         -27.4440    2.6660   -3.8280 O.2       7 ALL1        0.0000 
     26 O         -27.4470    2.4020   -0.3850 O.2       4 ALP1        0.0000 
     27 O         -26.4695    3.8645   -4.2430 O.2       1 ALC1        0.0000 
     28 O         -25.4950    5.0630   -4.6580 O.2       4 ALP1        0.0000 
     29 N         -29.7800    1.8540   -2.8955 N.am      2 SEC2        0.0000 
     30 N         -29.5470    1.4870   -4.2540 N.am      8 SEL2        0.0000 
     31 N         -30.0130    2.2210   -1.5370 N.am      5 SEP2        0.0000 
     32 CA        -29.1685   -0.9280   -5.5445 C.3       3 GLC5        0.0000 
     33 CA        -30.3950    0.7840   -5.0360 C.3       9 GLL5        0.0000 
     34 CA        -31.2615   -0.9190   -4.8080 C.3       3 GLC5        0.0000 
     35 CA        -32.1280   -2.6220   -4.5800 C.3       6 GLP5        0.0000 
     36 CA        -30.6775    2.7585   -5.1175 C.3       3 GLC5        0.0000 
     37 CA        -29.1310    0.3785   -3.5595 C.3       3 GLC5        0.0000 
     38 CA        -27.8670   -0.0270   -2.0830 C.3       6 GLP5        0.0000 
     39 N         -23.5510    4.0230  -13.5190 N.am      2 SEC2        0.0000 
     40 N         -24.1570    3.6100  -14.6520 N.am      8 SEL2        0.0000 
     41 N         -22.9450    4.4360  -12.3860 N.am      5 SEP2        0.0000 
     42 N         -22.3755    2.0250  -14.6960 N.am      2 SEC2        0.0000 
     43 N         -23.5110    1.2250  -15.5730 N.am      8 SEL2        0.0000 
     44 N         -21.2400    2.8250  -13.8190 N.am      5 SEP2        0.0000 
     45 CA        -22.0435    1.0555  -14.8680 C.3       3 GLC5        0.0000 
     46 CA        -22.4880    1.6220  -16.4910 C.3       9 GLL5        0.0000 
     47 CA        -21.5990    0.4890  -13.2450 C.3       6 GLP5        0.0000 
     48 CA        -21.7775    3.3385  -15.6465 C.3       3 GLC5        0.0000 
     49 CA        -21.0670    5.0550  -14.8020 C.3       6 GLP5        0.0000 
     50 CA        -23.3160   -2.0950  -16.7460 C.3       3 GLC5        0.0000 
     51 CA        -22.5440   -0.5740  -17.5240 C.3       9 GLL5        0.0000 
     52 CA        -24.0880   -3.6160  -15.9680 C.3       6 GLP5        0.0000 
     53 CA        -22.1900   -2.3775  -15.9325 C.3       3 GLC5        0.0000 
     54 CA        -21.2890   -1.1330  -17.0810 C.3       9 GLL5        0.0000 
     55 CA        -23.0910   -3.6220  -14.7840 C.3       6 GLP5        0.0000 
     56 CA        -21.4440   -0.3220  -15.1630 C.3       3 GLC5        0.0000 
     57 CA        -19.4450    1.4800  -17.8275 C.3       3 GLC5        0.0000 
     58 CA        -20.2760   -0.3300  -17.7940 C.3       9 GLL5        0.0000 
     59 CA        -18.6140    3.2900  -17.8610 C.3       6 GLP5        0.0000 
     60 N         -13.3600   -0.0780  -16.4140 N.am      2 SEC2        0.0000 
     61 N         -14.3940   -0.8870  -16.7210 N.am      8 SEL2        0.0000 
     62 N         -12.3260    0.7310  -16.1070 N.am      5 SEP2        0.0000 
     63 CA        -18.5160   -0.2515  -13.0205 C.3       3 GLC5        0.0000 
     64 CA        -18.0560    0.2950  -14.9130 C.3       9 GLL5        0.0000 
     65 CA        -18.9760   -0.7980  -11.1280 C.3       6 GLP5        0.0000 
     66 CA        -18.9020    1.7255  -16.7790 C.3       3 GLC5        0.0000 
     67 CA        -19.1900    0.1610  -15.6970 C.3       9 GLL5        0.0000 
     68 N         -33.3590   -1.0255   -7.6630 N.am      2 SEC2        0.0000 
     69 N         -33.2420   -0.6240   -9.1370 N.am      8 SEL2        0.0000 
     70 N         -33.4760   -1.4270   -6.1890 N.am      5 SEP2        0.0000 
     71 CA        -28.1737   -0.6930   -6.2325 C.3       3 GLC5        0.0000 
     72 CA        -28.8490    0.8900   -6.8140 C.3       9 GLL5        0.0000 
     73 CA        -28.0087    0.8705   -3.7178 C.3       3 GLC5        0.0000 
     74 CA        -20.4950    2.2568  -17.4808 C.3       3 GLC5        0.0000 
     75 CA        -17.2375    1.2767  -17.6522 C.3       3 GLC5        0.0000 
     76 CA        -17.8950   -0.4480  -17.5360 C.3       9 GLL5        0.0000 
     77 CA        -17.1680    2.9440  -18.1330 C.3       6 GLP5        0.0000 
     78 CA        -16.8585    1.8323  -16.1017 C.3       3 GLC5        0.0000 
     79 CA        -16.8120    0.0460  -15.4620 C.3       9 GLL5        0.0000 
     80 CA        -16.2830    3.4940  -17.0160 C.3       6 GLP5        0.0000 
     81 CA        -17.3255    1.2542  -13.6078 C.3       3 GLC5        0.0000 
     82 CA        -17.2170    2.3380  -12.0280 C.3       6 GLP5        0.0000 
     83 CA        -15.7349    0.6839  -14.5664 C.3       3 GLC5        0.0000 
     84 CA        -14.0590    1.2920  -13.6090 C.3       6 GLP5        0.0000 
     85 CA        -20.1110    0.3585  -14.2750 C.3       3 GLC5        0.0000 
@<TRIPOS>BOND
@<TRIPOS>SUBSTRUCTURE
     1 ALC1       24 GROUP        1 X    ALC  0     ROOT ALC X 1
     2 SEC2        1 GROUP        1 X    SEC  0     **** SEC X 2
     3 GLC5        9 GROUP        1 X    GLC  0     **** GLC X 6
     4 ALP1       26 GROUP        1 Y    ALP  0     ROOT ALP Y 8
     5 SEP2        3 GROUP        1 Y    SEP  0     **** SEP Y 9
     6 GLP5       11 GROUP        1 Y    GLP  0     **** GLP Y 13
     7 ALL1       25 GROUP        1 Z    ALL  0     ROOT ALL Z 15
     8 SEL2        2 GROUP        1 Z    SEL  0     **** SEL Z 16
     9 GLL5       10 GROUP        1 Z    GLL  0     **** GLL Z 20
@<TRIPOS>SET

