#    Name: 4ha9_NDP_1_ligand
#    Modification time : Tue Mar 25 00:45:08 2014

@<TRIPOS>MOLECULE
4ha9_NDP_1_ligand
   74    78     1     0     0
SMALL
NO_CHARGES


@<TRIPOS>ATOM
      1 PA        -25.0260    0.7170  -12.8320 P.3       1 NDP301      0.0000 
      2 O1A       -24.5240   -0.6710  -13.4620 O.co2     1 NDP301      0.0000 
      3 O2A       -24.1100    1.3720  -11.8130 O.co2     1 NDP301      0.0000 
      4 O5B       -26.2800    0.3590  -12.0340 O.3       1 NDP301      0.0000 
      5 C5B       -27.3670    1.2640  -11.9190 C.3       1 NDP301      0.0000 
      6 C4B       -28.5390    0.6490  -11.2740 C.3       1 NDP301      0.0000 
      7 O4B       -28.0950   -0.2300  -10.2060 O.3       1 NDP301      0.0000 
      8 C3B       -29.3590    1.6300  -10.6530 C.3       1 NDP301      0.0000 
      9 O3B       -30.2740    2.2050  -11.5480 O.3       1 NDP301      0.0000 
     10 C2B       -30.0060    0.8340   -9.6100 C.3       1 NDP301      0.0000 
     11 O2B       -30.9700   -0.0570  -10.1370 O.3       1 NDP301      0.0000 
     12 C1B       -28.9170    0.0180   -9.1140 C.3       1 NDP301      0.0000 
     13 N9A       -28.2310    0.7470   -8.0020 N.pl3     1 NDP301      0.0000 
     14 C8A       -27.0250    1.3470   -7.9900 C.2       1 NDP301      0.0000 
     15 N7A       -26.8650    1.8800   -6.7650 N.2       1 NDP301      0.0000 
     16 C5A       -27.9620    1.6180   -6.0100 C.ar      1 NDP301      0.0000 
     17 C6A       -28.3390    1.9180   -4.6950 C.ar      1 NDP301      0.0000 
     18 N6A       -27.4440    2.6660   -3.8280 N.pl3     1 NDP301      0.0000 
     19 N1A       -29.5470    1.4870   -4.2540 N.ar      1 NDP301      0.0000 
     20 C2A       -30.3950    0.7840   -5.0360 C.ar      1 NDP301      0.0000 
     21 N3A       -30.0390    0.4950   -6.3060 N.ar      1 NDP301      0.0000 
     22 C4A       -28.8490    0.8900   -6.8140 C.ar      1 NDP301      0.0000 
     23 O3        -25.4720    1.7030  -13.9630 O.3       1 NDP301      0.0000 
     24 PN        -24.6640    2.1940  -15.1620 P.3       1 NDP301      0.0000 
     25 O1N       -24.1570    3.6100  -14.6520 O.co2     1 NDP301      0.0000 
     26 O2N       -25.7160    2.4150  -16.3460 O.co2     1 NDP301      0.0000 
     27 O5D       -23.5110    1.2250  -15.5730 O.3       1 NDP301      0.0000 
     28 C5D       -22.4880    1.6220  -16.4910 C.3       1 NDP301      0.0000 
     29 C4D       -22.2640    0.8250  -17.7100 C.3       1 NDP301      0.0000 
     30 O4D       -20.8810    0.8940  -18.0830 O.3       1 NDP301      0.0000 
     31 C3D       -22.5440   -0.5740  -17.5240 C.3       1 NDP301      0.0000 
     32 O3D       -22.8900   -1.1390  -18.7810 O.3       1 NDP301      0.0000 
     33 C2D       -21.2890   -1.1330  -17.0810 C.3       1 NDP301      0.0000 
     34 O2D       -21.1680   -2.4280  -17.4360 O.3       1 NDP301      0.0000 
     35 C1D       -20.2760   -0.3300  -17.7940 C.3       1 NDP301      0.0000 
     36 N1N       -19.0830   -0.2050  -16.9860 N.pl3     1 NDP301      0.0000 
     37 C2N       -17.8950   -0.4480  -17.5360 C.2       1 NDP301      0.0000 
     38 C3N       -16.7190   -0.3330  -16.8070 C.2       1 NDP301      0.0000 
     39 C7N       -15.3700   -0.6200  -17.4620 C.2       1 NDP301      0.0000 
     40 O7N       -14.3940   -0.8870  -16.7210 O.2       1 NDP301      0.0000 
     41 N7N       -15.2030   -0.5870  -18.9000 N.am      1 NDP301      0.0000 
     42 C4N       -16.8120    0.0460  -15.4620 C.3       1 NDP301      0.0000 
     43 C5N       -18.0560    0.2950  -14.9130 C.2       1 NDP301      0.0000 
     44 C6N       -19.1900    0.1610  -15.6970 C.2       1 NDP301      0.0000 
     45 P2B       -32.5460    0.2640  -10.1740 P.3       1 NDP301      0.0000 
     46 O1X       -32.8260    1.7200   -9.8860 O.co2     1 NDP301      0.0000 
     47 O2X       -33.0250   -0.0750  -11.6180 O.co2     1 NDP301      0.0000 
     48 O3X       -33.2420   -0.6240   -9.1370 O.co2     1 NDP301      0.0000 
     49 H         -27.6708    1.6456  -12.9198 H         1 NDP301      0.0000 
     50 H         -27.0711    2.1646  -11.3352 H         1 NDP301      0.0000 
     51 H         -29.0993    0.0812  -11.9915 H         1 NDP301      0.0000 
     52 H         -28.7284    2.3606  -10.1689 H         1 NDP301      0.0000 
     53 H         -30.3708    1.4478   -8.8428 H         1 NDP301      0.0000 
     54 H         -29.3363   -0.9033   -8.7172 H         1 NDP301      0.0000 
     55 H         -26.4013    1.3862   -8.7153 H         1 NDP301      0.0000 
     56 H         -27.5181    2.4752   -2.8492 H         1 NDP301      0.0000 
     57 H         -26.8279    3.3098   -4.2818 H         1 NDP301      0.0000 
     58 H         -31.3108    0.4693   -4.6641 H         1 NDP301      0.0000 
     59 H         -21.4909    1.7019  -15.9381 H         1 NDP301      0.0000 
     60 H         -22.6626    2.7056  -16.8096 H         1 NDP301      0.0000 
     61 H         -22.8688    1.2158  -18.5186 H         1 NDP301      0.0000 
     62 H         -23.2918   -0.7115  -16.7955 H         1 NDP301      0.0000 
     63 H         -21.1706   -0.9504  -16.0296 H         1 NDP301      0.0000 
     64 H         -20.0392   -0.8647  -18.7205 H         1 NDP301      0.0000 
     65 H         -17.8196   -0.7348  -18.5429 H         1 NDP301      0.0000 
     66 H         -16.0076   -0.3200  -19.4304 H         1 NDP301      0.0000 
     67 H         -14.2969   -0.8339  -19.2435 H         1 NDP301      0.0000 
     68 H         -16.1284    0.9621  -15.2894 H         1 NDP301      0.0000 
     69 H         -16.2616   -0.7411  -14.8187 H         1 NDP301      0.0000 
     70 H         -18.1404    0.5782  -13.9283 H         1 NDP301      0.0000 
     71 H         -20.1184    0.3482  -15.2701 H         1 NDP301      0.0000 
     72 H         -31.1622    2.1281  -11.0950 H         1 NDP301      0.0000 
     73 H         -23.8558   -1.3846  -18.6972 H         1 NDP301      0.0000 
     74 H         -21.8311   -2.5572  -18.1732 H         1 NDP301      0.0000 
@<TRIPOS>BOND
     1    2    1 ar   
     2    3    1 ar   
     3    4    1 1    
     4   23    1 1    
     5    5    4 1    
     6    6    5 1    
     7   49    5 1    
     8   50    5 1    
     9    7    6 1    
    10    8    6 1    
    11   51    6 1    
    12   12    7 1    
    13    9    8 1    
    14   10    8 1    
    15   52    8 1    
    16   72    9 1    
    17   11   10 1    
    18   12   10 1    
    19   53   10 1    
    20   45   11 1    
    21   13   12 1    
    22   54   12 1    
    23   14   13 1    
    24   22   13 1    
    25   15   14 2    
    26   55   14 1    
    27   16   15 1    
    28   17   16 ar   
    29   22   16 ar   
    30   18   17 1    
    31   19   17 ar   
    32   56   18 1    
    33   57   18 1    
    34   20   19 ar   
    35   21   20 ar   
    36   58   20 1    
    37   22   21 ar   
    38   24   23 1    
    39   25   24 ar   
    40   26   24 ar   
    41   27   24 1    
    42   28   27 1    
    43   29   28 1    
    44   59   28 1    
    45   60   28 1    
    46   30   29 1    
    47   31   29 1    
    48   61   29 1    
    49   35   30 1    
    50   32   31 1    
    51   33   31 1    
    52   62   31 1    
    53   73   32 1    
    54   34   33 1    
    55   35   33 1    
    56   63   33 1    
    57   74   34 1    
    58   36   35 1    
    59   64   35 1    
    60   37   36 1    
    61   44   36 1    
    62   38   37 2    
    63   65   37 1    
    64   39   38 1    
    65   42   38 1    
    66   40   39 2    
    67   41   39 am   
    68   66   41 1    
    69   67   41 1    
    70   43   42 1    
    71   68   42 1    
    72   69   42 1    
    73   44   43 2    
    74   70   43 1    
    75   71   44 1    
    76   46   45 ar   
    77   47   45 ar   
    78   48   45 ar   
@<TRIPOS>SUBSTRUCTURE
     1 NDP301      1 GROUP   
@<TRIPOS>SET

