#    Name: 3VGW_4_CAVITY_N1_6.mol2
#    Modification time : Tue Mar 11 11:13:06 2014

@<TRIPOS>MOLECULE
3VGW_4_CAVITY_N1_6.mol2
   90     0     6     0     0
SMALL
NO_CHARGES


@<TRIPOS>ATOM
      1 OG         54.0268   53.3788   58.0213 O.2       1 SER1        0.0000 
      2 OG         53.5988   52.6732   59.2739 O.2       1 SER1        0.0000 
      3 OG         53.1708   51.9677   60.5265 O.2       1 SER1        0.0000 
      4 CZ         51.5905   50.6489   61.0400 C.ar      4 PHE5        0.0000 
      5 CZ         51.1625   49.9434   62.2925 C.ar      4 PHE5        0.0000 
      6 N          50.4382   50.0358   60.3008 N.2       2 ALA2        0.0000 
      7 CZ         50.0102   49.3302   61.5534 C.ar      4 PHE5        0.0000 
      8 CZ         49.5822   48.6247   62.8060 C.ar      4 PHE5        0.0000 
      9 OG         48.8579   48.7170   60.8143 O.2       1 SER1        0.0000 
     10 OG         48.4299   48.0115   62.0669 O.2       1 SER1        0.0000 
     11 OG         47.2777   47.3983   61.3278 O.2       1 SER1        0.0000 
     12 CA         46.8496   46.6928   62.5804 C.3       5 GLY6        0.0000 
     13 CA         45.2694   45.3740   63.0939 C.3       5 GLY6        0.0000 
     14 CA         44.8413   44.6685   64.3465 C.3       5 GLY6        0.0000 
     15 OG         43.6891   44.0553   63.6074 O.2       1 SER1        0.0000 
     16 OG         42.9648   44.1477   61.6156 O.2       1 SER1        0.0000 
     17 OG         56.0388   52.8188   58.3934 O.2       1 SER1        0.0000 
     18 OG         55.6108   52.1133   59.6459 O.2       1 SER1        0.0000 
     19 CZ         55.1828   51.4077   60.8985 C.ar      4 PHE5        0.0000 
     20 O          55.3145   52.9112   56.4016 O.2       2 ALA2        0.0000 
     21 O          54.8865   52.2056   57.6542 O.2       2 ALA2        0.0000 
     22 OG         54.4585   51.5001   58.9068 O.2       1 SER1        0.0000 
     23 CZ         54.0305   50.7945   60.1594 C.ar      4 PHE5        0.0000 
     24 CA         54.1622   52.2980   55.6625 C.3       5 GLY6        0.0000 
     25 CA         53.7342   51.5925   56.9151 C.3       5 GLY6        0.0000 
     26 CA         53.3062   50.8869   58.1677 C.3       5 GLY6        0.0000 
     27 CZ         52.8782   50.1814   59.4203 C.ar      4 PHE5        0.0000 
     28 CZ         52.4502   49.4758   60.6729 C.ar      4 PHE5        0.0000 
     29 CZ         52.0222   48.7702   61.9255 C.ar      4 PHE5        0.0000 
     30 CZ         51.7259   49.5682   58.6812 C.ar      4 PHE5        0.0000 
     31 CZ         51.2979   48.8626   59.9338 C.ar      4 PHE5        0.0000 
     32 CA         50.8699   48.1571   61.1864 C.3       5 GLY6        0.0000 
     33 CA         50.4419   47.4515   62.4390 C.3       5 GLY6        0.0000 
     34 O          49.7176   47.5439   60.4473 O.2       2 ALA2        0.0000 
     35 CA         49.2896   46.8384   61.6999 C.3       5 GLY6        0.0000 
     36 OG         48.8616   46.1328   62.9525 O.2       1 SER1        0.0000 
     37 CA         48.1373   46.2252   60.9608 C.3       5 GLY6        0.0000 
     38 OG         47.7093   45.5196   62.2134 O.2       1 SER1        0.0000 
     39 O          46.5571   44.9065   61.4742 O.2       2 ALA2        0.0000 
     40 OG         46.1290   44.2009   62.7268 O.2       1 SER1        0.0000 
     41 OG         45.7010   43.4954   63.9794 O.2       1 SER1        0.0000 
     42 N          45.4048   44.2933   60.7351 N.2       2 ALA2        0.0000 
     43 CA         44.9768   43.5878   61.9877 C.3       5 GLY6        0.0000 
     44 DU         44.5488   42.8822   63.2403 H         6 CUB7        0.0000 
     45 N          44.2525   43.6802   59.9960 N.2       2 ALA2        0.0000 
     46 CA         57.3302   49.7670   58.9119 C.3       5 GLY6        0.0000 
     47 CZ         56.9021   49.0614   60.1645 C.ar      4 PHE5        0.0000 
     48 NZ         57.8899   51.9761   53.1624 N.2       3 LYS4        0.0000 
     49 N          57.4619   51.2705   54.4150 N.2       2 ALA2        0.0000 
     50 O          57.0339   50.5650   55.6676 O.2       2 ALA2        0.0000 
     51 O          56.6059   49.8594   56.9202 O.2       2 ALA2        0.0000 
     52 CZ         56.1779   49.1538   58.1728 C.ar      4 PHE5        0.0000 
     53 CZ         55.7499   48.4483   59.4253 C.ar      4 PHE5        0.0000 
     54 CA         55.3219   47.7427   60.6779 C.3       5 GLY6        0.0000 
     55 CA         57.1656   52.0685   51.1707 C.3       5 GLY6        0.0000 
     56 CA         56.7376   51.3629   52.4233 C.3       5 GLY6        0.0000 
     57 CA         56.3096   50.6574   53.6759 C.3       5 GLY6        0.0000 
     58 CA         55.8816   49.9518   54.9285 C.3       5 GLY6        0.0000 
     59 CZ         55.4536   49.2462   56.1810 C.ar      4 PHE5        0.0000 
     60 CZ         55.0256   48.5407   57.4336 C.ar      4 PHE5        0.0000 
     61 CZ         54.5976   47.8351   58.6862 C.ar      4 PHE5        0.0000 
     62 CA         56.0134   51.4553   50.4316 C.3       5 GLY6        0.0000 
     63 OG         47.1242   41.9471   60.0010 O.2       1 SER1        0.0000 
     64 OG         46.6961   41.2415   61.2536 O.2       1 SER1        0.0000 
     65 CZ         56.4705   50.9401   59.2789 C.ar      4 PHE5        0.0000 
     66 CZ         56.0425   50.2346   60.5315 C.ar      4 PHE5        0.0000 
     67 N          56.6022   52.4436   54.7820 N.2       2 ALA2        0.0000 
     68 O          56.1742   51.7381   56.0346 O.2       2 ALA2        0.0000 
     69 O          55.3182   50.3270   58.5398 O.2       2 ALA2        0.0000 
     70 DU         54.8902   49.6214   59.7924 H         6 CUB7        0.0000 
     71 OG         54.4622   48.9158   61.0450 O.2       1 SER1        0.0000 
     72 CA         55.0219   51.1249   55.2955 C.3       5 GLY6        0.0000 
     73 CZ         54.5939   50.4194   56.5481 C.ar      4 PHE5        0.0000 
     74 CZ         54.1659   49.7138   57.8007 C.ar      4 PHE5        0.0000 
     75 CZ         53.7379   49.0082   59.0533 C.ar      4 PHE5        0.0000 
     76 CA         53.3099   48.3027   60.3059 C.3       5 GLY6        0.0000 
     77 OG         47.4167   43.7334   61.1072 O.2       1 SER1        0.0000 
     78 OG         46.9887   43.0278   62.3598 O.2       1 SER1        0.0000 
     79 N          46.2645   43.1202   60.3681 N.2       2 ALA2        0.0000 
     80 OG         45.8365   42.4146   61.6207 O.2       1 SER1        0.0000 
     81 DU         45.4084   41.7091   62.8733 H         6 CUB7        0.0000 
     82 NZ         59.1776   51.5085   51.5427 N.2       3 LYS4        0.0000 
     83 NZ         58.0253   50.8954   50.8036 N.2       3 LYS4        0.0000 
     84 CA         57.5973   50.1898   52.0562 C.3       5 GLY6        0.0000 
     85 CA         57.1693   49.4842   53.3088 C.3       5 GLY6        0.0000 
     86 NZ         56.8731   50.2822   50.0645 N.2       3 LYS4        0.0000 
     87 CA         56.4450   49.5766   51.3171 C.3       5 GLY6        0.0000 
     88 N          58.4570   49.0167   51.6892 N.2       2 ALA2        0.0000 
     89 CZ         58.0290   48.3111   52.9418 C.ar      4 PHE5        0.0000 
     90 CA         57.3047   48.4035   50.9501 C.3       5 GLY6        0.0000 
@<TRIPOS>BOND
@<TRIPOS>SUBSTRUCTURE
     1 SER1        1 GROUP   
     2 ALA2        6 GROUP   
     3 LYS4       48 GROUP   
     4 PHE5        4 GROUP   
     5 GLY6       12 GROUP   
     6 CUB7       44 GROUP   
@<TRIPOS>SET

