#    Name: 3vgw_NVZ_4_INTS_M
#    Modification time : Tue Mar 25 00:48:38 2014

@<TRIPOS>MOLECULE
3vgw_NVZ_4_INTS_M
   65     0     9     0     0
SMALL
NO_CHARGES


@<TRIPOS>ATOM
      1 CA         55.7540   48.4715   61.5180 C.3       3 GLC5        0.0000 
      2 CA         54.5050   49.4050   60.3870 C.3       9 GLL5        0.0000 
      3 CA         57.0030   47.5380   62.6490 C.3       6 GLP5        0.0000 
      4 CA         52.5470   47.4590   59.6315 C.3       3 GLC5        0.0000 
      5 CA         52.9590   49.6190   59.5700 C.3       9 GLL5        0.0000 
      6 CA         52.1350   45.2990   59.6930 C.3       6 GLP5        0.0000 
      7 O          52.3585   52.8490   59.2325 O.2       1 ALC1        0.0000 
      8 O          53.4120   52.0140   58.8000 O.2       7 ALL1        0.0000 
      9 O          51.3050   53.6840   59.6650 O.2       4 ALP1        0.0000 
     10 N          56.1275   54.5575   58.1255 N.am      2 SEC2        0.0000 
     11 N          54.8720   53.6870   58.6310 N.am      8 SEL2        0.0000 
     12 N          57.3830   55.4280   57.6200 N.am      5 SEP2        0.0000 
     13 N          54.1915   54.8950   58.4945 N.am      2 SEC2        0.0000 
     14 N          53.5110   56.1030   58.3580 N.am      5 SEP2        0.0000 
     15 CA         53.7935   49.1075   56.6965 C.3       3 GLC5        0.0000 
     16 CA         54.6320   50.2100   57.7920 C.3       9 GLL5        0.0000 
     17 CA         52.9550   48.0050   55.6010 C.3       6 GLP5        0.0000 
     18 CA         55.7755   48.6640   56.8645 C.3       3 GLC5        0.0000 
     19 CA         56.9190   47.1180   55.9370 C.3       6 GLP5        0.0000 
     20 CA         53.7255   48.4955   57.7390 C.3       3 GLC5        0.0000 
     21 CA         55.3400   49.2710   58.7790 C.3       9 GLL5        0.0000 
     22 CA         52.1110   47.7200   56.6990 C.3       6 GLP5        0.0000 
     23 CA         56.6350   48.4325   57.8200 C.3       3 GLC5        0.0000 
     24 CA         57.9300   47.5940   56.8610 C.3       6 GLP5        0.0000 
     25 CA         51.2465   49.1555   58.5195 C.3       3 GLC5        0.0000 
     26 CA         51.7000   50.1530   60.2970 C.3       9 GLL5        0.0000 
     27 CA         50.7930   48.1580   56.7420 C.3       6 GLP5        0.0000 
     28 CA         51.4360   52.2010   60.6420 C.3       3 GLC5        0.0000 
     29 CA         51.1720   54.2490   60.9870 C.3       6 GLP5        0.0000 
     30 CA         51.6505   47.1695   60.4800 C.3       3 GLC5        0.0000 
     31 CA         51.1660   49.0400   61.2670 C.3       9 GLL5        0.0000 
     32 CA         49.8470   51.7265   61.7435 C.3       3 GLC5        0.0000 
     33 CA         49.9430   49.6110   62.0170 C.3       9 GLL5        0.0000 
     34 CA         49.7510   53.8420   61.4700 C.3       6 GLP5        0.0000 
     35 CA         48.7275   49.9580   60.1665 C.3       3 GLC5        0.0000 
     36 CA         47.5120   50.3050   58.3160 C.3       6 GLP5        0.0000 
     37 CA         51.2330   49.6400   63.2935 C.3       3 GLC5        0.0000 
     38 CA         52.5230   49.6690   64.5700 C.3       6 GLP5        0.0000 
     39 CA         50.1390   48.7920   64.4845 C.3       3 GLC5        0.0000 
     40 CA         49.3200   48.5290   62.8600 C.3       9 GLL5        0.0000 
     41 CA         50.9580   49.0550   66.1090 C.3       6 GLP5        0.0000 
     42 N          47.8940   46.5045   64.0360 N.am      2 SEC2        0.0000 
     43 N          48.3650   46.3270   62.5210 N.am      8 SEL2        0.0000 
     44 N          47.4230   46.6820   65.5510 N.am      5 SEP2        0.0000 
     45 N          47.1905   48.5565   60.5425 N.am      2 SEC2        0.0000 
     46 N          48.1450   47.7000   60.8340 N.am      8 SEL2        0.0000 
     47 N          46.2360   49.4130   60.2510 N.am      5 SEP2        0.0000 
     48 N          47.7385   47.8105   59.5605 N.am      2 SEC2        0.0000 
     49 N          47.3320   47.9210   58.2870 N.am      5 SEP2        0.0000 
     50 N          46.6220   47.3435   60.1210 N.am      2 SEC2        0.0000 
     51 N          45.0990   46.9870   59.4080 N.am      5 SEP2        0.0000 
     52 CA         55.5695   53.6410   54.6305 C.3       3 GLC5        0.0000 
     53 CA         56.0300   53.1450   56.1220 C.3       9 GLL5        0.0000 
     54 CA         55.1090   54.1370   53.1390 C.3       6 GLP5        0.0000 
     55 CA         53.4890   49.9720   61.8547 C.3       3 GLC5        0.0000 
     56 CA         53.2460   50.4320   63.7310 C.3       6 GLP5        0.0000 
     57 CA         56.6457   50.2405   60.4840 C.3       3 GLC5        0.0000 
     58 CA         58.3690   51.1430   61.3850 C.3       6 GLP5        0.0000 
     59 CA         52.6110   48.9020   57.8360 C.3       3 GLC5        0.0000 
     60 CA         52.5892   51.4537   57.1015 C.3       3 GLC5        0.0000 
     61 CA         53.2630   50.5490   58.3760 C.3       9 GLL5        0.0000 
     62 CA         51.2310   52.5280   56.1190 C.3       6 GLP5        0.0000 
     63 CA         52.3395   50.0143   62.2565 C.3       3 GLC5        0.0000 
     64 CA         48.5422   50.4170   63.0183 C.3       3 GLC5        0.0000 
     65 CA         47.4530   51.7640   63.5980 C.3       6 GLP5        0.0000 
@<TRIPOS>BOND
@<TRIPOS>SUBSTRUCTURE
     1 ALC1        7 GROUP        1 X    ALC  0     ROOT ALC X 1
     2 SEC2       10 GROUP        1 X    SEC  0     **** SEC X 2
     3 GLC5        1 GROUP        1 X    GLC  0     **** GLC X 6
     4 ALP1        9 GROUP        1 Y    ALP  0     ROOT ALP Y 8
     5 SEP2       12 GROUP        1 Y    SEP  0     **** SEP Y 9
     6 GLP5        3 GROUP        1 Y    GLP  0     **** GLP Y 13
     7 ALL1        8 GROUP        1 Z    ALL  0     ROOT ALL Z 15
     8 SEL2       11 GROUP        1 Z    SEL  0     **** SEL Z 16
     9 GLL5        2 GROUP        1 Z    GLL  0     **** GLL Z 20
@<TRIPOS>SET

