#    Name: 3vgw_NVZ_4_ligand
#    Modification time : Tue Mar 25 00:48:38 2014

@<TRIPOS>MOLECULE
3vgw_NVZ_4_ligand
   36    37     1     0     0
SMALL
NO_CHARGES


@<TRIPOS>ATOM
      1 N1         55.2100   51.5670   57.7350 N.am      1 NVZ1124     0.0000 
      2 S1         54.5050   49.4050   60.3870 S.3       1 NVZ1124     0.0000 
      3 C2         52.9590   49.6190   59.5700 C.3       1 NVZ1124     0.0000 
      4 N2         53.4120   52.0140   58.8000 N.am      1 NVZ1124     0.0000 
      5 C3         54.5400   52.5200   58.4270 C.2       1 NVZ1124     0.0000 
      6 O3         54.8720   53.6870   58.6310 O.2       1 NVZ1124     0.0000 
      7 C4         53.2630   50.5490   58.3760 C.3       1 NVZ1124     0.0000 
      8 C5         54.6320   50.2100   57.7920 C.3       1 NVZ1124     0.0000 
      9 C6         55.3400   49.2710   58.7790 C.3       1 NVZ1124     0.0000 
     10 C7         51.7000   50.1530   60.2970 C.3       1 NVZ1124     0.0000 
     11 C8         51.1660   49.0400   61.2670 C.3       1 NVZ1124     0.0000 
     12 C9         49.9430   49.6110   62.0170 C.3       1 NVZ1124     0.0000 
     13 C10        49.3200   48.5290   62.8600 C.3       1 NVZ1124     0.0000 
     14 C11        48.5960   47.4650   61.9970 C.2       1 NVZ1124     0.0000 
     15 O11        48.3650   46.3270   62.5210 O.co2     1 NVZ1124     0.0000 
     16 O12        48.1450   47.7000   60.8340 O.co2     1 NVZ1124     0.0000 
     17 C17        56.0260   51.7730   56.6290 C.2       1 NVZ1124     0.0000 
     18 C18        56.0300   53.1450   56.1220 C.3       1 NVZ1124     0.0000 
     19 O19        56.6620   50.8610   55.9450 O.2       1 NVZ1124     0.0000 
     20 H          52.7645   48.6291   59.1295 H         1 NVZ1124     0.0000 
     21 H          52.6679   52.4057   59.2916 H         1 NVZ1124     0.0000 
     22 H          52.5355   50.4652   57.6288 H         1 NVZ1124     0.0000 
     23 H          54.5064   49.7946   56.8607 H         1 NVZ1124     0.0000 
     24 H          55.2265   48.2509   58.5473 H         1 NVZ1124     0.0000 
     25 H          56.3245   49.5632   59.0081 H         1 NVZ1124     0.0000 
     26 H          50.9367   50.3784   59.5769 H         1 NVZ1124     0.0000 
     27 H          51.9583   51.0196   60.8751 H         1 NVZ1124     0.0000 
     28 H          51.9377   48.7943   61.9665 H         1 NVZ1124     0.0000 
     29 H          50.8710   48.1906   60.6867 H         1 NVZ1124     0.0000 
     30 H          49.2282   49.9749   61.2881 H         1 NVZ1124     0.0000 
     31 H          50.2730   50.4304   62.6449 H         1 NVZ1124     0.0000 
     32 H          48.5914   48.9651   63.5497 H         1 NVZ1124     0.0000 
     33 H          50.0904   48.0251   63.4510 H         1 NVZ1124     0.0000 
     34 H          56.3494   53.7949   56.8117 H         1 NVZ1124     0.0000 
     35 H          56.6272   53.2451   55.3262 H         1 NVZ1124     0.0000 
     36 H          55.1165   53.4401   55.8420 H         1 NVZ1124     0.0000 
@<TRIPOS>BOND
     1    5    1 am   
     2    8    1 1    
     3   17    1 am   
     4    3    2 1    
     5    9    2 1    
     6    7    3 1    
     7   10    3 1    
     8   20    3 1    
     9    5    4 am   
    10    7    4 1    
    11   21    4 1    
    12    6    5 2    
    13    8    7 1    
    14   22    7 1    
    15    9    8 1    
    16   23    8 1    
    17   24    9 1    
    18   25    9 1    
    19   11   10 1    
    20   26   10 1    
    21   27   10 1    
    22   12   11 1    
    23   28   11 1    
    24   29   11 1    
    25   13   12 1    
    26   30   12 1    
    27   31   12 1    
    28   14   13 1    
    29   32   13 1    
    30   33   13 1    
    31   15   14 ar   
    32   16   14 ar   
    33   18   17 1    
    34   19   17 2    
    35   34   18 1    
    36   35   18 1    
    37   36   18 1    
@<TRIPOS>SUBSTRUCTURE
     1 NVZ1124     1 GROUP   
@<TRIPOS>SET

