#    Name: 2xno_ED8_1_INTS_M
#    Modification time : Tue Mar 25 06:24:47 2014

@<TRIPOS>MOLECULE
2xno_ED8_1_INTS_M
   66     0     9     0     0
SMALL
NO_CHARGES


@<TRIPOS>ATOM
      1 CA        -26.2650   15.3785   23.0905 C.3       3 GLC5        0.0000 
      2 CA        -27.5760   14.0280   22.2780 C.3       9 GLL5        0.0000 
      3 CA        -24.9540   16.7290   23.9030 C.3       6 GLP5        0.0000 
      4 CA        -24.6805   13.2935   20.9245 C.3       3 GLC5        0.0000 
      5 CA        -26.8840   13.0770   21.2670 C.3       9 GLL5        0.0000 
      6 CA        -22.4770   13.5100   20.5820 C.3       6 GLP5        0.0000 
      7 CA        -25.8460    9.8660   22.6600 C.3       3 GLC5        0.0000 
      8 CA        -27.2840    9.0350   21.3890 C.3       9 GLL5        0.0000 
      9 CA        -24.4080   10.6970   23.9310 C.3       6 GLP5        0.0000 
     10 CA        -28.7690    7.2120   20.8380 C.3       3 GLC5        0.0000 
     11 CA        -26.8270    7.6450   21.5790 C.3       9 GLL5        0.0000 
     12 CA        -30.7110    6.7790   20.0970 C.3       6 GLP5        0.0000 
     13 CA        -25.2280    6.3450   22.4630 C.3       3 GLC5        0.0000 
     14 CA        -23.6290    5.0450   23.3470 C.3       6 GLP5        0.0000 
     15 CA        -27.2695    5.3720   19.8435 C.3       3 GLC5        0.0000 
     16 CA        -26.0620    6.9860   20.5440 C.3       9 GLL5        0.0000 
     17 CA        -28.4770    3.7580   19.1430 C.3       6 GLP5        0.0000 
     18 CA        -24.3325    6.4360   21.5600 C.3       3 GLC5        0.0000 
     19 CA        -22.6030    5.8860   22.5760 C.3       6 GLP5        0.0000 
     20 N         -24.9905    5.0180   21.4265 N.am      2 SEC2        0.0000 
     21 N         -25.4980    5.7050   20.4430 N.am      8 SEL2        0.0000 
     22 N         -24.4830    4.3310   22.4100 N.am      5 SEP2        0.0000 
     23 CA        -27.3355    7.8625   16.2420 C.3       3 GLC5        0.0000 
     24 CA        -25.3410    8.3300   16.5190 C.3       9 GLL5        0.0000 
     25 CA        -29.3300    7.3950   15.9650 C.3       6 GLP5        0.0000 
     26 N         -25.9475    8.6100   14.1895 N.am      2 SEC2        0.0000 
     27 N         -24.8150    9.7110   14.1940 N.am      8 SEL2        0.0000 
     28 N         -27.0800    7.5090   14.1850 N.am      5 SEP2        0.0000 
     29 CA        -26.0905    8.4700   14.0495 C.3       3 GLC5        0.0000 
     30 CA        -25.9470   10.4640   14.5580 C.3       9 GLL5        0.0000 
     31 CA        -26.2340    6.4760   13.5410 C.3       6 GLP5        0.0000 
     32 CA        -29.6215   10.0365   18.2985 C.3       3 GLC5        0.0000 
     33 CA        -28.4370   10.2970   16.8380 C.3       9 GLL5        0.0000 
     34 CA        -30.8060    9.7760   19.7590 C.3       6 GLP5        0.0000 
     35 CA        -28.8835    8.8460   16.4015 C.3       3 GLC5        0.0000 
     36 CA        -30.0165   11.0390   18.3940 C.3       3 GLC5        0.0000 
     37 CA        -29.2270   12.3020   17.0290 C.3       9 GLL5        0.0000 
     38 O         -20.9655    8.8330   12.3140 O.2       1 ALC1        0.0000 
     39 O         -22.2580    8.3390   12.7760 O.2       7 ALL1        0.0000 
     40 O         -19.6730    9.3270   11.8520 O.2       4 ALP1        0.0000 
     41 O         -21.4275    7.4130   11.7305 O.2       1 ALC1        0.0000 
     42 O         -20.5970    6.4870   10.6850 O.2       4 ALP1        0.0000 
     43 N         -19.7355    7.0950   13.4565 N.am      2 SEC2        0.0000 
     44 N         -21.2200    6.8110   14.1490 N.am      8 SEL2        0.0000 
     45 N         -18.2510    7.3790   12.7640 N.am      5 SEP2        0.0000 
     46 CA        -24.6960    6.6250   15.0480 C.3       3 GLC5        0.0000 
     47 CA        -23.1580    6.7740   16.5550 C.3       9 GLL5        0.0000 
     48 CA        -21.9235    5.1405   16.6430 C.3       3 GLC5        0.0000 
     49 CA        -20.6890    3.5070   16.7310 C.3       6 GLP5        0.0000 
     50 CA        -25.8430   11.5620   22.5450 C.3       3 GLC5        0.0000 
     51 CA        -27.6720   11.7770   21.0510 C.3       9 GLL5        0.0000 
     52 CA        -28.9670    9.5710   20.2760 C.3       3 GLC5        0.0000 
     53 CA        -26.9720    9.6970   20.1970 C.3       9 GLL5        0.0000 
     54 CA        -25.5968    7.1190   15.2310 C.3       3 GLC5        0.0000 
     55 CA        -25.0008    7.3590   14.3112 C.3       3 GLC5        0.0000 
     56 CA        -24.3950    8.6930   15.0690 C.3       9 GLL5        0.0000 
     57 CA        -23.6818   13.4578   18.9058 C.3       3 GLC5        0.0000 
     58 CA        -24.3040   13.1660   16.8150 C.3       9 GLL5        0.0000 
     59 CA        -29.5140    9.9580   15.3025 C.3       3 GLC5        0.0000 
     60 CA        -28.3870   11.5310   16.3280 C.3       9 GLL5        0.0000 
     61 CA        -30.4290    8.3910   14.9090 C.3       6 GLP5        0.0000 
     62 CA        -30.7715   11.9199   16.2141 C.3       3 GLC5        0.0000 
     63 CA        -28.8110   11.5190   15.0640 C.3       9 GLL5        0.0000 
     64 CA        -32.7340   12.1220   16.5570 C.3       6 GLP5        0.0000 
     65 CA        -29.9322   11.1491   20.5593 C.3       3 GLC5        0.0000 
     66 CA        -29.7350   13.2340   21.3730 C.3       9 GLL5        0.0000 
@<TRIPOS>BOND
@<TRIPOS>SUBSTRUCTURE
     1 ALC1       38 GROUP        1 X    ALC  0     ROOT ALC X 1
     2 SEC2       20 GROUP        1 X    SEC  0     **** SEC X 2
     3 GLC5        1 GROUP        1 X    GLC  0     **** GLC X 6
     4 ALP1       40 GROUP        1 Y    ALP  0     ROOT ALP Y 8
     5 SEP2       22 GROUP        1 Y    SEP  0     **** SEP Y 9
     6 GLP5        3 GROUP        1 Y    GLP  0     **** GLP Y 13
     7 ALL1       39 GROUP        1 Z    ALL  0     ROOT ALL Z 15
     8 SEL2       21 GROUP        1 Z    SEL  0     **** SEL Z 16
     9 GLL5        2 GROUP        1 Z    GLL  0     **** GLL Z 20
@<TRIPOS>SET

