#    Name: 2xno_ED8_1_ligand
#    Modification time : Tue Mar 25 06:24:47 2014

@<TRIPOS>MOLECULE
2xno_ED8_1_ligand
   63    67     1     0     0
SMALL
NO_CHARGES


@<TRIPOS>ATOM
      1 C01       -29.6660   14.8770   23.1530 C.3       1 ED81280     0.0000 
      2 N02       -28.9900   14.3290   21.9920 N.4       1 ED81280     0.0000 
      3 C03       -27.5760   14.0280   22.2780 C.3       1 ED81280     0.0000 
      4 C04       -26.8840   13.0770   21.2670 C.3       1 ED81280     0.0000 
      5 C05       -27.6720   11.7770   21.0510 C.3       1 ED81280     0.0000 
      6 O06       -27.4060   10.9970   19.9060 O.3       1 ED81280     0.0000 
      7 C07       -26.9720    9.6970   20.1970 C.ar      1 ED81280     0.0000 
      8 C08       -27.2840    9.0350   21.3890 C.ar      1 ED81280     0.0000 
      9 C09       -26.8270    7.6450   21.5790 C.ar      1 ED81280     0.0000 
     10 C10       -26.0620    6.9860   20.5440 C.ar      1 ED81280     0.0000 
     11 N11       -25.4980    5.7050   20.4430 N.2       1 ED81280     0.0000 
     12 C12       -24.8570    5.5870   19.2070 C.2       1 ED81280     0.0000 
     13 N13       -25.0930    6.7790   18.5140 N.pl3     1 ED81280     0.0000 
     14 C14       -24.5780    7.1940   17.3230 C.2       1 ED81280     0.0000 
     15 C15       -25.3410    8.3300   16.5190 C.2       1 ED81280     0.0000 
     16 C16       -24.3950    8.6930   15.0690 C.2       1 ED81280     0.0000 
     17 O17       -24.8150    9.7110   14.1940 O.3       1 ED81280     0.0000 
     18 C18       -25.9470   10.4640   14.5580 C.3       1 ED81280     0.0000 
     19 C19       -25.8150   11.5570   15.6160 C.ar      1 ED81280     0.0000 
     20 C20       -24.5300   12.1330   15.8220 C.ar      1 ED81280     0.0000 
     21 C21       -24.3040   13.1660   16.8150 C.ar      1 ED81280     0.0000 
     22 C22       -25.4690   13.6450   17.6440 C.ar      1 ED81280     0.0000 
     23 C23       -26.7490   13.0900   17.4520 C.ar      1 ED81280     0.0000 
     24 C24       -26.9840   12.0500   16.4500 C.ar      1 ED81280     0.0000 
     25 C25       -28.3870   11.5310   16.3280 C.3       1 ED81280     0.0000 
     26 F26       -28.4370   10.2970   16.8380 F         1 ED81280     0.0000 
     27 F27       -29.2270   12.3020   17.0290 F         1 ED81280     0.0000 
     28 F28       -28.8110   11.5190   15.0640 F         1 ED81280     0.0000 
     29 C29       -23.1400    7.7910   15.0940 C.2       1 ED81280     0.0000 
     30 C30       -22.0710    7.6820   14.0350 C.2       1 ED81280     0.0000 
     31 N31       -22.2580    8.3390   12.7760 N.am      1 ED81280     0.0000 
     32 O32       -21.2200    6.8110   14.1490 O.2       1 ED81280     0.0000 
     33 S33       -23.1580    6.7740   16.5550 S.3       1 ED81280     0.0000 
     34 C34       -25.7650    7.6550   19.3600 C.ar      1 ED81280     0.0000 
     35 C35       -26.2140    9.0270   19.1560 C.ar      1 ED81280     0.0000 
     36 C36       -29.0920   11.8440   21.6410 C.3       1 ED81280     0.0000 
     37 C37       -29.7350   13.2340   21.3730 C.3       1 ED81280     0.0000 
     38 H         -28.9716   15.1782   21.2164 H         1 ED81280     0.0000 
     39 H         -27.4738   13.5708   23.2865 H         1 ED81280     0.0000 
     40 H         -26.9798   14.9660   22.3122 H         1 ED81280     0.0000 
     41 H         -25.8860   12.8361   21.6402 H         1 ED81280     0.0000 
     42 H         -26.7788   13.5979   20.3126 H         1 ED81280     0.0000 
     43 H         -27.1318   11.0950   21.9694 H         1 ED81280     0.0000 
     44 H         -27.8112    9.4708   22.1280 H         1 ED81280     0.0000 
     45 H         -27.0544    7.1666   22.4337 H         1 ED81280     0.0000 
     46 H         -24.3644    4.8523   18.9009 H         1 ED81280     0.0000 
     47 H         -26.0546    8.7398   16.6685 H         1 ED81280     0.0000 
     48 H         -26.7919    9.7813   14.9093 H         1 ED81280     0.0000 
     49 H         -26.4140   10.9616   13.6428 H         1 ED81280     0.0000 
     50 H         -23.7331   11.8164   15.2578 H         1 ED81280     0.0000 
     51 H         -23.4105   13.5658   16.9654 H         1 ED81280     0.0000 
     52 H         -25.2865   14.3650   18.3250 H         1 ED81280     0.0000 
     53 H         -27.5452   13.4042   18.0121 H         1 ED81280     0.0000 
     54 H         -21.5059    8.2588   12.1219 H         1 ED81280     0.0000 
     55 H         -23.1250    8.8228   12.6566 H         1 ED81280     0.0000 
     56 H         -25.9985    9.5037   18.2986 H         1 ED81280     0.0000 
     57 H         -29.0457   11.6810   22.7119 H         1 ED81280     0.0000 
     58 H         -29.7093   11.0792   21.1831 H         1 ED81280     0.0000 
     59 H         -29.7942   13.3636   20.2805 H         1 ED81280     0.0000 
     60 H         -30.7693   13.1960   21.7506 H         1 ED81280     0.0000 
     61 H         -29.6517   14.2418   23.9252 H         1 ED81280     0.0000 
     62 H         -29.2399   15.7265   23.4643 H         1 ED81280     0.0000 
     63 H         -30.6254   15.0835   22.9610 H         1 ED81280     0.0000 
@<TRIPOS>BOND
     1    2    1 1    
     2   61    1 1    
     3   62    1 1    
     4   63    1 1    
     5    3    2 1    
     6   37    2 1    
     7   38    2 1    
     8    4    3 1    
     9   39    3 1    
    10   40    3 1    
    11    5    4 1    
    12   41    4 1    
    13   42    4 1    
    14    6    5 1    
    15   36    5 1    
    16   43    5 1    
    17    7    6 1    
    18    8    7 ar   
    19   35    7 ar   
    20    9    8 ar   
    21   44    8 1    
    22   10    9 ar   
    23   45    9 1    
    24   11   10 1    
    25   34   10 ar   
    26   12   11 2    
    27   13   12 1    
    28   46   12 1    
    29   14   13 1    
    30   34   13 1    
    31   15   14 2    
    32   33   14 1    
    33   16   15 1    
    34   47   15 1    
    35   17   16 1    
    36   29   16 2    
    37   18   17 1    
    38   19   18 1    
    39   48   18 1    
    40   49   18 1    
    41   20   19 ar   
    42   24   19 ar   
    43   21   20 ar   
    44   50   20 1    
    45   22   21 ar   
    46   51   21 1    
    47   23   22 ar   
    48   52   22 1    
    49   24   23 ar   
    50   53   23 1    
    51   25   24 1    
    52   26   25 1    
    53   27   25 1    
    54   28   25 1    
    55   30   29 1    
    56   33   29 1    
    57   31   30 am   
    58   32   30 2    
    59   54   31 1    
    60   55   31 1    
    61   35   34 ar   
    62   56   35 1    
    63   37   36 1    
    64   57   36 1    
    65   58   36 1    
    66   59   37 1    
    67   60   37 1    
@<TRIPOS>SUBSTRUCTURE
     1 ED81280     1 GROUP   
@<TRIPOS>SET

