#    Name: 4nxv_GDP_1_INTS_M
#    Modification time : Tue Mar 25 13:24:02 2014

@<TRIPOS>MOLECULE
4nxv_GDP_1_INTS_M
   40     0    12     0     0
SMALL
NO_CHARGES


@<TRIPOS>ATOM
      1 NZ         -3.9660  -24.9920  -10.8505 N.4       3 LYC4        0.0000 
      2 NZ         -5.2720  -25.7330  -11.3640 N.4      11 LYL4        0.0000 
      3 NZ         -2.6600  -24.2510  -10.3370 N.4       7 LYP4        0.0000 
      4 N          -5.8460  -25.3550  -10.1440 N.am      2 SEC2        0.0000 
      5 N          -5.2720  -25.7330  -11.3640 N.am     10 SEL2        0.0000 
      6 N          -6.4200  -24.9770   -8.9240 N.am      6 SEP2        0.0000 
      7 N          -6.8440  -26.4090  -11.6245 N.am      2 SEC2        0.0000 
      8 N          -8.4160  -27.0850  -11.8850 N.am      6 SEP2        0.0000 
      9 N          -3.9660  -24.9920  -10.8505 N.am      2 SEC2        0.0000 
     10 N          -2.6600  -24.2510  -10.3370 N.am      6 SEP2        0.0000 
     11 N          -7.1575  -27.5855  -11.7680 N.am      2 SEC2        0.0000 
     12 N          -5.8990  -28.0860  -11.6510 N.am     10 SEL2        0.0000 
     13 NZ         -3.2045  -28.8940   -7.0695 N.4       3 LYC4        0.0000 
     14 NZ         -3.1380  -28.8510   -8.3230 N.4      11 LYL4        0.0000 
     15 NZ         -3.4280  -27.9380   -4.9560 N.4       7 LYP4        0.0000 
     16 N          -3.2045  -28.8940   -7.0695 N.am      2 SEC2        0.0000 
     17 N          -3.1380  -28.8510   -8.3230 N.am     10 SEL2        0.0000 
     18 N          -3.2710  -28.9370   -5.8160 N.am      6 SEP2        0.0000 
     19 N          -5.8560  -27.1565   -7.4670 N.am      2 SEC2        0.0000 
     20 N          -5.5100  -28.1440   -8.5300 N.am     10 SEL2        0.0000 
     21 N          -6.2020  -26.1690   -6.4040 N.am      6 SEP2        0.0000 
     22 CA         -4.2215  -37.0070   -5.8940 C.3       4 GLC5        0.0000 
     23 CA         -3.7960  -34.9620   -6.3600 C.3      12 GLL5        0.0000 
     24 CA         -4.6470  -39.0520   -5.4280 C.3       8 GLP5        0.0000 
     25 CA         -2.6125  -33.4775   -5.4650 C.3       4 GLC5        0.0000 
     26 CA         -1.4290  -31.9930   -4.5700 C.3       8 GLP5        0.0000 
     27 N          -2.8730  -35.7790   -3.1530 N.am      2 SEC2        0.0000 
     28 N          -3.2900  -35.2870   -4.1370 N.am     10 SEL2        0.0000 
     29 N          -2.4560  -36.2710   -2.1690 N.am      6 SEP2        0.0000 
     30 O          -6.8340  -31.5615   -3.7405 O.2       1 ALC1        0.0000 
     31 O          -6.6620  -31.9660   -5.0420 O.2       9 ALL1        0.0000 
     32 O          -7.0060  -31.1570   -2.4390 O.2       5 ALP1        0.0000 
     33 O          -7.5530  -31.2655   -6.2175 O.2       1 ALC1        0.0000 
     34 O          -8.4440  -30.5650   -7.3930 O.2       5 ALP1        0.0000 
     35 CA         -6.3720  -35.2825   -6.6465 C.3       4 GLC5        0.0000 
     36 CA         -4.5890  -34.2390   -7.2740 C.3      12 GLL5        0.0000 
     37 CA         -8.1550  -36.3260   -6.0190 C.3       8 GLP5        0.0000 
     38 CA         -6.1430  -35.5465  -11.1322 C.3       4 GLC5        0.0000 
     39 CA         -6.2430  -33.8910   -9.7680 C.3      12 GLL5        0.0000 
     40 CA         -6.7770  -37.0220  -12.4800 C.3       8 GLP5        0.0000 
@<TRIPOS>BOND
@<TRIPOS>SUBSTRUCTURE
     1 ALC1       30 GROUP        1 X    ALC  0     ROOT ALC X 1
     2 SEC2        4 GROUP        1 X    SEC  0     **** SEC X 2
     3 LYC4        1 GROUP        1 X    LYC  0     **** LYC X 4
     4 GLC5       22 GROUP        1 X    GLC  0     **** GLC X 6
     5 ALP1       32 GROUP        1 Y    ALP  0     ROOT ALP Y 8
     6 SEP2        6 GROUP        1 Y    SEP  0     **** SEP Y 9
     7 LYP4        3 GROUP        1 Y    LYP  0     **** LYP Y 11
     8 GLP5       24 GROUP        1 Y    GLP  0     **** GLP Y 13
     9 ALL1       31 GROUP        1 Z    ALL  0     ROOT ALL Z 15
    10 SEL2        5 GROUP        1 Z    SEL  0     **** SEL Z 16
    11 LYL4        2 GROUP        1 Z    LYL  0     **** LYL Z 18
    12 GLL5       23 GROUP        1 Z    GLL  0     **** GLL Z 20
@<TRIPOS>SET

