#    Name: 4nxv_GDP_1_ligand
#    Modification time : Tue Mar 25 13:24:02 2014

@<TRIPOS>MOLECULE
4nxv_GDP_1_ligand
   40    42     1     0     0
SMALL
NO_CHARGES


@<TRIPOS>ATOM
      1 PB         -4.7470  -27.1360  -11.5440 P.3       1 GDP501      0.0000 
      2 O1B        -5.2720  -25.7330  -11.3640 O.co2     1 GDP501      0.0000 
      3 O2B        -3.9280  -27.2000  -12.8130 O.co2     1 GDP501      0.0000 
      4 O3B        -5.8990  -28.0860  -11.6510 O.co2     1 GDP501      0.0000 
      5 O3A        -3.8530  -27.4840  -10.3090 O.3       1 GDP501      0.0000 
      6 PA         -4.2780  -28.5960   -9.2920 P.3       1 GDP501      0.0000 
      7 O1A        -3.1380  -28.8510   -8.3230 O.co2     1 GDP501      0.0000 
      8 O2A        -5.5100  -28.1440   -8.5300 O.co2     1 GDP501      0.0000 
      9 O5'        -4.5950  -29.9050  -10.1050 O.3       1 GDP501      0.0000 
     10 C5'        -5.0650  -31.0740   -9.5000 C.3       1 GDP501      0.0000 
     11 C4'        -5.0420  -32.1430  -10.5720 C.3       1 GDP501      0.0000 
     12 O4'        -4.0850  -33.1260  -10.2690 O.3       1 GDP501      0.0000 
     13 C3'        -6.3790  -32.7940  -10.7620 C.3       1 GDP501      0.0000 
     14 O3'        -6.5810  -33.2240  -12.0640 O.3       1 GDP501      0.0000 
     15 C2'        -6.2430  -33.8910   -9.7680 C.3       1 GDP501      0.0000 
     16 O2'        -7.0590  -34.9670  -10.0670 O.3       1 GDP501      0.0000 
     17 C1'        -4.7750  -34.2510   -9.8010 C.3       1 GDP501      0.0000 
     18 N9         -4.2410  -34.6990   -8.5180 N.pl3     1 GDP501      0.0000 
     19 C8         -3.2870  -35.6380   -8.3540 C.2       1 GDP501      0.0000 
     20 N7         -3.0280  -35.7940   -7.0650 N.2       1 GDP501      0.0000 
     21 C5         -3.7960  -34.9620   -6.3600 C.2       1 GDP501      0.0000 
     22 C6         -3.9570  -34.6850   -4.9680 C.2       1 GDP501      0.0000 
     23 O6         -3.2900  -35.2870   -4.1370 O.2       1 GDP501      0.0000 
     24 N1         -4.8850  -33.7220   -4.5790 N.am      1 GDP501      0.0000 
     25 C2         -5.7030  -32.9740   -5.5030 C.2       1 GDP501      0.0000 
     26 N2         -6.6620  -31.9660   -5.0420 N.pl3     1 GDP501      0.0000 
     27 N3         -5.5580  -33.2230   -6.8020 N.2       1 GDP501      0.0000 
     28 C4         -4.5890  -34.2390   -7.2740 C.2       1 GDP501      0.0000 
     29 H          -6.0877  -30.9797   -9.1433 H         1 GDP501      0.0000 
     30 H          -4.4311  -31.4069   -8.6818 H         1 GDP501      0.0000 
     31 H          -4.7791  -31.6472  -11.5223 H         1 GDP501      0.0000 
     32 H          -7.1148  -32.1072  -10.3897 H         1 GDP501      0.0000 
     33 H          -6.4400  -33.4664   -8.7856 H         1 GDP501      0.0000 
     34 H          -4.6708  -35.0695  -10.5394 H         1 GDP501      0.0000 
     35 H          -2.8582  -36.1243   -9.0884 H         1 GDP501      0.0000 
     36 H          -5.0117  -33.5137   -3.5605 H         1 GDP501      0.0000 
     37 H          -6.7116  -31.8257   -4.0531 H         1 GDP501      0.0000 
     38 H          -7.1881  -31.5010   -5.7541 H         1 GDP501      0.0000 
     39 H          -6.8577  -34.1813  -11.9803 H         1 GDP501      0.0000 
     40 H          -7.9915  -34.6224   -9.9588 H         1 GDP501      0.0000 
@<TRIPOS>BOND
     1    2    1 ar   
     2    3    1 ar   
     3    4    1 ar   
     4    5    1 1    
     5    6    5 1    
     6    7    6 ar   
     7    8    6 ar   
     8    9    6 1    
     9   10    9 1    
    10   11   10 1    
    11   29   10 1    
    12   30   10 1    
    13   12   11 1    
    14   13   11 1    
    15   31   11 1    
    16   17   12 1    
    17   14   13 1    
    18   15   13 1    
    19   32   13 1    
    20   39   14 1    
    21   16   15 1    
    22   17   15 1    
    23   33   15 1    
    24   40   16 1    
    25   18   17 1    
    26   34   17 1    
    27   19   18 1    
    28   28   18 1    
    29   20   19 2    
    30   35   19 1    
    31   21   20 1    
    32   22   21 1    
    33   28   21 2    
    34   23   22 2    
    35   24   22 am   
    36   25   24 1    
    37   36   24 1    
    38   26   25 1    
    39   27   25 2    
    40   37   26 1    
    41   38   26 1    
    42   28   27 1    
@<TRIPOS>SUBSTRUCTURE
     1 GDP501      1 GROUP   
@<TRIPOS>SET

