#    Name: 3d5m_4MS_1_INTS_M
#    Modification time : Mon Mar 24 22:43:37 2014

@<TRIPOS>MOLECULE
3d5m_4MS_1_INTS_M
   75     0     9     0     0
SMALL
NO_CHARGES


@<TRIPOS>ATOM
      1 CA         95.0210   63.1595   48.9510 C.3       3 GLC5        0.0000 
      2 CA         94.3780   64.6020   50.2760 C.3       9 GLL5        0.0000 
      3 CA         95.6640   61.7170   47.6260 C.3       6 GLP5        0.0000 
      4 CA         96.5960   59.6545   55.9585 C.3       3 GLC5        0.0000 
      5 CA         97.0750   61.7570   56.0270 C.3       9 GLL5        0.0000 
      6 CA         96.1170   57.5520   55.8900 C.3       6 GLP5        0.0000 
      7 CA         95.3550   61.3375   51.2505 C.3       3 GLC5        0.0000 
      8 CA         96.9690   62.2050   52.2390 C.3       9 GLL5        0.0000 
      9 CA         93.7410   60.4700   50.2620 C.3       6 GLP5        0.0000 
     10 CA         98.1240   58.6975   50.5015 C.3       3 GLC5        0.0000 
     11 CA         98.6450   60.8040   50.9240 C.3       9 GLL5        0.0000 
     12 CA         97.6030   56.5910   50.0790 C.3       6 GLP5        0.0000 
     13 CA         99.1300   60.2250   65.3280 C.3       3 GLC5        0.0000 
     14 CA         98.8840   61.4870   63.6980 C.3       9 GLL5        0.0000 
     15 CA         99.3760   58.9630   66.9580 C.3       6 GLP5        0.0000 
     16 CA         99.0780   60.0000   62.4760 C.3       3 GLC5        0.0000 
     17 CA         99.2720   58.5130   61.2540 C.3       6 GLP5        0.0000 
     18 CA         96.4210   65.7290   50.2645 C.3       3 GLC5        0.0000 
     19 CA         96.2420   64.6780   51.9860 C.3       9 GLL5        0.0000 
     20 CA         96.6000   66.7800   48.5430 C.3       6 GLP5        0.0000 
     21 CA         91.3830   63.3810   47.6470 C.3       3 GLC5        0.0000 
     22 CA         92.5580   64.6150   48.3060 C.3       9 GLL5        0.0000 
     23 CA         90.2080   62.1470   46.9880 C.3       6 GLP5        0.0000 
     24 CA         91.6225   66.2095   48.0160 C.3       3 GLC5        0.0000 
     25 CA         90.6870   67.8040   47.7260 C.3       6 GLP5        0.0000 
     26 CA         94.1110   63.1660   47.9660 C.3       3 GLC5        0.0000 
     27 CA         94.0645   65.8765   47.9940 C.3       3 GLC5        0.0000 
     28 CA         95.5710   67.1380   47.6820 C.3       6 GLP5        0.0000 
     29 CA         96.9970   62.4385   48.9335 C.3       3 GLC5        0.0000 
     30 CA         98.3300   63.1600   50.2410 C.3       9 GLL5        0.0000 
     31 CA         98.0065   64.5945   49.1625 C.3       3 GLC5        0.0000 
     32 CA         97.6830   66.0290   48.0840 C.3       6 GLP5        0.0000 
     33 N          97.0815   58.8240   54.0315 N.am      2 SEC2        0.0000 
     34 N          97.4580   60.1310   53.5190 N.am      8 SEL2        0.0000 
     35 N          96.7050   57.5170   54.5440 N.am      5 SEP2        0.0000 
     36 CA         95.3865   61.0075   60.3900 C.3       3 GLC5        0.0000 
     37 CA         97.1320   61.7100   60.8150 C.3       9 GLL5        0.0000 
     38 CA         93.6410   60.3050   59.9650 C.3       6 GLP5        0.0000 
     39 CA         98.2020   60.1115   61.0345 C.3       3 GLC5        0.0000 
     40 O          96.8325   63.9665   62.6820 O.2       1 ALC1        0.0000 
     41 O          97.0610   62.4990   62.0140 O.2       7 ALL1        0.0000 
     42 O          96.6040   65.4340   63.3500 O.2       4 ALP1        0.0000 
     43 N          96.9350   62.1915   65.9155 N.am      2 SEC2        0.0000 
     44 N          96.5810   62.3050   64.5500 N.am      8 SEL2        0.0000 
     45 N          97.2890   62.0780   67.2810 N.am      5 SEP2        0.0000 
     46 N          95.4555   63.3780   64.5405 N.am      2 SEC2        0.0000 
     47 N          94.3300   64.4510   64.5310 N.am      5 SEP2        0.0000 
     48 CA         93.6131   65.1909   53.5461 C.3       3 GLC5        0.0000 
     49 CA         93.9240   63.8280   52.5060 C.3       9 GLL5        0.0000 
     50 CA         93.1880   66.3560   55.1360 C.3       6 GLP5        0.0000 
     51 CA         93.8896   62.2479   51.1091 C.3       3 GLC5        0.0000 
     52 CA         90.3315   62.8045   49.3885 C.3       3 GLC5        0.0000 
     53 CA         92.1620   63.7460   50.8600 C.3       9 GLL5        0.0000 
     54 CA         89.1390   62.0210   48.0740 C.3       6 GLP5        0.0000 
     55 CA         95.5390   60.5237   54.3880 C.3       3 GLC5        0.0000 
     56 CA         97.1160   61.4490   53.5310 C.3       9 GLL5        0.0000 
     57 CA         94.0750   59.2340   54.6930 C.3       6 GLP5        0.0000 
     58 CA         97.1355   60.9748   49.8145 C.3       3 GLC5        0.0000 
     59 CA         98.3230   62.2230   51.4700 C.3       9 GLL5        0.0000 
     60 CA         95.7870   60.4360   48.4320 C.3       6 GLP5        0.0000 
     61 CA         90.2664   64.2764   51.9039 C.3       3 GLC5        0.0000 
     62 CA         92.6050   63.5130   52.1630 C.3       9 GLL5        0.0000 
     63 CA         88.8980   65.0230   52.7790 C.3       6 GLP5        0.0000 
     64 CA         90.5899   65.0896   49.9525 C.3       3 GLC5        0.0000 
     65 CA         90.8860   63.4300   50.5460 C.3       9 GLL5        0.0000 
     66 CA         89.4320   66.4540   49.4360 C.3       6 GLP5        0.0000 
     67 CA         92.7444   62.0976   50.3655 C.3       3 GLC5        0.0000 
     68 CA         94.0340   64.7005   57.1790 C.3       3 GLC5        0.0000 
     69 CA         95.7860   63.6910   57.2610 C.3       9 GLL5        0.0000 
     70 CA         92.4540   65.4520   56.4670 C.3       6 GLP5        0.0000 
     71 CA         93.6605   63.5800   59.2537 C.3       3 GLC5        0.0000 
     72 CA         95.4420   64.2070   58.5210 C.3       9 GLL5        0.0000 
     73 CA         91.6640   63.2720   59.3990 C.3       6 GLP5        0.0000 
     74 CA         94.6260   65.4540   59.8252 C.3       3 GLC5        0.0000 
     75 CA         93.5950   67.0200   60.5420 C.3       6 GLP5        0.0000 
@<TRIPOS>BOND
@<TRIPOS>SUBSTRUCTURE
     1 ALC1       40 GROUP        1 X    ALC  0     ROOT ALC X 1
     2 SEC2       33 GROUP        1 X    SEC  0     **** SEC X 2
     3 GLC5        1 GROUP        1 X    GLC  0     **** GLC X 6
     4 ALP1       42 GROUP        1 Y    ALP  0     ROOT ALP Y 8
     5 SEP2       35 GROUP        1 Y    SEP  0     **** SEP Y 9
     6 GLP5        3 GROUP        1 Y    GLP  0     **** GLP Y 13
     7 ALL1       41 GROUP        1 Z    ALL  0     ROOT ALL Z 15
     8 SEL2       34 GROUP        1 Z    SEL  0     **** SEL Z 16
     9 GLL5        2 GROUP        1 Z    GLL  0     **** GLL Z 20
@<TRIPOS>SET

