#    Name: 3d5m_4MS_1_ligand
#    Modification time : Mon Mar 24 22:43:37 2014

@<TRIPOS>MOLECULE
3d5m_4MS_1_ligand
   62    65     1     0     0
SMALL
NO_CHARGES


@<TRIPOS>ATOM
      1 C4         93.9240   63.8280   52.5060 C.ar      1 4MS579      0.0000 
      2 C5         92.6050   63.5130   52.1630 C.ar      1 4MS579      0.0000 
      3 C6         94.3780   64.6020   50.2760 C.ar      1 4MS579      0.0000 
      4 C7         96.5650   62.5440   57.1740 C.ar      1 4MS579      0.0000 
      5 C8         94.8120   64.3810   51.5780 C.ar      1 4MS579      0.0000 
      6 C10        92.1620   63.7460   50.8600 C.ar      1 4MS579      0.0000 
      7 C13        97.0750   61.7570   56.0270 C.2       1 4MS579      0.0000 
      8 C15        97.1160   61.4490   53.5310 C.2       1 4MS579      0.0000 
      9 C17        96.9690   62.2050   52.2390 C.3       1 4MS579      0.0000 
     10 C20        98.6450   60.8040   50.9240 C.3       1 4MS579      0.0000 
     11 C21        98.8840   61.4870   63.6980 C.3       1 4MS579      0.0000 
     12 C22        96.2420   64.6780   51.9860 C.3       1 4MS579      0.0000 
     13 C24        98.3230   62.2230   51.4700 C.3       1 4MS579      0.0000 
     14 CL37       92.5580   64.6150   48.3060 Cl        1 4MS579      0.0000 
     15 C12        93.0570   64.2950   49.9240 C.ar      1 4MS579      0.0000 
     16 F34        90.8860   63.4300   50.5460 F         1 4MS579      0.0000 
     17 N26        96.6130   63.5230   52.7820 N.am      1 4MS579      0.0000 
     18 C19        99.4910   62.7170   52.3670 C.3       1 4MS579      0.0000 
     19 C18        98.3300   63.1600   50.2410 C.3       1 4MS579      0.0000 
     20 O33        97.4580   60.1310   53.5190 O.co2     1 4MS579      0.0000 
     21 C16        96.5940   63.5530   54.1640 C.2       1 4MS579      0.0000 
     22 O28        96.3400   64.5140   54.8680 O.2       1 4MS579      0.0000 
     23 C14        96.8900   62.1780   54.6350 C.2       1 4MS579      0.0000 
     24 C2         95.7860   63.6910   57.2610 C.ar      1 4MS579      0.0000 
     25 N25        97.7880   60.7100   56.3330 N.pl3     1 4MS579      0.0000 
     26 S35        97.9240   60.5160   57.9640 S.o2      1 4MS579      0.0000 
     27 O29        99.3150   60.7330   58.3250 O.2       1 4MS579      0.0000 
     28 O30        97.1720   59.3680   58.4120 O.2       1 4MS579      0.0000 
     29 C11        96.9850   61.9290   58.3490 C.ar      1 4MS579      0.0000 
     30 C9         96.6570   62.4080   59.6040 C.ar      1 4MS579      0.0000 
     31 C3         95.8720   63.5690   59.6960 C.ar      1 4MS579      0.0000 
     32 C1         95.4420   64.2070   58.5210 C.ar      1 4MS579      0.0000 
     33 C23        97.1320   61.7100   60.8150 C.3       1 4MS579      0.0000 
     34 N27        97.0610   62.4990   62.0140 N.pl3     1 4MS579      0.0000 
     35 S36        97.1290   61.5700   63.4350 S.o2      1 4MS579      0.0000 
     36 O31        96.6860   60.2160   63.1350 O.2       1 4MS579      0.0000 
     37 O32        96.5810   62.3050   64.5500 O.2       1 4MS579      0.0000 
     38 H          94.2517   63.6467   53.4735 H         1 4MS579      0.0000 
     39 H          91.9728   63.1162   52.8606 H         1 4MS579      0.0000 
     40 H          95.0167   64.9871   49.5740 H         1 4MS579      0.0000 
     41 H          96.2058   61.8003   51.6757 H         1 4MS579      0.0000 
     42 H          96.2580   65.5771   52.5648 H         1 4MS579      0.0000 
     43 H          96.8440   64.7599   51.1059 H         1 4MS579      0.0000 
     44 H          95.4601   64.1640   56.4124 H         1 4MS579      0.0000 
     45 H          98.2418   60.0411   55.8263 H         1 4MS579      0.0000 
     46 H          95.6163   63.9457   60.6086 H         1 4MS579      0.0000 
     47 H          94.8706   65.0589   58.5839 H         1 4MS579      0.0000 
     48 H          98.1827   61.3673   60.6406 H         1 4MS579      0.0000 
     49 H          96.5421   60.7674   60.9382 H         1 4MS579      0.0000 
     50 H          96.9858   63.4124   62.1368 H         1 4MS579      0.0000 
     51 H          99.5099   60.7865   50.4223 H         1 4MS579      0.0000 
     52 H          98.7194   60.1310   51.6599 H         1 4MS579      0.0000 
     53 H          97.9366   60.4772   50.2984 H         1 4MS579      0.0000 
     54 H          99.3543   61.0508   62.9308 H         1 4MS579      0.0000 
     55 H          99.2862   62.3957   63.8099 H         1 4MS579      0.0000 
     56 H          99.1122   60.9625   64.5182 H         1 4MS579      0.0000 
     57 H         100.3603   62.7268   51.8728 H         1 4MS579      0.0000 
     58 H          99.3342   63.6458   52.7027 H         1 4MS579      0.0000 
     59 H          99.6162   62.1327   53.1689 H         1 4MS579      0.0000 
     60 H          99.2132   63.1510   49.7722 H         1 4MS579      0.0000 
     61 H          97.6386   62.8958   49.5686 H         1 4MS579      0.0000 
     62 H          98.1432   64.1087   50.4962 H         1 4MS579      0.0000 
@<TRIPOS>BOND
     1    2    1 ar   
     2    5    1 ar   
     3   38    1 1    
     4    6    2 ar   
     5   39    2 1    
     6    5    3 ar   
     7   15    3 ar   
     8   40    3 1    
     9    7    4 1    
    10   24    4 ar   
    11   29    4 ar   
    12   12    5 1    
    13   15    6 ar   
    14   16    6 1    
    15   23    7 1    
    16   25    7 2    
    17    9    8 1    
    18   20    8 1    
    19   23    8 2    
    20   13    9 1    
    21   17    9 1    
    22   41    9 1    
    23   13   10 1    
    24   51   10 1    
    25   52   10 1    
    26   53   10 1    
    27   35   11 1    
    28   54   11 1    
    29   55   11 1    
    30   56   11 1    
    31   17   12 1    
    32   42   12 1    
    33   43   12 1    
    34   18   13 1    
    35   19   13 1    
    36   15   14 1    
    37   21   17 am   
    38   57   18 1    
    39   58   18 1    
    40   59   18 1    
    41   60   19 1    
    42   61   19 1    
    43   62   19 1    
    44   22   21 2    
    45   23   21 1    
    46   32   24 ar   
    47   44   24 1    
    48   26   25 1    
    49   45   25 1    
    50   27   26 2    
    51   28   26 2    
    52   29   26 1    
    53   30   29 ar   
    54   31   30 ar   
    55   33   30 1    
    56   32   31 ar   
    57   46   31 1    
    58   47   32 1    
    59   34   33 1    
    60   48   33 1    
    61   49   33 1    
    62   35   34 1    
    63   50   34 1    
    64   36   35 2    
    65   37   35 2    
@<TRIPOS>SUBSTRUCTURE
     1 4MS579      1 GROUP   
@<TRIPOS>SET

