#    Name: 1Z9A_2_CAVITY_N1_6.mol2
#    Modification time : Mon Mar 10 22:20:34 2014

@<TRIPOS>MOLECULE
1Z9A_2_CAVITY_N1_6.mol2
  123     0     7     0     0
SMALL
NO_CHARGES


@<TRIPOS>ATOM
      1 NZ        105.0283   45.4504   35.1377 N.2       4 LYS4        0.0000 
      2 CA        105.4932   44.0422   35.3634 C.3       6 GLY6        0.0000 
      3 OG        104.3536   45.0241   33.8677 O.2       1 SER1        0.0000 
      4 OG        103.6788   44.5978   32.5977 O.2       1 SER1        0.0000 
      5 CZ        104.1436   43.1896   32.8234 C.ar      5 PHE5        0.0000 
      6 OG        102.5392   45.5797   31.1020 O.2       1 SER1        0.0000 
      7 CZ        103.0040   44.1715   31.3277 C.ar      5 PHE5        0.0000 
      8 CZ        103.4689   42.7633   31.5533 C.ar      5 PHE5        0.0000 
      9 CZ        101.3996   46.5616   29.6062 C.ar      5 PHE5        0.0000 
     10 CZ        101.8644   45.1534   29.8319 C.ar      5 PHE5        0.0000 
     11 CZ        100.7248   46.1353   28.3362 C.ar      5 PHE5        0.0000 
     12 NZ        101.1897   44.7271   28.5619 N.2       4 LYS4        0.0000 
     13 CZ        100.0501   45.7090   27.0662 C.ar      5 PHE5        0.0000 
     14 NZ        100.5149   44.3009   27.2919 N.2       4 LYS4        0.0000 
     15 CZ         98.5125   41.4422   43.4881 C.ar      5 PHE5        0.0000 
     16 N          96.9081   43.8323   41.7667 N.2       2 ALA2        0.0000 
     17 N          97.3729   42.4241   41.9924 N.2       2 ALA2        0.0000 
     18 CZ         97.8377   41.0160   42.2181 C.ar      5 PHE5        0.0000 
     19 NZ         96.2333   43.4060   40.4967 N.2       4 LYS4        0.0000 
     20 NZ         96.6981   41.9979   40.7224 N.2       4 LYS4        0.0000 
     21 CZ         97.1630   40.5897   40.9481 C.ar      5 PHE5        0.0000 
     22 NZ         96.0234   41.5716   39.4523 N.2       4 LYS4        0.0000 
     23 CA         97.9308   41.5765   45.5237 C.3       6 GLY6        0.0000 
     24 CZ         98.3957   40.1683   45.7494 C.ar      5 PHE5        0.0000 
     25 CA         96.7912   42.5584   44.0280 C.3       6 GLY6        0.0000 
     26 CA         97.2561   41.1502   44.2537 C.3       6 GLY6        0.0000 
     27 CZ         97.7209   39.7420   44.4794 C.ar      5 PHE5        0.0000 
     28 N          95.6516   43.5403   42.5323 N.2       2 ALA2        0.0000 
     29 O          96.1165   42.1321   42.7580 O.2       2 ALA2        0.0000 
     30 CZ         96.5813   40.7239   42.9837 C.ar      5 PHE5        0.0000 
     31 NZ         94.5120   44.5222   41.0365 N.2       4 LYS4        0.0000 
     32 NZ         95.4417   41.7058   41.4879 N.2       4 LYS4        0.0000 
     33 CA         95.9065   40.2976   41.7136 C.3       6 GLY6        0.0000 
     34 N          98.6293   42.7162   41.2268 N.2       2 ALA2        0.0000 
     35 CA         97.4897   43.6981   39.7311 C.3       6 GLY6        0.0000 
     36 CA         97.9546   42.2899   39.9568 C.3       6 GLY6        0.0000 
     37 CZ         98.4194   40.8817   40.1825 C.ar      5 PHE5        0.0000 
     38 NZ         96.8150   43.2718   38.4611 N.2       4 LYS4        0.0000 
     39 CA         97.2798   41.8636   38.6868 C.3       6 GLY6        0.0000 
     40 O          97.7446   40.4554   38.9125 O.2       2 ALA2        0.0000 
     41 N          95.7660   38.3102   49.5418 N.2       2 ALA2        0.0000 
     42 O          95.2080   39.1579   46.0105 O.2       2 ALA2        0.0000 
     43 O          94.0684   40.1398   44.5148 O.2       2 ALA2        0.0000 
     44 CZ         94.5333   38.7316   44.7405 C.ar      5 PHE5        0.0000 
     45 O          92.4640   42.5299   42.7934 O.2       2 ALA2        0.0000 
     46 O          92.9288   41.1217   43.0191 O.2       2 ALA2        0.0000 
     47 O          93.3937   39.7135   43.2447 O.2       2 ALA2        0.0000 
     48 CZ         93.8585   38.3053   43.4704 C.ar      5 PHE5        0.0000 
     49 N          92.2541   40.6954   41.7490 N.2       2 ALA2        0.0000 
     50 O          97.1392   39.8762   46.5150 O.2       2 ALA2        0.0000 
     51 CA         97.6041   38.4681   46.7407 C.3       6 GLY6        0.0000 
     52 O          95.9996   40.8581   45.0192 O.2       2 ALA2        0.0000 
     53 CZ         96.4645   39.4500   45.2449 C.ar      5 PHE5        0.0000 
     54 OD1        95.3249   40.4319   43.7492 O.3       3 ASP3        0.0000 
     55 NZ         94.1853   41.4138   42.2535 N.2       4 LYS4        0.0000 
     56 CA         94.6501   40.0056   42.4792 C.3       6 GLY6        0.0000 
     57 CZ        100.3506   41.6001   40.6870 C.ar      5 PHE5        0.0000 
     58 CA         99.2110   42.5820   39.1912 C.3       6 GLY6        0.0000 
     59 CZ         99.6758   41.1738   39.4169 C.ar      5 PHE5        0.0000 
     60 OG         98.0714   43.5639   37.6955 O.2       1 SER1        0.0000 
     61 CA         98.5362   42.1557   37.9212 C.3       6 GLY6        0.0000 
     62 CA         99.0011   40.7475   38.1469 C.3       6 GLY6        0.0000 
     63 N          97.8140   40.3025   47.7850 N.2       2 ALA2        0.0000 
     64 N         105.5169   44.7556   29.7965 N.2       2 ALA2        0.0000 
     65 CZ        105.9817   43.3474   30.0222 C.ar      5 PHE5        0.0000 
     66 N         104.8421   44.3293   28.5265 N.2       2 ALA2        0.0000 
     67 CZ        102.5629   46.2931   25.5351 C.ar      5 PHE5        0.0000 
     68 O         101.6070   41.8921   39.9214 O.2       2 ALA2        0.0000 
     69 CA        100.4674   42.8740   38.4257 C.3       6 GLY6        0.0000 
     70 CA        100.9323   41.4658   38.6514 C.3       6 GLY6        0.0000 
     71 O         101.3971   40.0576   38.8771 O.2       2 ALA2        0.0000 
     72 OG         99.3278   43.8559   36.9300 O.2       1 SER1        0.0000 
     73 OG         99.7927   42.4477   37.1557 O.2       1 SER1        0.0000 
     74 CA        100.2575   41.0395   37.3813 C.3       6 GLY6        0.0000 
     75 N          96.5576   40.0105   48.5506 N.2       2 ALA2        0.0000 
     76 CA         97.0224   38.6023   48.7762 C.3       6 GLY6        0.0000 
     77 O          95.8828   39.5842   47.2805 O.2       2 ALA2        0.0000 
     78 CA         96.3476   38.1760   47.5062 C.3       6 GLY6        0.0000 
     79 OG        105.6100   45.3161   33.1021 O.2       1 SER1        0.0000 
     80 N         106.0748   43.9080   33.3278 N.2       2 ALA2        0.0000 
     81 OG        104.9352   44.8899   31.8321 O.2       1 SER1        0.0000 
     82 CZ        105.4001   43.4817   32.0578 C.ar      5 PHE5        0.0000 
     83 OG        104.2605   44.4636   30.5621 O.2       1 SER1        0.0000 
     84 CZ        104.7253   43.0554   30.7878 C.ar      5 PHE5        0.0000 
     85 CZ        102.6560   46.8537   28.8407 C.ar      5 PHE5        0.0000 
     86 N         103.1209   45.4455   29.0664 N.2       2 ALA2        0.0000 
     87 NZ        103.5857   44.0373   29.2921 N.2       4 LYS4        0.0000 
     88 NZ        104.0506   42.6291   29.5177 N.2       4 LYS4        0.0000 
     89 N         101.9813   46.4274   27.5706 N.2       2 ALA2        0.0000 
     90 NZ        102.4461   45.0192   27.7963 N.2       4 LYS4        0.0000 
     91 CZ        101.3065   46.0011   26.3006 C.ar      5 PHE5        0.0000 
     92 NZ        101.7714   44.5929   26.5263 N.2       4 LYS4        0.0000 
     93 CZ        101.0966   44.1666   25.2563 C.ar      5 PHE5        0.0000 
     94 N         106.1917   45.1819   31.0666 N.2       2 ALA2        0.0000 
     95 N         104.4467   45.5846   37.1733 N.2       2 ALA2        0.0000 
     96 CA        103.3071   46.5665   35.6776 C.3       6 GLY6        0.0000 
     97 DU        103.7719   45.1583   35.9033 H         7 CUB7        0.0000 
     98 CA        104.2367   43.7501   36.1290 C.3       6 GLY6        0.0000 
     99 CZ        103.0971   44.7320   34.6333 C.ar      5 PHE5        0.0000 
    100 CA        103.5620   43.3239   34.8590 C.3       6 GLY6        0.0000 
    101 CZ        102.4224   44.3058   33.3632 C.ar      5 PHE5        0.0000 
    102 OG        102.8872   42.8976   33.5889 O.2       1 SER1        0.0000 
    103 CZ         99.2585   44.0088   28.0574 C.ar      5 PHE5        0.0000 
    104 N         103.1902   45.2926   37.9389 N.2       2 ALA2        0.0000 
    105 O         102.0506   46.2745   36.4432 O.2       2 ALA2        0.0000 
    106 N         102.5155   44.8663   36.6689 N.2       2 ALA2        0.0000 
    107 N         102.9803   43.4581   36.8946 N.2       2 ALA2        0.0000 
    108 CA        101.3759   45.8482   35.1731 C.3       6 GLY6        0.0000 
    109 CZ        101.8407   44.4400   35.3988 C.ar      5 PHE5        0.0000 
    110 O         102.3055   43.0318   35.6245 O.2       2 ALA2        0.0000 
    111 OG        101.6308   42.6055   34.3545 O.2       1 SER1        0.0000 
    112 O          94.6264   39.2922   48.0461 O.2       2 ALA2        0.0000 
    113 DU         95.0912   37.8840   48.2718 H         7 CUB7        0.0000 
    114 CZ         94.4164   37.4577   47.0018 C.ar      5 PHE5        0.0000 
    115 O         101.9338   45.0005   38.7045 O.2       2 ALA2        0.0000 
    116 O         102.3986   43.5923   38.9302 O.2       2 ALA2        0.0000 
    117 CA        102.8635   42.1841   39.1558 C.3       6 GLY6        0.0000 
    118 CA        100.7942   45.9824   37.2087 C.3       6 GLY6        0.0000 
    119 CA        101.2590   44.5742   37.4344 C.3       6 GLY6        0.0000 
    120 O         101.7239   43.1660   37.6601 O.2       2 ALA2        0.0000 
    121 O         102.1887   41.7579   37.8858 O.2       2 ALA2        0.0000 
    122 OG        100.5843   44.1479   36.1644 O.2       1 SER1        0.0000 
    123 OG        101.0491   42.7398   36.3901 O.2       1 SER1        0.0000 
@<TRIPOS>BOND
@<TRIPOS>SUBSTRUCTURE
     1 SER1        3 GROUP   
     2 ALA2       16 GROUP   
     3 ASP3       54 GROUP   
     4 LYS4        1 GROUP   
     5 PHE5        5 GROUP   
     6 GLY6        2 GROUP   
     7 CUB7       97 GROUP   
@<TRIPOS>SET

