#    Name: 1z9a_NAD_2_INTS_M
#    Modification time : Mon Apr  7 16:56:43 2014

@<TRIPOS>MOLECULE
1z9a_NAD_2_INTS_M
  102     0     9     0     0
SMALL
NO_CHARGES


@<TRIPOS>ATOM
      1 N         100.7800   38.6040   38.7610 N.am      2 SEC2        0.0000 
      2 N         100.3800   40.1840   38.2400 N.am      8 SEL2        0.0000 
      3 N         101.1800   37.0240   39.2820 N.am      5 SEP2        0.0000 
      4 N          99.4960   39.3715   37.7050 N.am      2 SEC2        0.0000 
      5 N          98.6120   38.5590   37.1700 N.am      5 SEP2        0.0000 
      6 N         101.5635   43.2060   40.5030 N.am      2 SEC2        0.0000 
      7 N         101.4550   41.9830   39.7550 N.am      8 SEL2        0.0000 
      8 N         101.6720   44.4290   41.2510 N.am      5 SEP2        0.0000 
      9 CA         98.8565   40.3525   40.5405 C.3       3 GLC5        0.0000 
     10 CA         97.7910   41.4730   39.1290 C.3       9 GLL5        0.0000 
     11 CA         99.9220   39.2320   41.9520 C.3       6 GLP5        0.0000 
     12 CA         96.5485   39.7715   39.0195 C.3       3 GLC5        0.0000 
     13 CA         95.3060   38.0700   38.9100 C.3       6 GLP5        0.0000 
     14 CA         97.6440   41.3520   37.3290 C.3       3 GLC5        0.0000 
     15 CA         97.4970   41.2310   35.5290 C.3       6 GLP5        0.0000 
     16 CA         98.7600   43.4000   39.6090 C.3       3 GLC5        0.0000 
     17 CA         99.7290   45.3270   40.0890 C.3       6 GLP5        0.0000 
     18 CA         95.5255   40.3610   39.9465 C.3       3 GLC5        0.0000 
     19 CA         96.6030   41.7960   40.0820 C.3       9 GLL5        0.0000 
     20 CA         94.4480   38.9260   39.8110 C.3       6 GLP5        0.0000 
     21 CA         96.3150   41.3895   37.9550 C.3       3 GLC5        0.0000 
     22 CA         96.0270   40.9830   35.8280 C.3       6 GLP5        0.0000 
     23 CA         97.5630   44.8210   40.2840 C.3       3 GLC5        0.0000 
     24 CA         96.4730   43.2520   40.6350 C.3       9 GLL5        0.0000 
     25 CA         98.6530   46.3900   39.9330 C.3       6 GLP5        0.0000 
     26 O          95.0110   43.9165   38.8205 O.2       1 ALC1        0.0000 
     27 O          95.9040   44.1620   39.6990 O.2       7 ALL1        0.0000 
     28 O          94.1180   43.6710   37.9420 O.2       4 ALP1        0.0000 
     29 O          94.6040   43.3245   39.6470 O.2       1 ALC1        0.0000 
     30 O          93.3040   42.4870   39.5950 O.2       4 ALP1        0.0000 
     31 O          93.7880   42.8645   40.6430 O.2       1 ALC1        0.0000 
     32 O          94.2720   43.2420   41.6910 O.2       7 ALL1        0.0000 
     33 CA         95.2070   40.2870   41.0980 C.3       3 GLC5        0.0000 
     34 CA         95.9660   41.6480   42.3850 C.3       9 GLL5        0.0000 
     35 N          99.9470   42.4730   45.4415 N.am      2 SEC2        0.0000 
     36 N          98.7110   41.7420   44.8070 N.am      8 SEL2        0.0000 
     37 N         101.1830   43.2040   46.0760 N.am      5 SEP2        0.0000 
     38 CA         98.5815   38.5090   47.0325 C.3       3 GLC5        0.0000 
     39 CA         97.8030   40.2740   46.6340 C.3       9 GLL5        0.0000 
     40 CA         99.3600   36.7440   47.4310 C.3       6 GLP5        0.0000 
     41 CA         97.3225   41.9765   47.2775 C.3       3 GLC5        0.0000 
     42 CA         96.8420   43.6790   47.9210 C.3       6 GLP5        0.0000 
     43 O         100.0900   40.8580   47.4615 O.2       1 ALC1        0.0000 
     44 O          98.7870   40.3370   47.5510 O.2       7 ALL1        0.0000 
     45 O         101.3930   41.3790   47.3720 O.2       4 ALP1        0.0000 
     46 CA         95.8200   41.5555   46.3540 C.3       3 GLC5        0.0000 
     47 CA         95.6100   39.3490   46.0870 C.3       9 GLL5        0.0000 
     48 CA         96.0300   43.7620   46.6210 C.3       6 GLP5        0.0000 
     49 N         100.7390   41.2065   34.6120 N.am      2 SEC2        0.0000 
     50 N         100.1010   42.2900   35.2830 N.am      8 SEL2        0.0000 
     51 N         101.3770   40.1230   33.9410 N.am      5 SEP2        0.0000 
     52 N          98.8870   42.4005   35.1255 N.am      2 SEC2        0.0000 
     53 N          97.6730   42.5110   34.9680 N.am      5 SEP2        0.0000 
     54 N         102.9065   41.4715   36.1990 N.am      2 SEC2        0.0000 
     55 N         102.2190   42.8610   36.4960 N.am      8 SEL2        0.0000 
     56 N         103.5940   40.0820   35.9020 N.am      5 SEP2        0.0000 
     57 CA        103.3375   43.4190   39.6065 C.3       3 GLC5        0.0000 
     58 CA        102.9660   43.6000   37.4730 C.3       9 GLL5        0.0000 
     59 CA        103.7090   43.2380   41.7400 C.3       6 GLP5        0.0000 
     60 CA        105.6005   44.3255   37.4490 C.3       3 GLC5        0.0000 
     61 CA        103.7660   44.6930   36.8150 C.3       9 GLL5        0.0000 
     62 CA        107.4350   43.9580   38.0830 C.3       6 GLP5        0.0000 
     63 N         102.0585   48.1445   36.1455 N.am      2 SEC2        0.0000 
     64 N         102.4230   46.8540   36.8490 N.am      8 SEL2        0.0000 
     65 N         101.6940   49.4350   35.4420 N.am      5 SEP2        0.0000 
     66 CA        104.0300   47.5770   33.4320 C.3       3 GLC5        0.0000 
     67 CA        104.1000   46.3550   35.0890 C.3       9 GLL5        0.0000 
     68 CA        103.9600   48.7990   31.7750 C.3       6 GLP5        0.0000 
     69 N         104.2245   48.5150   36.6045 N.am      2 SEC2        0.0000 
     70 N         104.9410   47.3340   35.6590 N.am      8 SEL2        0.0000 
     71 N         103.5080   49.6960   37.5500 N.am      5 SEP2        0.0000 
     72 O         106.1555   47.4110   35.3040 O.2       1 ALC1        0.0000 
     73 O         104.9410   47.3340   35.6590 O.2       7 ALL1        0.0000 
     74 O         107.3700   47.4880   34.9490 O.2       4 ALP1        0.0000 
     75 CA        105.4310   43.2800   34.4420 C.3       3 GLC5        0.0000 
     76 CA        104.8750   45.1460   34.7480 C.3       9 GLL5        0.0000 
     77 CA        105.9870   41.4140   34.1360 C.3       6 GLP5        0.0000 
     78 CA        106.9400   46.0240   31.9060 C.3       3 GLC5        0.0000 
     79 CA        105.3570   44.5760   32.3540 C.3       9 GLL5        0.0000 
     80 CA        108.5230   47.4720   31.4580 C.3       6 GLP5        0.0000 
     81 N         105.6585   45.2690   28.3805 N.am      2 SEC2        0.0000 
     82 N         105.5770   43.6270   28.9320 N.am      8 SEL2        0.0000 
     83 N         105.7400   46.9110   27.8290 N.am      5 SEP2        0.0000 
     84 N         106.4500   43.0865   27.7465 N.am      2 SEC2        0.0000 
     85 N         107.3230   42.5460   26.5610 N.am      5 SEP2        0.0000 
     86 O         108.2990   44.0150   29.5270 O.2       1 ALC1        0.0000 
     87 O         107.1080   44.7000   30.1290 O.2       7 ALL1        0.0000 
     88 O         109.4900   43.3300   28.9250 O.2       4 ALP1        0.0000 
     89 O         107.7580   44.5445   31.3250 O.2       1 ALC1        0.0000 
     90 O         108.4080   44.3890   32.5210 O.2       4 ALP1        0.0000 
     91 CA         96.6262   42.2985   45.7950 C.3       3 GLC5        0.0000 
     92 CA         96.6710   40.7540   44.5480 C.3       9 GLL5        0.0000 
     93 CA        102.3325   46.9782   34.6085 C.3       3 GLC5        0.0000 
     94 CA        103.0280   45.8420   36.0310 C.3       9 GLL5        0.0000 
     95 CA        101.1010   47.8580   33.6570 C.3       6 GLP5        0.0000 
     96 CA        103.9507   46.8541   37.4140 C.3       3 GLC5        0.0000 
     97 CA        104.1530   47.8970   39.0720 C.3       6 GLP5        0.0000 
     98 CA        106.1653   45.1767   35.8427 C.3       3 GLC5        0.0000 
     99 CA        107.8430   44.6030   36.7670 C.3       6 GLP5        0.0000 
    100 CA        105.5772   42.8553   32.9443 C.3       3 GLC5        0.0000 
    101 CA        104.6100   42.4968   33.3041 C.3       3 GLC5        0.0000 
    102 CA        103.2040   43.8450   33.3830 C.3       9 GLL5        0.0000 
@<TRIPOS>BOND
@<TRIPOS>SUBSTRUCTURE
     1 ALC1       26 GROUP        1 X    ALC  0     ROOT ALC X 1
     2 SEC2        1 GROUP        1 X    SEC  0     **** SEC X 2
     3 GLC5        9 GROUP        1 X    GLC  0     **** GLC X 6
     4 ALP1       28 GROUP        1 Y    ALP  0     ROOT ALP Y 8
     5 SEP2        3 GROUP        1 Y    SEP  0     **** SEP Y 9
     6 GLP5       11 GROUP        1 Y    GLP  0     **** GLP Y 13
     7 ALL1       27 GROUP        1 Z    ALL  0     ROOT ALL Z 15
     8 SEL2        2 GROUP        1 Z    SEL  0     **** SEL Z 16
     9 GLL5       10 GROUP        1 Z    GLL  0     **** GLL Z 20
@<TRIPOS>SET

