#    Name: 1z9a_NAD_2_ligand
#    Modification time : Mon Apr  7 16:56:43 2014

@<TRIPOS>MOLECULE
1z9a_NAD_2_ligand
   69    73     1     0     0
SMALL
NO_CHARGES


@<TRIPOS>ATOM
      1 PA        100.3620   41.4230   38.8810 P.3       1 NAD2350     0.0000 
      2 O1A       100.3800   40.1840   38.2400 O.co2     1 NAD2350     0.0000 
      3 O2A       101.4550   41.9830   39.7550 O.co2     1 NAD2350     0.0000 
      4 O5B        99.0460   41.5390   39.7920 O.3       1 NAD2350     0.0000 
      5 C5B        97.7910   41.4730   39.1290 C.3       1 NAD2350     0.0000 
      6 C4B        96.6030   41.7960   40.0820 C.3       1 NAD2350     0.0000 
      7 O4B        96.4010   40.8960   41.2680 O.3       1 NAD2350     0.0000 
      8 C3B        96.4730   43.2520   40.6350 C.3       1 NAD2350     0.0000 
      9 O3B        95.9040   44.1620   39.6990 O.3       1 NAD2350     0.0000 
     10 C2B        95.6650   43.0860   41.8980 C.3       1 NAD2350     0.0000 
     11 O2B        94.2720   43.2420   41.6910 O.3       1 NAD2350     0.0000 
     12 C1B        95.9660   41.6480   42.3850 C.3       1 NAD2350     0.0000 
     13 N9A        96.9320   41.4930   43.4500 N.pl3     1 NAD2350     0.0000 
     14 C8A        98.1610   42.0540   43.6550 C.2       1 NAD2350     0.0000 
     15 N7A        98.7110   41.7420   44.8070 N.2       1 NAD2350     0.0000 
     16 C5A        97.7740   40.9160   45.3900 C.ar      1 NAD2350     0.0000 
     17 C6A        97.8030   40.2740   46.6340 C.ar      1 NAD2350     0.0000 
     18 N6A        98.7870   40.3370   47.5510 N.pl3     1 NAD2350     0.0000 
     19 N1A        96.6980   39.4860   46.9680 N.ar      1 NAD2350     0.0000 
     20 C2A        95.6100   39.3490   46.0870 C.ar      1 NAD2350     0.0000 
     21 N3A        95.5580   39.9790   44.8490 N.ar      1 NAD2350     0.0000 
     22 C4A        96.6710   40.7540   44.5480 C.ar      1 NAD2350     0.0000 
     23 O3        100.0450   42.5550   37.7790 O.3       1 NAD2350     0.0000 
     24 PN        100.6710   43.0880   36.3930 P.3       1 NAD2350     0.0000 
     25 O1N       100.4380   44.5300   36.3080 O.co2     1 NAD2350     0.0000 
     26 O2N       100.1010   42.2900   35.2830 O.co2     1 NAD2350     0.0000 
     27 O5D       102.2190   42.8610   36.4960 O.3       1 NAD2350     0.0000 
     28 C5D       102.9660   43.6000   37.4730 C.3       1 NAD2350     0.0000 
     29 C4D       103.7660   44.6930   36.8150 C.3       1 NAD2350     0.0000 
     30 O4D       104.8020   44.2400   35.9020 O.3       1 NAD2350     0.0000 
     31 C3D       103.0280   45.8420   36.0310 C.3       1 NAD2350     0.0000 
     32 O3D       102.4230   46.8540   36.8490 O.3       1 NAD2350     0.0000 
     33 C2D       104.1000   46.3550   35.0890 C.3       1 NAD2350     0.0000 
     34 O2D       104.9410   47.3340   35.6590 O.3       1 NAD2350     0.0000 
     35 C1D       104.8750   45.1460   34.7480 C.3       1 NAD2350     0.0000 
     36 N1N       104.4780   44.4930   33.4560 N.pl3     1 NAD2350     0.0000 
     37 C2N       105.3570   44.5760   32.3540 C.ar      1 NAD2350     0.0000 
     38 C3N       104.9780   44.0170   31.1510 C.ar      1 NAD2350     0.0000 
     39 C7N       105.9430   44.1140   29.9830 C.2       1 NAD2350     0.0000 
     40 O7N       105.5770   43.6270   28.9320 O.2       1 NAD2350     0.0000 
     41 N7N       107.1080   44.7000   30.1290 N.am      1 NAD2350     0.0000 
     42 C4N       103.6910   43.3500   30.9930 C.ar      1 NAD2350     0.0000 
     43 C5N       102.8330   43.2780   32.1300 C.ar      1 NAD2350     0.0000 
     44 C6N       103.2040   43.8450   33.3830 C.ar      1 NAD2350     0.0000 
     45 H          97.5958   40.4706   38.7073 H         1 NAD2350     0.0000 
     46 H          97.7267   42.1874   38.2886 H         1 NAD2350     0.0000 
     47 H          95.6417   41.6670   39.4565 H         1 NAD2350     0.0000 
     48 H          97.4837   43.5380   40.9363 H         1 NAD2350     0.0000 
     49 H          96.0569   43.7512   42.6454 H         1 NAD2350     0.0000 
     50 H          94.9879   41.2264   42.7135 H         1 NAD2350     0.0000 
     51 H          98.5861   42.6520   42.9653 H         1 NAD2350     0.0000 
     52 H          94.8086   38.7453   46.3827 H         1 NAD2350     0.0000 
     53 H         103.6611   42.9447   38.0209 H         1 NAD2350     0.0000 
     54 H         102.2989   44.0606   38.2183 H         1 NAD2350     0.0000 
     55 H         104.3249   45.2609   37.6409 H         1 NAD2350     0.0000 
     56 H         102.2904   45.3207   35.3995 H         1 NAD2350     0.0000 
     57 H         103.6066   46.6965   34.1910 H         1 NAD2350     0.0000 
     58 H         105.9451   45.4621   34.6538 H         1 NAD2350     0.0000 
     59 H         106.2561   45.0457   32.4609 H         1 NAD2350     0.0000 
     60 H         107.2886   45.1027   31.0263 H         1 NAD2350     0.0000 
     61 H         107.7087   44.6903   29.3296 H         1 NAD2350     0.0000 
     62 H         103.4329   42.9618   30.1130 H         1 NAD2350     0.0000 
     63 H         101.9241   42.8048   32.0423 H         1 NAD2350     0.0000 
     64 H         102.6045   43.7943   34.1765 H         1 NAD2350     0.0000 
     65 H          95.2588   43.6149   39.1657 H         1 NAD2350     0.0000 
     66 H          94.0209   42.5095   41.0583 H         1 NAD2350     0.0000 
     67 H          99.5452   40.7939   47.0858 H         1 NAD2350     0.0000 
     68 H         101.4659   46.5779   36.9365 H         1 NAD2350     0.0000 
     69 H         105.8561   46.9314   35.6405 H         1 NAD2350     0.0000 
@<TRIPOS>BOND
     1    2    1 ar   
     2    3    1 ar   
     3    4    1 1    
     4   23    1 1    
     5    5    4 1    
     6    6    5 1    
     7   45    5 1    
     8   46    5 1    
     9    7    6 1    
    10    8    6 1    
    11   47    6 1    
    12   12    7 1    
    13    9    8 1    
    14   10    8 1    
    15   48    8 1    
    16   65    9 1    
    17   11   10 1    
    18   12   10 1    
    19   49   10 1    
    20   66   11 1    
    21   13   12 1    
    22   50   12 1    
    23   14   13 1    
    24   22   13 1    
    25   15   14 2    
    26   51   14 1    
    27   16   15 1    
    28   17   16 ar   
    29   22   16 ar   
    30   18   17 1    
    31   19   17 ar   
    32   67   18 1    
    33   20   19 ar   
    34   21   20 ar   
    35   52   20 1    
    36   22   21 ar   
    37   24   23 1    
    38   25   24 ar   
    39   26   24 ar   
    40   27   24 1    
    41   28   27 1    
    42   29   28 1    
    43   53   28 1    
    44   54   28 1    
    45   30   29 1    
    46   31   29 1    
    47   55   29 1    
    48   35   30 1    
    49   32   31 1    
    50   33   31 1    
    51   56   31 1    
    52   68   32 1    
    53   34   33 1    
    54   35   33 1    
    55   57   33 1    
    56   69   34 1    
    57   36   35 1    
    58   58   35 1    
    59   37   36 ar   
    60   44   36 ar   
    61   38   37 ar   
    62   59   37 1    
    63   39   38 1    
    64   42   38 ar   
    65   40   39 2    
    66   41   39 am   
    67   60   41 1    
    68   61   41 1    
    69   43   42 ar   
    70   62   42 1    
    71   44   43 ar   
    72   63   43 1    
    73   64   44 1    
@<TRIPOS>SUBSTRUCTURE
     1 NAD2350     1 GROUP   
@<TRIPOS>SET

