#    Name: 3K5F_3_CAVITY_N1_ALL.mol2
#    Modification time : Tue Mar 11 06:19:53 2014

@<TRIPOS>MOLECULE
3K5F_3_CAVITY_N1_ALL.mol2
  142     0     6     0     0
SMALL
NO_CHARGES


@<TRIPOS>ATOM
      1 N         -14.9221   25.2411   -1.1857 N.2       2 ALA2        0.0000 
      2 O         -15.8722   26.3776   -1.4215 O.2       2 ALA2        0.0000 
      3 O         -16.8224   27.5141   -1.6574 O.2       2 ALA2        0.0000 
      4 O         -17.7725   28.6505   -1.8933 O.2       2 ALA2        0.0000 
      5 N         -18.7226   29.7870   -2.1292 N.2       2 ALA2        0.0000 
      6 N         -17.0282   25.4235   -1.3621 N.2       2 ALA2        0.0000 
      7 O         -17.9783   26.5600   -1.5980 O.2       2 ALA2        0.0000 
      8 O         -18.9284   27.6965   -1.8339 O.2       2 ALA2        0.0000 
      9 O         -19.8786   28.8330   -2.0698 O.2       2 ALA2        0.0000 
     10 N         -17.2340   23.3329   -1.0669 N.2       2 ALA2        0.0000 
     11 CA        -18.1841   24.4694   -1.3027 C.3       5 GLY6        0.0000 
     12 N         -19.1343   25.6059   -1.5386 N.2       2 ALA2        0.0000 
     13 O         -20.0844   26.7424   -1.7745 O.2       2 ALA2        0.0000 
     14 N         -15.5396   18.9694   -0.2998 N.2       2 ALA2        0.0000 
     15 N         -16.4897   20.1059   -0.5357 N.2       2 ALA2        0.0000 
     16 N         -17.4398   21.2424   -0.7716 N.2       2 ALA2        0.0000 
     17 OG        -18.3900   22.3789   -1.0075 O.2       1 SER1        0.0000 
     18 CA        -19.3401   23.5154   -1.2433 C.3       5 GLY6        0.0000 
     19 DU        -20.2902   24.6519   -1.4792 H         6 CUB7        0.0000 
     20 O         -21.2403   25.7883   -1.7151 O.2       2 ALA2        0.0000 
     21 CA        -16.6955   18.0153   -0.2404 C.3       5 GLY6        0.0000 
     22 N         -17.6457   19.1518   -0.4763 N.2       2 ALA2        0.0000 
     23 N         -18.5958   20.2883   -0.7122 N.2       2 ALA2        0.0000 
     24 O         -19.5459   21.4248   -0.9481 O.2       2 ALA2        0.0000 
     25 O         -20.4960   22.5613   -1.1839 O.2       2 ALA2        0.0000 
     26 CA        -21.4462   23.6978   -1.4198 C.3       5 GLY6        0.0000 
     27 O         -22.3963   24.8343   -1.6557 O.2       2 ALA2        0.0000 
     28 N         -17.8515   17.0613   -0.1810 N.2       2 ALA2        0.0000 
     29 N         -20.7019   20.4707   -0.8887 N.2       2 ALA2        0.0000 
     30 CA        -21.6520   21.6072   -1.1245 C.3       5 GLY6        0.0000 
     31 CA        -22.6021   22.7437   -1.3604 C.3       5 GLY6        0.0000 
     32 CA        -18.0573   14.9707    0.1143 C.3       5 GLY6        0.0000 
     33 N         -19.0074   16.1072   -0.1216 N.2       2 ALA2        0.0000 
     34 OG        -21.8578   19.5167   -0.8293 O.2       1 SER1        0.0000 
     35 N         -20.1634   15.1531   -0.0622 N.2       2 ALA2        0.0000 
     36 NZ        -22.2695   15.3355   -0.2387 N.2       3 LYS4        0.0000 
     37 NZ        -23.2196   16.4720   -0.4746 N.2       3 LYS4        0.0000 
     38 OG        -24.1697   17.6085   -0.7105 O.2       1 SER1        0.0000 
     39 CZ        -18.7974   15.6684   -3.0819 C.ar      4 PHE5        0.0000 
     40 N         -19.7475   16.8049   -3.3178 N.2       2 ALA2        0.0000 
     41 N         -20.6976   17.9414   -3.5537 N.2       2 ALA2        0.0000 
     42 CA        -21.6478   19.0778   -3.7895 C.3       5 GLY6        0.0000 
     43 CA        -22.5979   20.2143   -4.0254 C.3       5 GLY6        0.0000 
     44 CZ        -19.9533   14.7143   -3.0225 C.ar      4 PHE5        0.0000 
     45 CA        -20.9035   15.8508   -3.2584 C.3       5 GLY6        0.0000 
     46 N         -21.8536   16.9873   -3.4943 N.2       2 ALA2        0.0000 
     47 O         -22.8037   18.1238   -3.7301 O.2       2 ALA2        0.0000 
     48 O         -17.8775   28.8700   -0.4132 O.2       2 ALA2        0.0000 
     49 CA        -17.1332   25.6429    0.1180 C.3       5 GLY6        0.0000 
     50 N         -18.0833   26.7794   -0.1179 N.2       2 ALA2        0.0000 
     51 O         -16.5947   20.3253    0.9445 O.2       2 ALA2        0.0000 
     52 O         -20.3952   24.8713    0.0009 O.2       2 ALA2        0.0000 
     53 N         -17.7507   19.3712    1.0039 N.2       2 ALA2        0.0000 
     54 O         -18.7008   20.5077    0.7680 O.2       2 ALA2        0.0000 
     55 O         -21.5512   23.9172    0.0603 O.2       2 ALA2        0.0000 
     56 N         -14.8171   25.0217   -2.6658 N.2       2 ALA2        0.0000 
     57 O         -15.7672   26.1582   -2.9017 O.2       2 ALA2        0.0000 
     58 O         -16.7173   27.2946   -3.1376 O.2       2 ALA2        0.0000 
     59 N         -17.6675   28.4311   -3.3735 N.2       2 ALA2        0.0000 
     60 DU        -17.8733   26.3406   -3.0782 H         6 CUB7        0.0000 
     61 DU        -18.8234   27.4771   -3.3141 H         6 CUB7        0.0000 
     62 N         -19.7735   28.6136   -3.5499 N.2       2 ALA2        0.0000 
     63 N         -16.1788   21.9770   -2.3111 N.2       2 ALA2        0.0000 
     64 N         -17.1290   23.1135   -2.5470 N.2       2 ALA2        0.0000 
     65 DU        -18.0791   24.2500   -2.7829 H         6 CUB7        0.0000 
     66 DU        -19.0292   25.3865   -3.0188 H         6 CUB7        0.0000 
     67 O         -19.9794   26.5230   -3.2547 O.2       2 ALA2        0.0000 
     68 O         -20.9295   27.6595   -3.4905 O.2       2 ALA2        0.0000 
     69 CA        -16.3847   19.8865   -2.0158 C.3       5 GLY6        0.0000 
     70 DU        -17.3348   21.0230   -2.2517 H         6 CUB7        0.0000 
     71 DU        -18.2849   22.1595   -2.4876 H         6 CUB7        0.0000 
     72 DU        -19.2351   23.2960   -2.7235 H         6 CUB7        0.0000 
     73 DU        -20.1852   24.4324   -2.9594 H         6 CUB7        0.0000 
     74 DU        -21.1353   25.5689   -3.1953 H         6 CUB7        0.0000 
     75 OG        -22.0854   26.7054   -3.4311 O.2       1 SER1        0.0000 
     76 CA        -16.5905   17.7959   -1.7205 C.3       5 GLY6        0.0000 
     77 DU        -17.5406   18.9324   -1.9564 H         6 CUB7        0.0000 
     78 DU        -18.4908   20.0689   -2.1923 H         6 CUB7        0.0000 
     79 DU        -19.4409   21.2054   -2.4282 H         6 CUB7        0.0000 
     80 DU        -20.3910   22.3419   -2.6641 H         6 CUB7        0.0000 
     81 DU        -21.3411   23.4784   -2.9000 H         6 CUB7        0.0000 
     82 O         -22.2913   24.6149   -3.1359 O.2       2 ALA2        0.0000 
     83 CZ        -16.7963   15.7054   -1.4253 C.ar      4 PHE5        0.0000 
     84 DU        -17.7465   16.8418   -1.6611 H         6 CUB7        0.0000 
     85 N         -18.6966   17.9783   -1.8970 N.2       2 ALA2        0.0000 
     86 N         -19.6467   19.1148   -2.1329 N.2       2 ALA2        0.0000 
     87 DU        -20.5968   20.2513   -2.3688 H         6 CUB7        0.0000 
     88 DU        -21.5470   21.3878   -2.6047 H         6 CUB7        0.0000 
     89 O         -22.4971   22.5243   -2.8406 O.2       2 ALA2        0.0000 
     90 CA        -17.9523   14.7513   -1.3659 C.3       5 GLY6        0.0000 
     91 N         -18.9024   15.8878   -1.6017 N.2       2 ALA2        0.0000 
     92 N         -19.8525   17.0243   -1.8376 N.2       2 ALA2        0.0000 
     93 N         -20.8027   18.1608   -2.0735 N.2       2 ALA2        0.0000 
     94 OG        -21.7528   19.2973   -2.3094 O.2       1 SER1        0.0000 
     95 OG        -22.7029   20.4337   -2.5453 O.2       1 SER1        0.0000 
     96 CA        -23.6530   21.5702   -2.7812 C.3       5 GLY6        0.0000 
     97 CA        -20.0584   14.9337   -1.5423 C.3       5 GLY6        0.0000 
     98 N         -21.0085   16.0702   -1.7782 N.2       2 ALA2        0.0000 
     99 N         -21.9586   17.2067   -2.0141 N.2       2 ALA2        0.0000 
    100 OG        -22.9087   18.3432   -2.2500 O.2       1 SER1        0.0000 
    101 CA        -23.8589   19.4797   -2.4859 C.3       5 GLY6        0.0000 
    102 CZ        -22.1644   15.1161   -1.7188 C.ar      4 PHE5        0.0000 
    103 CA        -23.1146   16.2526   -1.9547 C.3       5 GLY6        0.0000 
    104 CA        -24.0647   17.3891   -2.1906 C.3       5 GLY6        0.0000 
    105 N         -16.0696   19.2283   -6.4563 N.2       2 ALA2        0.0000 
    106 CA        -15.0187   20.4017   -5.0355 C.3       5 GLY6        0.0000 
    107 CA        -16.1746   19.4477   -4.9761 C.3       5 GLY6        0.0000 
    108 N         -17.3306   18.4936   -4.9167 N.2       2 ALA2        0.0000 
    109 O         -18.2807   19.6301   -5.1526 O.2       2 ALA2        0.0000 
    110 N         -17.5364   16.4030   -4.6214 N.2       2 ALA2        0.0000 
    111 N         -18.4865   17.5395   -4.8573 N.2       2 ALA2        0.0000 
    112 N         -19.4366   18.6760   -5.0932 N.2       2 ALA2        0.0000 
    113 N         -23.2372   23.2220   -6.0367 N.2       2 ALA2        0.0000 
    114 CZ        -18.6923   15.4490   -4.5620 C.ar      4 PHE5        0.0000 
    115 DU        -17.7683   26.1212   -4.5583 H         6 CUB7        0.0000 
    116 DU        -18.7184   27.2577   -4.7942 H         6 CUB7        0.0000 
    117 N         -19.6685   28.3942   -5.0301 N.2       2 ALA2        0.0000 
    118 N         -18.9242   25.1671   -4.4989 N.2       2 ALA2        0.0000 
    119 DU        -19.8743   26.3036   -4.7348 H         6 CUB7        0.0000 
    120 DU        -20.8245   27.4401   -4.9707 H         6 CUB7        0.0000 
    121 CA        -16.2796   19.6671   -3.4960 C.3       5 GLY6        0.0000 
    122 O         -17.2298   20.8036   -3.7319 O.2       2 ALA2        0.0000 
    123 O         -18.1799   21.9401   -3.9677 O.2       2 ALA2        0.0000 
    124 N         -19.1300   23.0765   -4.2036 N.2       2 ALA2        0.0000 
    125 N         -20.0802   24.2130   -4.4395 N.2       2 ALA2        0.0000 
    126 N         -21.0303   25.3495   -4.6754 N.2       2 ALA2        0.0000 
    127 CA        -16.4855   17.5765   -3.2007 C.3       5 GLY6        0.0000 
    128 CA        -17.4356   18.7130   -3.4366 C.3       5 GLY6        0.0000 
    129 O         -18.3857   19.8495   -3.6725 O.2       2 ALA2        0.0000 
    130 O         -19.3359   20.9860   -3.9083 O.2       2 ALA2        0.0000 
    131 N         -20.2860   22.1225   -4.1442 N.2       2 ALA2        0.0000 
    132 N         -21.2361   23.2590   -4.3801 N.2       2 ALA2        0.0000 
    133 O         -22.1862   24.3955   -4.6160 O.2       2 ALA2        0.0000 
    134 O         -23.1364   25.5320   -4.8519 O.2       2 ALA2        0.0000 
    135 CZ        -16.6913   15.4859   -2.9054 C.ar      4 PHE5        0.0000 
    136 N         -17.6414   16.6224   -3.1413 N.2       2 ALA2        0.0000 
    137 N         -18.5915   17.7589   -3.3772 N.2       2 ALA2        0.0000 
    138 N         -19.5417   18.8954   -3.6131 N.2       2 ALA2        0.0000 
    139 CA        -20.4918   20.0319   -3.8489 C.3       5 GLY6        0.0000 
    140 CA        -21.4419   21.1684   -4.0848 C.3       5 GLY6        0.0000 
    141 N         -22.3921   22.3049   -4.3207 N.2       2 ALA2        0.0000 
    142 O         -23.3422   23.4414   -4.5566 O.2       2 ALA2        0.0000 
@<TRIPOS>BOND
@<TRIPOS>SUBSTRUCTURE
     1 SER1       17 GROUP   
     2 ALA2        1 GROUP   
     3 LYS4       36 GROUP   
     4 PHE5       39 GROUP   
     5 GLY6       11 GROUP   
     6 CUB7       19 GROUP   
@<TRIPOS>SET

