#    Name: 3k5f_AYH_3_INTS_M
#    Modification time : Mon Mar 24 18:24:43 2014

@<TRIPOS>MOLECULE
3k5f_AYH_3_INTS_M
   85     0     9     0     0
SMALL
NO_CHARGES


@<TRIPOS>ATOM
      1 O         -21.2380   17.7880   -0.1650 O.2       1 ALC1        0.0000 
      2 O         -22.0180   17.4010   -1.4310 O.2       7 ALL1        0.0000 
      3 O         -20.4580   18.1750    1.1010 O.2       4 ALP1        0.0000 
      4 CA        -22.8245   15.3415   -3.3130 C.3       3 GLC5        0.0000 
      5 CA        -22.3660   15.9990   -1.5680 C.3       9 GLL5        0.0000 
      6 CA        -23.2830   14.6840   -5.0580 C.3       6 GLP5        0.0000 
      7 CA        -23.4905   14.1485   -2.1500 C.3       3 GLC5        0.0000 
      8 CA        -23.6440   15.5870   -0.8230 C.3       9 GLL5        0.0000 
      9 CA        -23.3370   12.7100   -3.4770 C.3       6 GLP5        0.0000 
     10 N         -22.8720   15.0275    1.5435 N.am      2 SEC2        0.0000 
     11 N         -23.4190   15.6650    0.5990 N.am      8 SEL2        0.0000 
     12 N         -22.3250   14.3900    2.4880 N.am      5 SEP2        0.0000 
     13 O         -24.1345   16.5960    1.2620 O.2       1 ALC1        0.0000 
     14 O         -23.4190   15.6650    0.5990 O.2       7 ALL1        0.0000 
     15 O         -24.8500   17.5270    1.9250 O.2       4 ALP1        0.0000 
     16 CA        -25.2980   17.7945   -2.9350 C.3       3 GLC5        0.0000 
     17 CA        -24.8360   16.4980   -1.2170 C.3       9 GLL5        0.0000 
     18 CA        -25.7600   19.0910   -4.6530 C.3       6 GLP5        0.0000 
     19 CA        -26.0480   14.8115    1.1000 C.3       3 GLC5        0.0000 
     20 CA        -26.1260   15.7290   -0.8930 C.3       9 GLL5        0.0000 
     21 CA        -25.9700   13.8940    3.0930 C.3       6 GLP5        0.0000 
     22 CA        -28.7110   15.1995   -0.1650 C.3       3 GLC5        0.0000 
     23 CA        -27.3090   16.6730   -0.7670 C.3       9 GLL5        0.0000 
     24 CA        -30.1130   13.7260    0.4370 C.3       6 GLP5        0.0000 
     25 CA        -28.4420   16.9700    0.8175 C.3       3 GLC5        0.0000 
     26 CA        -29.5750   17.2670    2.4020 C.3       6 GLP5        0.0000 
     27 N         -25.7945   15.9410   -4.3460 N.am      2 SEC2        0.0000 
     28 N         -26.2560   15.0820   -3.1920 N.am      8 SEL2        0.0000 
     29 N         -25.3330   16.8000   -5.5000 N.am      5 SEP2        0.0000 
     30 O         -26.9415   13.2550   -0.2875 O.2       1 ALC1        0.0000 
     31 O         -26.9890   13.5820   -1.6860 O.2       7 ALL1        0.0000 
     32 O         -26.8940   12.9280    1.1110 O.2       4 ALP1        0.0000 
     33 CA        -25.3485   12.6710   -3.1010 C.3       3 GLC5        0.0000 
     34 CA        -27.3600   12.6320   -2.7250 C.3       9 GLL5        0.0000 
     35 CA        -26.1405   10.9250   -0.9180 C.3       3 GLC5        0.0000 
     36 CA        -27.7550   11.2830   -2.0640 C.3       9 GLL5        0.0000 
     37 CA        -24.5260   10.5670    0.2280 C.3       6 GLP5        0.0000 
     38 CA        -28.7975   10.6685   -0.3725 C.3       3 GLC5        0.0000 
     39 CA        -29.8400   10.0540    1.3190 C.3       6 GLP5        0.0000 
     40 CA        -29.8485    9.4500   -1.6585 C.3       3 GLC5        0.0000 
     41 CA        -28.5280   10.3970   -3.0880 C.3       9 GLL5        0.0000 
     42 CA        -31.1690    8.5030   -0.2290 C.3       6 GLP5        0.0000 
     43 CA        -25.6810    9.4580   -4.8005 C.3       3 GLC5        0.0000 
     44 CA        -27.6030    9.8900   -4.1980 C.3       9 GLL5        0.0000 
     45 CA        -23.7590    9.0260   -5.4030 C.3       6 GLP5        0.0000 
     46 CA        -26.9895    9.8605   -6.3105 C.3       3 GLC5        0.0000 
     47 CA        -26.3760    9.8310   -8.4230 C.3       6 GLP5        0.0000 
     48 CA        -27.6155    7.9370   -5.0840 C.3       3 GLC5        0.0000 
     49 CA        -27.6280    5.9840   -5.9700 C.3       6 GLP5        0.0000 
     50 CA        -22.2635   13.9055   -2.3140 C.3       3 GLC5        0.0000 
     51 CA        -21.1900   15.1010   -1.1510 C.3       9 GLL5        0.0000 
     52 CA        -21.5460   15.1995   -4.1410 C.3       3 GLC5        0.0000 
     53 CA        -19.8090   15.7150   -3.2240 C.3       9 GLL5        0.0000 
     54 N         -23.0865   18.0365   -5.0000 N.am      2 SEC2        0.0000 
     55 N         -22.8350   17.8110   -3.5090 N.am      8 SEL2        0.0000 
     56 N         -23.3380   18.2620   -6.4910 N.am      5 SEP2        0.0000 
     57 CA        -21.8890   20.0150   -0.1905 C.3       3 GLC5        0.0000 
     58 CA        -21.8690   19.6670   -2.3140 C.3       9 GLL5        0.0000 
     59 CA        -21.9090   20.3630    1.9330 C.3       6 GLP5        0.0000 
     60 CA        -22.7825   22.0570   -1.0165 C.3       3 GLC5        0.0000 
     61 CA        -22.0030   22.0770   -3.0900 C.3       9 GLL5        0.0000 
     62 CA        -23.5620   22.0370    1.0570 C.3       6 GLP5        0.0000 
     63 CA        -24.1315   19.8620   -3.9990 C.3       3 GLC5        0.0000 
     64 CA        -22.5030   20.6330   -3.3450 C.3       9 GLL5        0.0000 
     65 N         -19.4390   21.8000    1.3010 N.am      2 SEC2        0.0000 
     66 N         -18.4130   21.3270    0.3230 N.am      8 SEL2        0.0000 
     67 N         -20.4650   22.2730    2.2790 N.am      5 SEP2        0.0000 
     68 N         -18.0085   22.2255    1.2075 N.am      2 SEC2        0.0000 
     69 N         -17.6040   23.1240    2.0920 N.am      5 SEP2        0.0000 
     70 CA        -15.2040   20.0590    0.9420 C.3       3 GLC5        0.0000 
     71 CA        -17.2060   19.3440    0.7810 C.3       9 GLL5        0.0000 
     72 CA        -13.2020   20.7740    1.1030 C.3       6 GLP5        0.0000 
     73 CA        -16.1105   19.0170    2.2435 C.3       3 GLC5        0.0000 
     74 CA        -15.0150   18.6900    3.7060 C.3       6 GLP5        0.0000 
     75 CA        -16.4180   17.3895    1.2510 C.3       3 GLC5        0.0000 
     76 CA        -15.6300   15.4350    1.7210 C.3       6 GLP5        0.0000 
     77 CA        -28.8352   12.8418   -0.9788 C.3       3 GLC5        0.0000 
     78 CA        -16.8970   15.7625    0.1948 C.3       3 GLC5        0.0000 
     79 CA        -18.7620   15.8800   -1.0330 C.3       9 GLL5        0.0000 
     80 CA        -19.4890   13.7089   -0.7914 C.3       3 GLC5        0.0000 
     81 CA        -19.3290   11.8080   -0.3230 C.3       6 GLP5        0.0000 
     82 CA        -21.3477   20.9685   -4.9660 C.3       3 GLC5        0.0000 
     83 CA        -20.4660   22.1390   -3.2500 C.3       9 GLL5        0.0000 
     84 CA        -21.4610   19.8290   -6.7620 C.3       6 GLP5        0.0000 
     85 CA        -21.6277   19.9943   -4.8101 C.3       3 GLC5        0.0000 
@<TRIPOS>BOND
@<TRIPOS>SUBSTRUCTURE
     1 ALC1        1 GROUP        1 X    ALC  0     ROOT ALC X 1
     2 SEC2       10 GROUP        1 X    SEC  0     **** SEC X 2
     3 GLC5        4 GROUP        1 X    GLC  0     **** GLC X 6
     4 ALP1        3 GROUP        1 Y    ALP  0     ROOT ALP Y 8
     5 SEP2       12 GROUP        1 Y    SEP  0     **** SEP Y 9
     6 GLP5        6 GROUP        1 Y    GLP  0     **** GLP Y 13
     7 ALL1        2 GROUP        1 Z    ALL  0     ROOT ALL Z 15
     8 SEL2       11 GROUP        1 Z    SEL  0     **** SEL Z 16
     9 GLL5        5 GROUP        1 Z    GLL  0     **** GLL Z 20
@<TRIPOS>SET

