#    Name: 3k5f_AYH_3_ligand
#    Modification time : Mon Mar 24 18:24:43 2014

@<TRIPOS>MOLECULE
3k5f_AYH_3_ligand
   83    84     1     0     0
SMALL
NO_CHARGES


@<TRIPOS>ATOM
      1 N1        -22.0180   17.4010   -1.4310 N.am      1 AYH387      0.0000 
      2 C3        -22.3660   15.9990   -1.5680 C.3       1 AYH387      0.0000 
      3 C5        -23.6440   15.5870   -0.8230 C.3       1 AYH387      0.0000 
      4 O7        -23.4190   15.6650    0.5990 O.3       1 AYH387      0.0000 
      5 C9        -24.8360   16.4980   -1.2170 C.3       1 AYH387      0.0000 
      6 C12       -26.1260   15.7290   -0.8930 C.3       1 AYH387      0.0000 
      7 C14       -27.3090   16.6730   -0.7670 C.3       1 AYH387      0.0000 
      8 C18       -26.4670   14.7640   -2.0320 C.2       1 AYH387      0.0000 
      9 O19       -26.2560   15.0820   -3.1920 O.2       1 AYH387      0.0000 
     10 N20       -26.9890   13.5820   -1.6860 N.am      1 AYH387      0.0000 
     11 C22       -27.3600   12.6320   -2.7250 C.3       1 AYH387      0.0000 
     12 C25       -27.7550   11.2830   -2.0640 C.3       1 AYH387      0.0000 
     13 C28       -28.5280   10.3970   -3.0880 C.3       1 AYH387      0.0000 
     14 C31       -27.6030    9.8900   -4.1980 C.3       1 AYH387      0.0000 
     15 C35       -21.1900   15.1010   -1.1510 C.3       1 AYH387      0.0000 
     16 C38       -19.8820   15.5780   -1.8220 C.ar      1 AYH387      0.0000 
     17 C39       -19.8090   15.7150   -3.2240 C.ar      1 AYH387      0.0000 
     18 C41       -18.6030   16.1540   -3.8300 C.ar      1 AYH387      0.0000 
     19 C43       -17.4700   16.4460   -3.0280 C.ar      1 AYH387      0.0000 
     20 C45       -17.5660   16.3000   -1.6300 C.ar      1 AYH387      0.0000 
     21 C47       -18.7620   15.8800   -1.0330 C.ar      1 AYH387      0.0000 
     22 C49       -22.2870   18.2100   -2.4810 C.2       1 AYH387      0.0000 
     23 O50       -22.8350   17.8110   -3.5090 O.2       1 AYH387      0.0000 
     24 C51       -21.8690   19.6670   -2.3140 C.3       1 AYH387      0.0000 
     25 C53       -20.3030   19.7050   -2.4290 C.3       1 AYH387      0.0000 
     26 C56       -19.7540   21.1490   -2.2540 C.3       1 AYH387      0.0000 
     27 C58       -20.4660   22.1390   -3.2500 C.3       1 AYH387      0.0000 
     28 C61       -22.0030   22.0770   -3.0900 C.3       1 AYH387      0.0000 
     29 C64       -22.5030   20.6330   -3.3450 C.3       1 AYH387      0.0000 
     30 C67       -18.1800   21.1550   -2.4330 C.3       1 AYH387      0.0000 
     31 N68       -17.6020   20.2000   -1.4730 N.am      1 AYH387      0.0000 
     32 C70       -17.7940   20.3800   -0.1430 C.2       1 AYH387      0.0000 
     33 O71       -18.4130   21.3270    0.3230 O.2       1 AYH387      0.0000 
     34 C72       -17.2060   19.3440    0.7810 C.3       1 AYH387      0.0000 
     35 C76       -17.7310   20.7100   -3.8560 C.3       1 AYH387      0.0000 
     36 C80       -17.6060   22.5780   -2.2320 C.3       1 AYH387      0.0000 
     37 H         -21.5962   17.7122   -0.5726 H         1 AYH387      0.0000 
     38 H         -22.5444   15.7726   -2.6476 H         1 AYH387      0.0000 
     39 H         -23.8924   14.5759   -1.1162 H         1 AYH387      0.0000 
     40 H         -24.7904   16.7010   -2.2672 H         1 AYH387      0.0000 
     41 H         -24.7965   17.3977   -0.6380 H         1 AYH387      0.0000 
     42 H         -26.0104   15.1783    0.0046 H         1 AYH387      0.0000 
     43 H         -27.1472   13.2977   -0.7155 H         1 AYH387      0.0000 
     44 H         -26.5321   12.4371   -3.4028 H         1 AYH387      0.0000 
     45 H         -28.2154   12.9809   -3.2990 H         1 AYH387      0.0000 
     46 H         -28.3921   11.4761   -1.2155 H         1 AYH387      0.0000 
     47 H         -26.8617   10.7639   -1.7545 H         1 AYH387      0.0000 
     48 H         -29.3289   10.9904   -3.5226 H         1 AYH387      0.0000 
     49 H         -28.9588    9.5515   -2.5570 H         1 AYH387      0.0000 
     50 H         -21.3917   14.0803   -1.4557 H         1 AYH387      0.0000 
     51 H         -21.0704   15.1425   -0.0743 H         1 AYH387      0.0000 
     52 H         -20.6190   15.5000   -3.8044 H         1 AYH387      0.0000 
     53 H         -18.5513   16.2595   -4.8425 H         1 AYH387      0.0000 
     54 H         -16.6059   16.7549   -3.4586 H         1 AYH387      0.0000 
     55 H         -16.7459   16.5051   -1.0431 H         1 AYH387      0.0000 
     56 H         -18.8199   15.7924   -0.0109 H         1 AYH387      0.0000 
     57 H         -22.1144   19.9946   -1.3164 H         1 AYH387      0.0000 
     58 H         -20.0188   19.3307   -3.4058 H         1 AYH387      0.0000 
     59 H         -19.8841   19.0678   -1.6586 H         1 AYH387      0.0000 
     60 H         -19.9710   21.4723   -1.2441 H         1 AYH387      0.0000 
     61 H         -20.1957   21.8608   -4.2606 H         1 AYH387      0.0000 
     62 H         -20.1204   23.1431   -3.0399 H         1 AYH387      0.0000 
     63 H         -22.4627   22.7426   -3.8065 H         1 AYH387      0.0000 
     64 H         -22.2685   22.3713   -2.0847 H         1 AYH387      0.0000 
     65 H         -23.5778   20.6066   -3.2422 H         1 AYH387      0.0000 
     66 H         -22.2152   20.3287   -4.3405 H         1 AYH387      0.0000 
     67 H         -17.0666   19.4215   -1.8595 H         1 AYH387      0.0000 
     68 H         -27.1726   17.3442   -0.0384 H         1 AYH387      0.0000 
     69 H         -27.4671   17.1850   -1.6113 H         1 AYH387      0.0000 
     70 H         -28.1551   16.1824   -0.5589 H         1 AYH387      0.0000 
     71 H         -27.1884   10.6431   -4.7089 H         1 AYH387      0.0000 
     72 H         -26.8545    9.3360   -3.8335 H         1 AYH387      0.0000 
     73 H         -28.0930    9.3220   -4.8593 H         1 AYH387      0.0000 
     74 H         -16.2124   19.2826    0.6858 H         1 AYH387      0.0000 
     75 H         -17.3963   19.5514    1.7406 H         1 AYH387      0.0000 
     76 H         -17.5747   18.4324    0.5995 H         1 AYH387      0.0000 
     77 H         -16.7356   20.7198   -3.9514 H         1 AYH387      0.0000 
     78 H         -18.0367   19.7819   -4.0686 H         1 AYH387      0.0000 
     79 H         -18.0995   21.3098   -4.5662 H         1 AYH387      0.0000 
     80 H         -16.6121   22.5964   -2.3409 H         1 AYH387      0.0000 
     81 H         -17.9851   23.2279   -2.8908 H         1 AYH387      0.0000 
     82 H         -17.8075   22.9343   -1.3196 H         1 AYH387      0.0000 
     83 H         -24.0348   16.3848    0.9192 H         1 AYH387      0.0000 
@<TRIPOS>BOND
     1    2    1 1    
     2   22    1 am   
     3   37    1 1    
     4    3    2 1    
     5   15    2 1    
     6   38    2 1    
     7    4    3 1    
     8    5    3 1    
     9   39    3 1    
    10   83    4 1    
    11    6    5 1    
    12   40    5 1    
    13   41    5 1    
    14    7    6 1    
    15    8    6 1    
    16   42    6 1    
    17   68    7 1    
    18   69    7 1    
    19   70    7 1    
    20    9    8 2    
    21   10    8 am   
    22   11   10 1    
    23   43   10 1    
    24   12   11 1    
    25   44   11 1    
    26   45   11 1    
    27   13   12 1    
    28   46   12 1    
    29   47   12 1    
    30   14   13 1    
    31   48   13 1    
    32   49   13 1    
    33   71   14 1    
    34   72   14 1    
    35   73   14 1    
    36   16   15 1    
    37   50   15 1    
    38   51   15 1    
    39   17   16 ar   
    40   21   16 ar   
    41   18   17 ar   
    42   52   17 1    
    43   19   18 ar   
    44   53   18 1    
    45   20   19 ar   
    46   54   19 1    
    47   21   20 ar   
    48   55   20 1    
    49   56   21 1    
    50   23   22 2    
    51   24   22 1    
    52   25   24 1    
    53   29   24 1    
    54   57   24 1    
    55   26   25 1    
    56   58   25 1    
    57   59   25 1    
    58   27   26 1    
    59   30   26 1    
    60   60   26 1    
    61   28   27 1    
    62   61   27 1    
    63   62   27 1    
    64   29   28 1    
    65   63   28 1    
    66   64   28 1    
    67   65   29 1    
    68   66   29 1    
    69   31   30 1    
    70   35   30 1    
    71   36   30 1    
    72   32   31 am   
    73   67   31 1    
    74   33   32 2    
    75   34   32 1    
    76   74   34 1    
    77   75   34 1    
    78   76   34 1    
    79   77   35 1    
    80   78   35 1    
    81   79   35 1    
    82   80   36 1    
    83   81   36 1    
    84   82   36 1    
@<TRIPOS>SUBSTRUCTURE
     1 AYH387      1 GROUP   
@<TRIPOS>SET

