#    Name: 3bbd_SAH_2_INTS_M
#    Modification time : Mon Mar 24 19:13:45 2014

@<TRIPOS>MOLECULE
3bbd_SAH_2_INTS_M
   67     0    12     0     0
SMALL
NO_CHARGES


@<TRIPOS>ATOM
      1 O          20.7780   63.8435   27.8120 O.2       1 ALC1        0.0000 
      2 O          22.1470   64.0270   27.7600 O.2       9 ALL1        0.0000 
      3 O          19.4090   63.6600   27.8640 O.2       5 ALP1        0.0000 
      4 NZ         21.5125   68.4900   27.8700 N.4       3 LYC4        0.0000 
      5 NZ         21.2120   66.6710   27.7070 N.4      11 LYL4        0.0000 
      6 NZ         21.8130   70.3090   28.0330 N.4       7 LYP4        0.0000 
      7 NZ         22.2000   68.8035   27.1290 N.4       3 LYC4        0.0000 
      8 NZ         22.5870   67.2980   26.2250 N.4      11 LYL4        0.0000 
      9 CA         26.7765   59.9545   25.7415 C.3       4 GLC5        0.0000 
     10 CA         25.2520   61.2540   25.6950 C.3      12 GLL5        0.0000 
     11 CA         28.3010   58.6550   25.7880 C.3       8 GLP5        0.0000 
     12 N          24.4485   59.2110   27.2335 N.am      2 SEC2        0.0000 
     13 N          23.6600   60.6680   27.4260 N.am     10 SEL2        0.0000 
     14 N          25.2370   57.7540   27.0410 N.am      6 SEP2        0.0000 
     15 CA         25.8555   62.4830   29.7915 C.3       4 GLC5        0.0000 
     16 CA         25.7970   61.5720   27.9540 C.3      12 GLL5        0.0000 
     17 CA         25.9140   63.3940   31.6290 C.3       8 GLP5        0.0000 
     18 N          25.6190   58.9845   27.6495 N.am      2 SEC2        0.0000 
     19 N          26.0010   60.2150   28.2580 N.am     10 SEL2        0.0000 
     20 O          26.0905   60.4555   29.5625 O.2       1 ALC1        0.0000 
     21 O          26.0010   60.2150   28.2580 O.2       9 ALL1        0.0000 
     22 O          26.1800   60.6960   30.8670 O.2       5 ALP1        0.0000 
     23 CA         28.6030   62.6315   26.3725 C.3       4 GLC5        0.0000 
     24 CA         26.9080   62.1230   27.0740 C.3      12 GLL5        0.0000 
     25 CA         30.2980   63.1400   25.6710 C.3       8 GLP5        0.0000 
     26 N          27.3370   66.7375   25.8090 N.am      2 SEC2        0.0000 
     27 N          27.1450   65.7770   26.9390 N.am     10 SEL2        0.0000 
     28 N          27.5290   67.6980   24.6790 N.am      6 SEP2        0.0000 
     29 CA         26.8750   66.7820   28.9800 C.3       4 GLC5        0.0000 
     30 CA         27.9830   65.5470   27.9630 C.3      12 GLL5        0.0000 
     31 CA         25.7670   68.0170   29.9970 C.3       8 GLP5        0.0000 
     32 CA         28.8675   66.1670   26.0385 C.3       4 GLC5        0.0000 
     33 CA         29.7520   66.7870   24.1140 C.3       8 GLP5        0.0000 
     34 CA         27.5150   66.7905   29.9675 C.3       4 GLC5        0.0000 
     35 CA         28.7480   66.4020   28.7530 C.3      12 GLL5        0.0000 
     36 CA         26.2820   67.1790   31.1820 C.3       8 GLP5        0.0000 
     37 O          29.2675   68.8220   29.4340 O.2       1 ALC1        0.0000 
     38 O          28.7320   67.7170   28.5590 O.2       9 ALL1        0.0000 
     39 O          29.8030   69.9270   30.3090 O.2       5 ALP1        0.0000 
     40 O          28.5345   68.7740   27.8875 O.2       1 ALC1        0.0000 
     41 O          28.3370   69.8310   27.2160 O.2       5 ALP1        0.0000 
     42 N          30.8755   66.0560   30.7880 N.am      2 SEC2        0.0000 
     43 N          29.5340   65.8780   29.7580 N.am     10 SEL2        0.0000 
     44 N          32.2170   66.2340   31.8180 N.am      6 SEP2        0.0000 
     45 CA         29.4280   62.4280   30.2510 C.3       4 GLC5        0.0000 
     46 CA         29.5620   64.5080   29.9670 C.3      12 GLL5        0.0000 
     47 CA         29.2940   60.3480   30.5350 C.3       8 GLP5        0.0000 
     48 CA         27.7380   63.9510   30.7980 C.3       4 GLC5        0.0000 
     49 CA         27.9220   65.8435   30.5745 C.3       4 GLC5        0.0000 
     50 CA         29.9990   65.2120   31.6995 C.3       4 GLC5        0.0000 
     51 CA         30.4360   65.9160   33.4320 C.3       8 GLP5        0.0000 
     52 CA         31.4550   64.6875   29.7320 C.3       4 GLC5        0.0000 
     53 CA         33.3480   64.8670   29.4970 C.3       8 GLP5        0.0000 
     54 CA         26.9685   63.7825   29.9050 C.3       4 GLC5        0.0000 
     55 CA         28.0230   64.1710   28.1810 C.3      12 GLL5        0.0000 
     56 CA         21.1157   62.0735   25.5263 C.3       4 GLC5        0.0000 
     57 CA         22.4200   63.1900   24.7090 C.3      12 GLL5        0.0000 
     58 CA         20.1440   60.3470   26.0290 C.3       8 GLP5        0.0000 
     59 CA         20.1782   63.8165   24.1818 C.3       4 GLC5        0.0000 
     60 CA         18.2690   63.8330   23.3400 C.3       8 GLP5        0.0000 
     61 CA         25.9360   60.5463   23.6538 C.3       4 GLC5        0.0000 
     62 CA         27.0480   59.6400   22.2070 C.3       8 GLP5        0.0000 
     63 CA         24.3505   59.5624   26.1854 C.3       4 GLC5        0.0000 
     64 CA         24.3960   61.6510   24.5060 C.3      12 GLL5        0.0000 
     65 CA         23.9790   57.5990   26.3040 C.3       8 GLP5        0.0000 
     66 CA         27.3268   60.2512   26.6510 C.3       4 GLC5        0.0000 
     67 CA         29.1505   63.9995   26.8715 C.3       4 GLC5        0.0000 
@<TRIPOS>BOND
@<TRIPOS>SUBSTRUCTURE
     1 ALC1        1 GROUP        1 X    ALC  0     ROOT ALC X 1
     2 SEC2       12 GROUP        1 X    SEC  0     **** SEC X 2
     3 LYC4        4 GROUP        1 X    LYC  0     **** LYC X 4
     4 GLC5        9 GROUP        1 X    GLC  0     **** GLC X 6
     5 ALP1        3 GROUP        1 Y    ALP  0     ROOT ALP Y 8
     6 SEP2       14 GROUP        1 Y    SEP  0     **** SEP Y 9
     7 LYP4        6 GROUP        1 Y    LYP  0     **** LYP Y 11
     8 GLP5       11 GROUP        1 Y    GLP  0     **** GLP Y 13
     9 ALL1        2 GROUP        1 Z    ALL  0     ROOT ALL Z 15
    10 SEL2       13 GROUP        1 Z    SEL  0     **** SEL Z 16
    11 LYL4        5 GROUP        1 Z    LYL  0     **** LYL Z 18
    12 GLL5       10 GROUP        1 Z    GLL  0     **** GLL Z 20
@<TRIPOS>SET

