#    Name: 3bbd_SAH_2_ligand
#    Modification time : Mon Mar 24 19:13:45 2014

@<TRIPOS>MOLECULE
3bbd_SAH_2_ligand
   46    48     1     0     0
SMALL
NO_CHARGES


@<TRIPOS>ATOM
      1 N          22.1470   64.0270   27.7600 N.4       1 SAH207      0.0000 
      2 CA         22.4450   64.9200   26.5990 C.3       1 SAH207      0.0000 
      3 CB         21.7550   64.4100   25.3380 C.3       1 SAH207      0.0000 
      4 CG         22.4200   63.1900   24.7090 C.3       1 SAH207      0.0000 
      5 SD         24.1790   63.4300   24.3350 S.3       1 SAH207      0.0000 
      6 C          22.0590   66.3800   26.8600 C.2       1 SAH207      0.0000 
      7 O          21.2120   66.6710   27.7070 O.co2     1 SAH207      0.0000 
      8 OXT        22.5870   67.2980   26.2250 O.co2     1 SAH207      0.0000 
      9 C5'        24.3960   61.6510   24.5060 C.3       1 SAH207      0.0000 
     10 C4'        25.2520   61.2540   25.6950 C.3       1 SAH207      0.0000 
     11 O4'        26.5140   61.8950   25.7190 O.3       1 SAH207      0.0000 
     12 C3'        24.6200   61.5990   27.0330 C.3       1 SAH207      0.0000 
     13 O3'        23.6600   60.6680   27.4260 O.3       1 SAH207      0.0000 
     14 C2'        25.7970   61.5720   27.9540 C.3       1 SAH207      0.0000 
     15 O2'        26.0010   60.2150   28.2580 O.3       1 SAH207      0.0000 
     16 C1'        26.9080   62.1230   27.0740 C.3       1 SAH207      0.0000 
     17 N9         27.1770   63.5780   27.2640 N.pl3     1 SAH207      0.0000 
     18 C8         26.6550   64.5980   26.5040 C.2       1 SAH207      0.0000 
     19 N7         27.1450   65.7770   26.9390 N.2       1 SAH207      0.0000 
     20 C5         27.9830   65.5470   27.9630 C.ar      1 SAH207      0.0000 
     21 C6         28.7480   66.4020   28.7530 C.ar      1 SAH207      0.0000 
     22 N6         28.7320   67.7170   28.5590 N.pl3     1 SAH207      0.0000 
     23 N1         29.5340   65.8780   29.7580 N.ar      1 SAH207      0.0000 
     24 C2         29.5620   64.5080   29.9670 C.ar      1 SAH207      0.0000 
     25 N3         28.8010   63.6610   29.1760 N.ar      1 SAH207      0.0000 
     26 C4         28.0230   64.1710   28.1810 C.ar      1 SAH207      0.0000 
     27 H          23.5284   64.8960   26.4058 H         1 SAH207      0.0000 
     28 H          21.7241   65.2245   24.5929 H         1 SAH207      0.0000 
     29 H          20.7066   64.1611   25.5797 H         1 SAH207      0.0000 
     30 H          22.0151   62.9293   23.7449 H         1 SAH207      0.0000 
     31 H          22.4398   62.3294   25.3573 H         1 SAH207      0.0000 
     32 H          24.8274   61.3769   23.5555 H         1 SAH207      0.0000 
     33 H          23.3783   61.2979   24.5723 H         1 SAH207      0.0000 
     34 H          25.3895   60.1674   25.6853 H         1 SAH207      0.0000 
     35 H          24.2669   62.6036   26.9761 H         1 SAH207      0.0000 
     36 H          25.6274   62.1933   28.7564 H         1 SAH207      0.0000 
     37 H          27.8128   61.5580   27.2855 H         1 SAH207      0.0000 
     38 H          26.0334   64.4739   25.7734 H         1 SAH207      0.0000 
     39 H          28.5251   68.0222   27.6294 H         1 SAH207      0.0000 
     40 H          28.9283   68.2824   29.3602 H         1 SAH207      0.0000 
     41 H          30.1537   64.1154   30.7170 H         1 SAH207      0.0000 
     42 H          22.4605   63.0912   27.5988 H         1 SAH207      0.0000 
     43 H          22.5921   64.3451   28.5971 H         1 SAH207      0.0000 
     44 H          21.1663   63.9790   27.9495 H         1 SAH207      0.0000 
     45 H          24.1599   59.9957   27.9720 H         1 SAH207      0.0000 
     46 H          26.0783   60.1819   29.2545 H         1 SAH207      0.0000 
@<TRIPOS>BOND
     1    2    1 1    
     2   42    1 1    
     3   43    1 1    
     4   44    1 1    
     5    3    2 1    
     6    6    2 1    
     7   27    2 1    
     8    4    3 1    
     9   28    3 1    
    10   29    3 1    
    11    5    4 1    
    12   30    4 1    
    13   31    4 1    
    14    9    5 1    
    15    7    6 ar   
    16    8    6 ar   
    17   10    9 1    
    18   32    9 1    
    19   33    9 1    
    20   11   10 1    
    21   12   10 1    
    22   34   10 1    
    23   16   11 1    
    24   13   12 1    
    25   14   12 1    
    26   35   12 1    
    27   45   13 1    
    28   15   14 1    
    29   16   14 1    
    30   36   14 1    
    31   46   15 1    
    32   17   16 1    
    33   37   16 1    
    34   18   17 1    
    35   26   17 1    
    36   19   18 2    
    37   38   18 1    
    38   20   19 1    
    39   21   20 ar   
    40   26   20 ar   
    41   22   21 1    
    42   23   21 ar   
    43   39   22 1    
    44   40   22 1    
    45   24   23 ar   
    46   25   24 ar   
    47   41   24 1    
    48   26   25 ar   
@<TRIPOS>SUBSTRUCTURE
     1 SAH207      1 GROUP   
@<TRIPOS>SET

