#    Name: 3S86_2_CAVITY_N1_6.mol2
#    Modification time : Mon Mar 10 23:06:00 2014

@<TRIPOS>MOLECULE
3S86_2_CAVITY_N1_6.mol2
   68     0     7     0     0
SMALL
NO_CHARGES


@<TRIPOS>ATOM
      1 CZ          3.2169   41.8863  -30.8300 C.ar      5 PHE5        0.0000 
      2 DU          4.1151   40.0930  -30.1391 H         7 CUB7        0.0000 
      3 CZ          2.7051   40.5702  -30.3242 C.ar      5 PHE5        0.0000 
      4 OG          2.1933   39.2541  -29.8183 O.2       1 SER1        0.0000 
      5 CZ          1.8054   42.9021  -29.6151 C.ar      5 PHE5        0.0000 
      6 CA          0.3955   43.3793  -29.8001 C.3       6 GLY6        0.0000 
      7 CA         -1.0145   43.8565  -29.9852 C.3       6 GLY6        0.0000 
      8 O           2.7036   41.1088  -28.9242 O.2       2 ALA2        0.0000 
      9 OG          1.2937   41.5860  -29.1092 O.2       1 SER1        0.0000 
     10 OG         -1.5263   42.5403  -29.4793 O.2       1 SER1        0.0000 
     11 O           3.6019   39.3155  -28.2333 O.2       2 ALA2        0.0000 
     12 O           2.1919   39.7927  -28.4184 O.2       2 ALA2        0.0000 
     13 OG          0.7819   40.2699  -28.6034 O.2       1 SER1        0.0000 
     14 OG         -0.6281   40.7470  -28.7884 O.2       1 SER1        0.0000 
     15 OG         -2.0381   41.2242  -28.9734 O.2       1 SER1        0.0000 
     16 O           1.6801   38.4766  -27.9125 O.2       2 ALA2        0.0000 
     17 CA          0.2701   38.9538  -28.0975 C.3       6 GLY6        0.0000 
     18 CA          1.1683   37.1605  -27.4066 C.3       6 GLY6        0.0000 
     19 CA         -0.5042   45.7112  -29.0911 C.3       6 GLY6        0.0000 
     20 CZ         -1.9142   46.1884  -29.2761 C.ar      5 PHE5        0.0000 
     21 CZ          0.3940   43.9179  -28.4002 C.ar      5 PHE5        0.0000 
     22 CZ         -1.0160   44.3951  -28.5852 C.ar      5 PHE5        0.0000 
     23 CZ         -2.4259   44.8723  -28.7702 C.ar      5 PHE5        0.0000 
     24 O           1.2922   42.1246  -27.7093 O.2       2 ALA2        0.0000 
     25 CZ         -0.1178   42.6018  -27.8943 C.ar      5 PHE5        0.0000 
     26 DU         -1.5277   43.0790  -28.0793 H         7 CUB7        0.0000 
     27 CA         -2.9377   43.5561  -28.2644 C.3       6 GLY6        0.0000 
     28 O           0.7804   40.8085  -27.2034 O.2       2 ALA2        0.0000 
     29 OG         -0.6295   41.2857  -27.3885 O.2       1 SER1        0.0000 
     30 CA         -2.0395   41.7629  -27.5735 C.3       6 GLY6        0.0000 
     31 O           1.6786   39.0152  -26.5125 O.2       2 ALA2        0.0000 
     32 O           0.2687   39.4924  -26.6976 O.2       2 ALA2        0.0000 
     33 CA         -1.1413   39.9696  -26.8826 C.3       6 GLY6        0.0000 
     34 CA         -2.5513   40.4467  -27.0676 C.3       6 GLY6        0.0000 
     35 O           1.1669   37.6991  -26.0067 O.2       2 ALA2        0.0000 
     36 CA         -0.2431   38.1763  -26.1917 C.3       6 GLY6        0.0000 
     37 CA         -0.7549   36.8601  -25.6859 C.3       6 GLY6        0.0000 
     38 CA         -2.1649   37.3373  -25.8709 C.3       6 GLY6        0.0000 
     39 CA         -3.5749   37.8145  -26.0559 C.3       6 GLY6        0.0000 
     40 N           0.0062   47.5660  -28.1970 N.2       2 ALA2        0.0000 
     41 CZ         -1.4038   48.0432  -28.3820 C.ar      5 PHE5        0.0000 
     42 CZ         -0.5056   46.2499  -27.6911 C.ar      5 PHE5        0.0000 
     43 CZ         -1.9156   46.7270  -27.8761 C.ar      5 PHE5        0.0000 
     44 CZ         -1.0174   44.9337  -27.1852 C.ar      5 PHE5        0.0000 
     45 CZ         -2.4274   45.4109  -27.3703 C.ar      5 PHE5        0.0000 
     46 CZ         -3.8374   45.8881  -27.5553 C.ar      5 PHE5        0.0000 
     47 CZ         -0.1192   43.1404  -26.4944 C.ar      5 PHE5        0.0000 
     48 CZ         -1.5292   43.6176  -26.6794 C.ar      5 PHE5        0.0000 
     49 CA         -2.9392   44.0948  -26.8644 C.3       6 GLY6        0.0000 
     50 CA         -0.6310   41.8243  -25.9885 C.3       6 GLY6        0.0000 
     51 N          -2.0410   42.3015  -26.1735 N.2       2 ALA2        0.0000 
     52 N          -3.4510   42.7787  -26.3586 N.2       2 ALA2        0.0000 
     53 O           0.2672   40.0310  -25.2976 O.2       2 ALA2        0.0000 
     54 OD1        -1.1428   40.5082  -25.4826 O.3       3 ASP3        0.0000 
     55 N          -2.5528   40.9854  -25.6677 N.2       2 ALA2        0.0000 
     56 OD1        -0.2446   38.7149  -24.7918 O.3       3 ASP3        0.0000 
     57 OD1        -1.6545   39.1921  -24.9768 O.3       3 ASP3        0.0000 
     58 N          -3.0645   39.6692  -25.1618 N.2       2 ALA2        0.0000 
     59 NZ         -2.1663   37.8759  -24.4709 N.2       4 LYS4        0.0000 
     60 CZ          0.0048   48.1046  -26.7970 C.ar      5 PHE5        0.0000 
     61 CZ         -1.4052   48.5818  -26.9820 C.ar      5 PHE5        0.0000 
     62 CZ         -0.5070   46.7885  -26.2912 C.ar      5 PHE5        0.0000 
     63 CZ         -1.9170   47.2657  -26.4762 C.ar      5 PHE5        0.0000 
     64 CZ         -1.0188   45.4724  -25.7853 C.ar      5 PHE5        0.0000 
     65 N          -2.4288   45.9495  -25.9703 N.2       2 ALA2        0.0000 
     66 CA         -1.5306   44.1562  -25.2794 C.3       6 GLY6        0.0000 
     67 CA         -2.9406   44.6334  -25.4645 C.3       6 GLY6        0.0000 
     68 OD1        -1.6560   39.7307  -23.5768 O.3       3 ASP3        0.0000 
@<TRIPOS>BOND
@<TRIPOS>SUBSTRUCTURE
     1 SER1        4 GROUP   
     2 ALA2        8 GROUP   
     3 ASP3       54 GROUP   
     4 LYS4       59 GROUP   
     5 PHE5        1 GROUP   
     6 GLY6        6 GROUP   
     7 CUB7        2 GROUP   
@<TRIPOS>SET

