#    Name: 3s86_IMP_2_INTS_M
#    Modification time : Tue Mar 25 12:18:18 2014

@<TRIPOS>MOLECULE
3s86_IMP_2_INTS_M
   59     0    12     0     0
SMALL
NO_CHARGES


@<TRIPOS>ATOM
      1 NZ         -0.3475   39.8430  -23.1665 N.4       3 LYC4        0.0000 
      2 NZ         -0.6650   38.6590  -24.3010 N.4      11 LYL4        0.0000 
      3 NZ         -0.0300   41.0270  -22.0320 N.4       7 LYP4        0.0000 
      4 N          -0.3475   39.8430  -23.1665 N.am      2 SEC2        0.0000 
      5 N          -0.6650   38.6590  -24.3010 N.am     10 SEL2        0.0000 
      6 N          -0.0300   41.0270  -22.0320 N.am      6 SEP2        0.0000 
      7 NZ         -1.1910   40.6070  -22.5745 N.4       3 LYC4        0.0000 
      8 NZ         -2.3520   40.1870  -23.1170 N.4      11 LYL4        0.0000 
      9 NZ         -2.0800   39.0085  -21.6735 N.4       3 LYC4        0.0000 
     10 NZ         -1.8080   37.8300  -20.2300 N.4       7 LYP4        0.0000 
     11 N          -1.1910   40.6070  -22.5745 N.am      2 SEC2        0.0000 
     12 N          -2.3520   40.1870  -23.1170 N.am     10 SEL2        0.0000 
     13 N          -3.2875   41.2960  -22.3430 N.am      2 SEC2        0.0000 
     14 N          -4.2230   42.4050  -21.5690 N.am      6 SEP2        0.0000 
     15 CA         -0.3495   41.4875  -24.1690 C.3       4 GLC5        0.0000 
     16 CA         -1.8340   41.2930  -25.7970 C.3      12 GLL5        0.0000 
     17 CA          1.1350   41.6820  -22.5410 C.3       8 GLP5        0.0000 
     18 CA         -2.3340   42.6205  -24.2890 C.3       4 GLC5        0.0000 
     19 CA         -2.8340   43.9480  -22.7810 C.3       8 GLP5        0.0000 
     20 O          -1.4020   41.3205  -30.4045 O.2       1 ALC1        0.0000 
     21 O          -2.3060   41.6900  -29.4850 O.2       9 ALL1        0.0000 
     22 O          -0.4980   40.9510  -31.3240 O.2       5 ALP1        0.0000 
     23 CA          0.6185   43.9195  -27.5535 C.3       4 GLC5        0.0000 
     24 CA         -1.0420   43.0300  -28.2260 C.3      12 GLL5        0.0000 
     25 CA          2.2790   44.8090  -26.8810 C.3       8 GLP5        0.0000 
     26 O          -0.5390   42.1570  -30.4150 O.2       1 ALC1        0.0000 
     27 O          -0.5800   43.3630  -29.5060 O.2       9 ALL1        0.0000 
     28 CA         -4.1445   44.0335  -26.7440 C.3       4 GLC5        0.0000 
     29 CA         -2.3060   43.8070  -27.8130 C.3      12 GLL5        0.0000 
     30 CA         -5.9830   44.2600  -25.6750 C.3       8 GLP5        0.0000 
     31 CA         -3.9560   42.7640  -28.2715 C.3       4 GLC5        0.0000 
     32 CA         -5.6060   41.7210  -28.7300 C.3       8 GLP5        0.0000 
     33 CA         -2.9890   44.4380  -29.6325 C.3       4 GLC5        0.0000 
     34 CA         -3.6720   45.0690  -31.4520 C.3       8 GLP5        0.0000 
     35 N          -1.8955   47.1850  -24.3530 N.am      2 SEC2        0.0000 
     36 N          -1.2620   46.0550  -25.1860 N.am     10 SEL2        0.0000 
     37 N          -2.5290   48.3150  -23.5200 N.am      6 SEP2        0.0000 
     38 N          -0.5650   45.9190  -23.7675 N.am      2 SEC2        0.0000 
     39 N           0.1320   45.7830  -22.3490 N.am      6 SEP2        0.0000 
     40 N           1.3360   49.4590  -25.7780 N.am      2 SEC2        0.0000 
     41 N           0.0660   48.6400  -25.5510 N.am     10 SEL2        0.0000 
     42 N           2.6060   50.2780  -26.0050 N.am      6 SEP2        0.0000 
     43 N           0.6535   48.1880  -24.1540 N.am      2 SEC2        0.0000 
     44 N           1.2410   47.7360  -22.7570 N.am      6 SEP2        0.0000 
     45 O           0.1135   49.5960  -28.3530 O.2       1 ALC1        0.0000 
     46 O          -0.2080   48.4670  -27.7660 O.2       9 ALL1        0.0000 
     47 O           0.4350   50.7250  -28.9400 O.2       5 ALP1        0.0000 
     48 O           1.1580   49.3500  -28.3715 O.2       1 ALC1        0.0000 
     49 O           2.5240   50.2330  -28.9770 O.2       5 ALP1        0.0000 
     50 N          -1.0160   46.5315  -30.3780 N.am      2 SEC2        0.0000 
     51 N          -1.1610   46.4590  -28.6730 N.am     10 SEL2        0.0000 
     52 N          -0.8710   46.6040  -32.0830 N.am      6 SEP2        0.0000 
     53 CA         -3.8188   41.6787  -28.2210 C.3       4 GLC5        0.0000 
     54 CA         -2.5110   41.6410  -27.1250 C.3      12 GLL5        0.0000 
     55 CA         -2.0816   39.7062  -27.9745 C.3       4 GLC5        0.0000 
     56 CA         -2.3010   37.8630  -28.5690 C.3       8 GLP5        0.0000 
     57 CA         -0.6840   41.9965  -30.3317 C.3       4 GLC5        0.0000 
     58 CA         -1.5520   41.6320  -28.2990 C.3      12 GLL5        0.0000 
     59 CA         -0.0710   41.6620  -32.4010 C.3       8 GLP5        0.0000 
@<TRIPOS>BOND
@<TRIPOS>SUBSTRUCTURE
     1 ALC1       20 GROUP        1 X    ALC  0     ROOT ALC X 1
     2 SEC2        4 GROUP        1 X    SEC  0     **** SEC X 2
     3 LYC4        1 GROUP        1 X    LYC  0     **** LYC X 4
     4 GLC5       15 GROUP        1 X    GLC  0     **** GLC X 6
     5 ALP1       22 GROUP        1 Y    ALP  0     ROOT ALP Y 8
     6 SEP2        6 GROUP        1 Y    SEP  0     **** SEP Y 9
     7 LYP4        3 GROUP        1 Y    LYP  0     **** LYP Y 11
     8 GLP5       17 GROUP        1 Y    GLP  0     **** GLP Y 13
     9 ALL1       21 GROUP        1 Z    ALL  0     ROOT ALL Z 15
    10 SEL2        5 GROUP        1 Z    SEL  0     **** SEL Z 16
    11 LYL4        2 GROUP        1 Z    LYL  0     **** LYL Z 18
    12 GLL5       16 GROUP        1 Z    GLL  0     **** GLL Z 20
@<TRIPOS>SET

