#    Name: 3s86_IMP_2_ligand
#    Modification time : Tue Mar 25 12:18:18 2014

@<TRIPOS>MOLECULE
3s86_IMP_2_ligand
   34    36     1     0     0
SMALL
NO_CHARGES


@<TRIPOS>ATOM
      1 P          -2.0900   39.1700  -24.2520 P.3       1 IMP197      0.0000 
      2 O1P        -0.6650   38.6590  -24.3010 O.co2     1 IMP197      0.0000 
      3 O2P        -3.0290   37.9660  -24.2320 O.co2     1 IMP197      0.0000 
      4 O3P        -2.3520   40.1870  -23.1170 O.co2     1 IMP197      0.0000 
      5 O5'        -2.2610   39.9610  -25.6430 O.3       1 IMP197      0.0000 
      6 C5'        -1.8340   41.2930  -25.7970 C.3       1 IMP197      0.0000 
      7 C4'        -2.5110   41.6410  -27.1250 C.3       1 IMP197      0.0000 
      8 O4'        -3.1280   42.9160  -27.1110 O.3       1 IMP197      0.0000 
      9 C3'        -1.5520   41.6320  -28.2990 C.3       1 IMP197      0.0000 
     10 O3'        -2.3060   41.6900  -29.4850 O.3       1 IMP197      0.0000 
     11 C2'        -1.0420   43.0300  -28.2260 C.3       1 IMP197      0.0000 
     12 O2'        -0.5800   43.3630  -29.5060 O.3       1 IMP197      0.0000 
     13 C1'        -2.3060   43.8070  -27.8130 C.3       1 IMP197      0.0000 
     14 N9         -1.8440   44.8630  -26.9330 N.pl3     1 IMP197      0.0000 
     15 C8         -1.7960   44.8970  -25.5810 C.2       1 IMP197      0.0000 
     16 N7         -1.2620   46.0550  -25.1860 N.2       1 IMP197      0.0000 
     17 C5         -0.9640   46.7650  -26.2840 C.2       1 IMP197      0.0000 
     18 C6         -0.4000   48.0210  -26.4870 C.2       1 IMP197      0.0000 
     19 O6          0.0660   48.6400  -25.5510 O.2       1 IMP197      0.0000 
     20 N1         -0.2080   48.4670  -27.7660 N.am      1 IMP197      0.0000 
     21 C2         -0.6020   47.7010  -28.8540 C.2       1 IMP197      0.0000 
     22 N3         -1.1610   46.4590  -28.6730 N.2       1 IMP197      0.0000 
     23 C4         -1.3440   46.0220  -27.4040 C.2       1 IMP197      0.0000 
     24 H          -0.7845   41.3830  -25.9291 H         1 IMP197      0.0000 
     25 H          -2.2179   41.9440  -25.0514 H         1 IMP197      0.0000 
     26 H          -3.2677   40.8664  -27.3294 H         1 IMP197      0.0000 
     27 H          -0.8407   40.9666  -28.2244 H         1 IMP197      0.0000 
     28 H          -0.3359   43.0954  -27.4591 H         1 IMP197      0.0000 
     29 H          -2.7452   44.1943  -28.6859 H         1 IMP197      0.0000 
     30 H          -2.1056   44.1824  -24.9964 H         1 IMP197      0.0000 
     31 H           0.2378   49.3899  -27.9340 H         1 IMP197      0.0000 
     32 H          -0.4705   48.0755  -29.8118 H         1 IMP197      0.0000 
     33 H          -1.6730   41.4127  -30.2078 H         1 IMP197      0.0000 
     34 H          -0.9960   42.6876  -30.1149 H         1 IMP197      0.0000 
@<TRIPOS>BOND
     1    2    1 ar   
     2    3    1 ar   
     3    4    1 ar   
     4    5    1 1    
     5    6    5 1    
     6    7    6 1    
     7   24    6 1    
     8   25    6 1    
     9    8    7 1    
    10    9    7 1    
    11   26    7 1    
    12   13    8 1    
    13   10    9 1    
    14   11    9 1    
    15   27    9 1    
    16   33   10 1    
    17   12   11 1    
    18   13   11 1    
    19   28   11 1    
    20   34   12 1    
    21   14   13 1    
    22   29   13 1    
    23   15   14 1    
    24   23   14 1    
    25   16   15 2    
    26   30   15 1    
    27   17   16 1    
    28   18   17 1    
    29   23   17 2    
    30   19   18 2    
    31   20   18 am   
    32   21   20 1    
    33   31   20 1    
    34   22   21 2    
    35   32   21 1    
    36   23   22 1    
@<TRIPOS>SUBSTRUCTURE
     1 IMP197      1 GROUP   
@<TRIPOS>SET

