#    Name: 1gsz_R71_2_INTS_M
#    Modification time : Tue Mar 25 03:44:55 2014

@<TRIPOS>MOLECULE
1gsz_R71_2_INTS_M
   71     0     3     0     0
SMALL
NO_CHARGES


@<TRIPOS>ATOM
      1 CA         49.3175   20.4485   74.4905 C.3       1 GLC5        0.0000 
      2 CA         48.0200   19.4910   73.0420 C.3       3 GLL5        0.0000 
      3 CA         50.6150   21.4060   75.9390 C.3       2 GLP5        0.0000 
      4 CA         50.1575   19.2605   72.4325 C.3       1 GLC5        0.0000 
      5 CA         52.2950   19.0300   71.8230 C.3       2 GLP5        0.0000 
      6 CA         49.0080   20.8955   72.2655 C.3       1 GLC5        0.0000 
      7 CA         49.9960   22.3000   71.4890 C.3       2 GLP5        0.0000 
      8 CA         47.9850   16.1310   71.6275 C.3       1 GLC5        0.0000 
      9 CA         48.1680   18.1510   71.0910 C.3       3 GLL5        0.0000 
     10 CA         47.8020   14.1110   72.1640 C.3       2 GLP5        0.0000 
     11 CA         47.7320   17.4620   73.1050 C.3       1 GLC5        0.0000 
     12 CA         47.2960   16.7730   75.1190 C.3       2 GLP5        0.0000 
     13 CA         50.2315   18.5905   71.4570 C.3       1 GLC5        0.0000 
     14 CA         50.6215   15.5590   68.2200 C.3       1 GLC5        0.0000 
     15 CA         49.3040   16.3220   66.9100 C.3       3 GLL5        0.0000 
     16 CA         51.9390   14.7960   69.5300 C.3       2 GLP5        0.0000 
     17 CA         50.8775   15.2675   66.1425 C.3       1 GLC5        0.0000 
     18 CA         52.4510   14.2130   65.3750 C.3       2 GLP5        0.0000 
     19 CA         46.7605   17.4040   64.2100 C.3       1 GLC5        0.0000 
     20 CA         48.0840   16.3600   64.6800 C.3       3 GLL5        0.0000 
     21 CA         45.4370   18.4480   63.7400 C.3       2 GLP5        0.0000 
     22 CA         51.0175   15.3060   63.9230 C.3       1 GLC5        0.0000 
     23 CA         49.1780   15.8950   63.7060 C.3       3 GLL5        0.0000 
     24 CA         52.8570   14.7170   64.1400 C.3       2 GLP5        0.0000 
     25 CA         47.6475   17.3675   63.1540 C.3       1 GLC5        0.0000 
     26 CA         46.1170   18.8400   62.6020 C.3       2 GLP5        0.0000 
     27 CA         50.4015   13.6525   63.0360 C.3       1 GLC5        0.0000 
     28 CA         48.7530   14.5770   63.0250 C.3       3 GLL5        0.0000 
     29 CA         52.0500   12.7280   63.0470 C.3       2 GLP5        0.0000 
     30 CA         46.4350   12.0415   61.2775 C.3       1 GLC5        0.0000 
     31 CA         47.3930   13.7990   61.2170 C.3       3 GLL5        0.0000 
     32 CA         45.4770   10.2840   61.3380 C.3       2 GLP5        0.0000 
     33 CA         47.2810   13.4515   59.3510 C.3       1 GLC5        0.0000 
     34 CA         47.1690   13.1040   57.4850 C.3       2 GLP5        0.0000 
     35 CA         51.3415   14.1415   59.6935 C.3       1 GLC5        0.0000 
     36 CA         49.6140   14.5860   60.7770 C.3       3 GLL5        0.0000 
     37 CA         53.0690   13.6970   58.6100 C.3       2 GLP5        0.0000 
     38 CA         51.1370   14.2815   61.8785 C.3       1 GLC5        0.0000 
     39 CA         52.6600   13.9770   62.9800 C.3       2 GLP5        0.0000 
     40 CA         48.7050   18.2910   59.8455 C.3       1 GLC5        0.0000 
     41 CA         50.2180   16.9250   60.1310 C.3       3 GLL5        0.0000 
     42 CA         47.1920   19.6570   59.5600 C.3       2 GLP5        0.0000 
     43 CA         51.6455   17.7230   61.3610 C.3       1 GLC5        0.0000 
     44 CA         53.0730   18.5210   62.5910 C.3       2 GLP5        0.0000 
     45 CA         37.7105   20.1825   72.4265 C.3       1 GLC5        0.0000 
     46 CA         39.0030   19.1630   73.6790 C.3       3 GLL5        0.0000 
     47 CA         36.4180   21.2020   71.1740 C.3       2 GLP5        0.0000 
     48 CA         40.2345   17.1005   73.1125 C.3       1 GLC5        0.0000 
     49 CA         41.7780   18.3800   73.7600 C.3       3 GLL5        0.0000 
     50 CA         38.6910   15.8210   72.4650 C.3       2 GLP5        0.0000 
     51 CA         41.1925   16.9815   75.2155 C.3       1 GLC5        0.0000 
     52 CA         40.6070   15.5830   76.6710 C.3       2 GLP5        0.0000 
     53 CA         44.8590   18.5305   74.2843 C.3       1 GLC5        0.0000 
     54 CA         43.1720   18.5910   73.5250 C.3       3 GLL5        0.0000 
     55 CA         46.3170   17.8690   75.3450 C.3       2 GLP5        0.0000 
     56 CA         46.8395   18.5769   73.8995 C.3       1 GLC5        0.0000 
     57 CA         47.3335   15.7502   70.2570 C.3       1 GLC5        0.0000 
     58 CA         47.5730   17.5630   69.9620 C.3       3 GLL5        0.0000 
     59 CA         47.7900   13.8220   70.6740 C.3       2 GLP5        0.0000 
     60 CA         50.1457   18.5292   66.7090 C.3       1 GLC5        0.0000 
     61 CA         48.6310   17.3750   67.8100 C.3       3 GLL5        0.0000 
     62 CA         51.3240   20.2100   66.0580 C.3       2 GLP5        0.0000 
     63 CA         48.4372   14.1245   58.8792 C.3       1 GLC5        0.0000 
     64 CA         51.1073   15.9047   58.5528 C.3       1 GLC5        0.0000 
     65 CA         49.7970   15.7040   59.7700 C.3       3 GLL5        0.0000 
     66 CA         52.2070   15.4950   57.1550 C.3       2 GLP5        0.0000 
     67 CA         44.1508   16.7385   70.1422 C.3       1 GLC5        0.0000 
     68 CA         46.1810   17.7940   69.7180 C.3       3 GLL5        0.0000 
     69 CA         42.5050   15.2790   70.1220 C.3       2 GLP5        0.0000 
     70 CA         39.3042   17.5495   72.9988 C.3       1 GLC5        0.0000 
     71 CA         40.8320   19.3930   73.3860 C.3       3 GLL5        0.0000 
@<TRIPOS>BOND
@<TRIPOS>SUBSTRUCTURE
     1 GLC5        1 GROUP        1 X    GLC  0     ROOT GLC X 6
     2 GLP5        3 GROUP        1 Y    GLP  0     ROOT GLP Y 13
     3 GLL5        2 GROUP        1 Z    GLL  0     ROOT GLL Z 20
@<TRIPOS>SET

