#    Name: 1gsz_R71_2_ligand
#    Modification time : Tue Mar 25 03:44:55 2014

@<TRIPOS>MOLECULE
1gsz_R71_2_ligand
   54    55     1     0     0
SMALL
NO_CHARGES


@<TRIPOS>ATOM
      1 C8         43.6300   19.7930   72.9220 C.ar      1 R711630     0.0000 
      2 C7         45.1120   20.0510   72.6550 C.2       1 R711630     0.0000 
      3 O21        45.6710   21.0930   73.2840 O.2       1 R711630     0.0000 
      4 C1         46.0050   19.1960   71.7430 C.ar      1 R711630     0.0000 
      5 C6         47.4030   18.9610   71.9890 C.ar      1 R711630     0.0000 
      6 F22        48.0200   19.4910   73.0420 F         1 R711630     0.0000 
      7 C5         48.1680   18.1510   71.0910 C.ar      1 R711630     0.0000 
      8 C4         47.5730   17.5630   69.9620 C.ar      1 R711630     0.0000 
      9 O14        48.3380   16.7780   69.0980 O.3       1 R711630     0.0000 
     10 C15        48.6310   17.3750   67.8100 C.3       1 R711630     0.0000 
     11 C16        49.3040   16.3220   66.9100 C.3       1 R711630     0.0000 
     12 C17        48.2340   15.6390   66.0350 C.3       1 R711630     0.0000 
     13 C18        48.0840   16.3600   64.6800 C.3       1 R711630     0.0000 
     14 C19        49.1780   15.8950   63.7060 C.3       1 R711630     0.0000 
     15 C20        48.7530   14.5770   63.0250 C.3       1 R711630     0.0000 
     16 N24        48.4140   14.7670   61.6120 N.4       1 R711630     0.0000 
     17 C27        47.3930   13.7990   61.2170 C.3       1 R711630     0.0000 
     18 C25        49.6140   14.5860   60.7770 C.3       1 R711630     0.0000 
     19 C26        49.7970   15.7040   59.7700 C.2       1 R711630     0.0000 
     20 C29        50.2180   16.9250   60.1310 C.2       1 R711630     0.0000 
     21 C3         46.1810   17.7940   69.7180 C.ar      1 R711630     0.0000 
     22 C2         45.4120   18.6020   70.6070 C.ar      1 R711630     0.0000 
     23 C13        42.6750   20.7890   72.5640 C.ar      1 R711630     0.0000 
     24 C12        41.2930   20.5860   72.7940 C.ar      1 R711630     0.0000 
     25 C11        40.8320   19.3930   73.3860 C.ar      1 R711630     0.0000 
     26 BR23       39.0030   19.1630   73.6790 Br        1 R711630     0.0000 
     27 C10        41.7780   18.3800   73.7600 C.ar      1 R711630     0.0000 
     28 C9         43.1720   18.5910   73.5250 C.ar      1 R711630     0.0000 
     29 H          49.1651   18.0041   71.2842 H         1 R711630     0.0000 
     30 H          49.3138   18.2182   67.9062 H         1 R711630     0.0000 
     31 H          47.7239   17.7118   67.3098 H         1 R711630     0.0000 
     32 H          49.7859   15.5793   67.5278 H         1 R711630     0.0000 
     33 H          50.0285   16.8068   66.2731 H         1 R711630     0.0000 
     34 H          47.2810   15.6597   66.5565 H         1 R711630     0.0000 
     35 H          48.5238   14.6067   65.8587 H         1 R711630     0.0000 
     36 H          48.1724   17.4289   64.8350 H         1 R711630     0.0000 
     37 H          47.1106   16.1312   64.2620 H         1 R711630     0.0000 
     38 H          50.0986   15.7313   64.2516 H         1 R711630     0.0000 
     39 H          49.3296   16.6528   62.9479 H         1 R711630     0.0000 
     40 H          47.8945   14.1731   63.5826 H         1 R711630     0.0000 
     41 H          49.5805   13.8602   63.1360 H         1 R711630     0.0000 
     42 H          48.0309   15.7713   61.4673 H         1 R711630     0.0000 
     43 H          49.5564   13.6288   60.2302 H         1 R711630     0.0000 
     44 H          50.5155   14.5362   61.4120 H         1 R711630     0.0000 
     45 H          49.5715   15.4442   58.7956 H         1 R711630     0.0000 
     46 H          45.7376   17.3758   68.9003 H         1 R711630     0.0000 
     47 H          44.4164   18.7499   70.4136 H         1 R711630     0.0000 
     48 H          42.9973   21.6616   72.1349 H         1 R711630     0.0000 
     49 H          40.6237   21.3150   72.5265 H         1 R711630     0.0000 
     50 H          41.4564   17.5210   74.1881 H         1 R711630     0.0000 
     51 H          43.8418   17.8688   73.7944 H         1 R711630     0.0000 
     52 H          47.1402   13.8978   60.2545 H         1 R711630     0.0000 
     53 H          47.7054   12.8574   61.3428 H         1 R711630     0.0000 
     54 H          46.5550   13.9038   61.7524 H         1 R711630     0.0000 
@<TRIPOS>BOND
     1    2    1 1    
     2   23    1 ar   
     3   28    1 ar   
     4    3    2 2    
     5    4    2 1    
     6    5    4 ar   
     7   22    4 ar   
     8    6    5 1    
     9    7    5 ar   
    10    8    7 ar   
    11   29    7 1    
    12    9    8 1    
    13   21    8 ar   
    14   10    9 1    
    15   11   10 1    
    16   30   10 1    
    17   31   10 1    
    18   12   11 1    
    19   32   11 1    
    20   33   11 1    
    21   13   12 1    
    22   34   12 1    
    23   35   12 1    
    24   14   13 1    
    25   36   13 1    
    26   37   13 1    
    27   15   14 1    
    28   38   14 1    
    29   39   14 1    
    30   16   15 1    
    31   40   15 1    
    32   41   15 1    
    33   17   16 1    
    34   18   16 1    
    35   42   16 1    
    36   52   17 1    
    37   53   17 1    
    38   54   17 1    
    39   19   18 1    
    40   43   18 1    
    41   44   18 1    
    42   20   19 2    
    43   45   19 1    
    44   22   21 ar   
    45   46   21 1    
    46   47   22 1    
    47   24   23 ar   
    48   48   23 1    
    49   25   24 ar   
    50   49   24 1    
    51   26   25 1    
    52   27   25 ar   
    53   28   27 ar   
    54   50   27 1    
    55   51   28 1    
@<TRIPOS>SUBSTRUCTURE
     1 R711630     1 GROUP   
@<TRIPOS>SET

