#    Name: 4anb_YQY_1_INTS_M
#    Modification time : Tue Mar 25 05:49:27 2014

@<TRIPOS>MOLECULE
4anb_YQY_1_INTS_M
   88     0    12     0     0
SMALL
NO_CHARGES


@<TRIPOS>ATOM
      1 CA         24.1065  -25.9220    2.7290 C.3       4 GLC5        0.0000 
      2 CA         24.1440  -24.2270    1.5340 C.3      12 GLL5        0.0000 
      3 CA         24.0690  -27.6170    3.9240 C.3       8 GLP5        0.0000 
      4 CA         22.7265  -25.4190    1.3720 C.3       4 GLC5        0.0000 
      5 CA         21.3090  -26.6110    1.2100 C.3       8 GLP5        0.0000 
      6 CA         22.8430  -21.6575    0.5010 C.3       4 GLC5        0.0000 
      7 CA         24.1430  -21.9590    2.2960 C.3      12 GLL5        0.0000 
      8 CA         21.5430  -21.3560   -1.2940 C.3       8 GLP5        0.0000 
      9 CA         23.4870  -20.1630    4.5030 C.3       4 GLC5        0.0000 
     10 CA         24.7190  -21.0650    3.1800 C.3      12 GLL5        0.0000 
     11 CA         22.2550  -19.2610    5.8260 C.3       8 GLP5        0.0000 
     12 N          27.8375  -20.4215    6.7900 N.am      2 SEC2        0.0000 
     13 N          26.8510  -20.8090    6.0120 N.am     10 SEL2        0.0000 
     14 N          28.8240  -20.0340    7.5680 N.am      6 SEP2        0.0000 
     15 CA         24.7560  -18.4495    5.1780 C.3       4 GLC5        0.0000 
     16 CA         26.1120  -18.4460    3.3860 C.3      12 GLL5        0.0000 
     17 CA         23.4000  -18.4530    6.9700 C.3       8 GLP5        0.0000 
     18 N          29.6170  -16.6720    3.1435 N.am      2 SEC2        0.0000 
     19 N          28.0590  -16.8460    3.7450 N.am     10 SEL2        0.0000 
     20 N          31.1750  -16.4980    2.5420 N.am      6 SEP2        0.0000 
     21 O          28.3565  -15.6490    2.9310 O.2       1 ALC1        0.0000 
     22 O          28.0590  -16.8460    3.7450 O.2       9 ALL1        0.0000 
     23 O          28.6540  -14.4520    2.1170 O.2       5 ALP1        0.0000 
     24 CA         24.5880  -17.2820    5.5815 C.3       4 GLC5        0.0000 
     25 CA         25.7760  -16.1110    4.1930 C.3      12 GLL5        0.0000 
     26 OD1        27.4960  -14.8135    3.6105 O.co2     3 ASC3        0.0000 
     27 OD1        26.3380  -15.1750    5.1040 O.co2    11 ASL3        0.0000 
     28 OD1        28.6540  -14.4520    2.1170 O.co2     7 ASP3        0.0000 
     29 OD1        27.2815  -15.0670    6.4795 O.co2     3 ASC3        0.0000 
     30 OD1        28.2250  -14.9590    7.8550 O.co2     7 ASP3        0.0000 
     31 OD1        28.1090  -15.4550    5.6130 O.co2     3 ASC3        0.0000 
     32 OD1        29.8800  -15.7350    6.1220 O.co2     7 ASP3        0.0000 
     33 OD1        27.4385  -14.4505    5.4175 O.co2     3 ASC3        0.0000 
     34 OD1        28.5390  -13.7260    5.7310 O.co2     7 ASP3        0.0000 
     35 O          27.2815  -15.0670    6.4795 O.2       1 ALC1        0.0000 
     36 O          26.3380  -15.1750    5.1040 O.2       9 ALL1        0.0000 
     37 O          28.2250  -14.9590    7.8550 O.2       5 ALP1        0.0000 
     38 O          27.4385  -14.4505    5.4175 O.2       1 ALC1        0.0000 
     39 O          28.5390  -13.7260    5.7310 O.2       5 ALP1        0.0000 
     40 CA         27.5260  -19.4855    6.9585 C.3       4 GLC5        0.0000 
     41 CA         27.0040  -18.0820    5.3670 C.3      12 GLL5        0.0000 
     42 CA         28.0480  -20.8890    8.5500 C.3       8 GLP5        0.0000 
     43 CA         25.2020  -18.2675    6.1685 C.3       4 GLC5        0.0000 
     44 CA         28.1780  -22.0490    3.4860 C.3       4 GLC5        0.0000 
     45 CA         26.2210  -22.7860    3.9940 C.3      12 GLL5        0.0000 
     46 CA         30.1350  -21.3120    2.9780 C.3       8 GLP5        0.0000 
     47 CA         27.0825  -24.6835    5.8130 C.3       4 GLC5        0.0000 
     48 CA         28.3340  -23.9950    4.3740 C.3      12 GLL5        0.0000 
     49 CA         25.8310  -25.3720    7.2520 C.3       8 GLP5        0.0000 
     50 CA         28.5360  -22.4045    7.5570 C.3       4 GLC5        0.0000 
     51 CA         29.0240  -23.9200    6.5640 C.3      12 GLL5        0.0000 
     52 CA         27.4275  -24.6460    6.9080 C.3       4 GLC5        0.0000 
     53 CA         30.5605  -24.2055    8.0105 C.3       4 GLC5        0.0000 
     54 CA         32.0970  -24.4910    9.4570 C.3       8 GLP5        0.0000 
     55 CA         31.6625  -25.1380    6.5605 C.3       4 GLC5        0.0000 
     56 CA         30.3990  -25.1570    5.1460 C.3      12 GLL5        0.0000 
     57 CA         32.9260  -25.1190    7.9750 C.3       8 GLP5        0.0000 
     58 CA         28.8320  -23.2595    1.2720 C.3       4 GLC5        0.0000 
     59 CA         28.5960  -24.4890    3.0870 C.3      12 GLL5        0.0000 
     60 CA         29.0680  -22.0300   -0.5430 C.3       8 GLP5        0.0000 
     61 CA         24.9072  -25.9510    3.5200 C.3       4 GLC5        0.0000 
     62 CA         25.9240  -24.9120    3.0570 C.3      12 GLL5        0.0000 
     63 CA         24.8704  -22.6625    0.2789 C.3       4 GLC5        0.0000 
     64 CA         24.6010  -23.2550    2.3170 C.3      12 GLL5        0.0000 
     65 CA         25.4830  -22.4750   -1.5530 C.3       8 GLP5        0.0000 
     66 CA         22.9235  -22.3525    3.7320 C.3       4 GLC5        0.0000 
     67 CA         21.4160  -23.1930    4.7260 C.3       8 GLP5        0.0000 
     68 CA         24.2535  -23.1303    4.5968 C.3       4 GLC5        0.0000 
     69 CA         25.7590  -21.4670    4.0170 C.3      12 GLL5        0.0000 
     70 CA         22.5170  -24.1340    5.1880 C.3       8 GLP5        0.0000 
     71 CA         28.4616  -18.9485    4.0955 C.3       4 GLC5        0.0000 
     72 CA         30.2050  -19.9270    3.6290 C.3       8 GLP5        0.0000 
     73 CA         25.9071  -24.4537    5.4035 C.3       4 GLC5        0.0000 
     74 CA         29.4645  -22.7467    3.9203 C.3       4 GLC5        0.0000 
     75 CA         29.0497  -26.0548    6.4277 C.3       4 GLC5        0.0000 
     76 CA         29.2540  -24.3680    5.3510 C.3      12 GLL5        0.0000 
     77 CA         28.2730  -27.3470    7.6070 C.3       8 GLP5        0.0000 
     78 CA         29.4585  -27.1205    4.0615 C.3       4 GLC5        0.0000 
     79 CA         28.3860  -28.8500    3.5990 C.3       8 GLP5        0.0000 
     80 CA         30.3330  -23.3515    3.7510 C.3       4 GLC5        0.0000 
     81 CA         30.6630  -25.6250    3.9020 C.3      12 GLL5        0.0000 
     82 CA         28.7792  -26.8742    3.2957 C.3       4 GLC5        0.0000 
     83 CA         29.6538  -23.1053    2.9853 C.3       4 GLC5        0.0000 
     84 CA         29.7490  -25.3080    2.8980 C.3      12 GLL5        0.0000 
     85 CA         27.7107  -25.9088    1.8203 C.3       4 GLC5        0.0000 
     86 CA         26.2490  -26.9190    0.6480 C.3       8 GLP5        0.0000 
     87 CA         25.6540  -25.4660    1.5844 C.3       4 GLC5        0.0000 
     88 CA         23.7880  -24.0735    3.8544 C.3       4 GLC5        0.0000 
@<TRIPOS>BOND
@<TRIPOS>SUBSTRUCTURE
     1 ALC1       21 GROUP        1 X    ALC  0     ROOT ALC X 1
     2 SEC2       12 GROUP        1 X    SEC  0     **** SEC X 2
     3 ASC3       26 GROUP        1 X    ASC  0     **** ASC X 3
     4 GLC5        1 GROUP        1 X    GLC  0     **** GLC X 6
     5 ALP1       23 GROUP        1 Y    ALP  0     ROOT ALP Y 8
     6 SEP2       14 GROUP        1 Y    SEP  0     **** SEP Y 9
     7 ASP3       28 GROUP        1 Y    ASP  0     **** ASP Y 10
     8 GLP5        3 GROUP        1 Y    GLP  0     **** GLP Y 13
     9 ALL1       22 GROUP        1 Z    ALL  0     ROOT ALL Z 15
    10 SEL2       13 GROUP        1 Z    SEL  0     **** SEL Z 16
    11 ASL3       27 GROUP        1 Z    ASL  0     **** ASL Z 17
    12 GLL5        2 GROUP        1 Z    GLL  0     **** GLL Z 20
@<TRIPOS>SET

