#    Name: 4anb_YQY_1_ligand
#    Modification time : Tue Mar 25 05:49:27 2014

@<TRIPOS>MOLECULE
4anb_YQY_1_ligand
   42    44     1     0     0
SMALL
NO_CHARGES


@<TRIPOS>ATOM
      1 F26        25.9240  -24.9120    3.0570 F         1 YQY1382     0.0000 
      2 C9         25.5670  -23.6580    3.1750 C.ar      1 YQY1382     0.0000 
      3 C10        24.6010  -23.2550    2.3170 C.ar      1 YQY1382     0.0000 
      4 F22        24.1440  -24.2270    1.5340 F         1 YQY1382     0.0000 
      5 C11        24.1430  -21.9590    2.2960 C.ar      1 YQY1382     0.0000 
      6 C12        24.7190  -21.0650    3.1800 C.ar      1 YQY1382     0.0000 
      7 C13        25.7590  -21.4670    4.0170 C.ar      1 YQY1382     0.0000 
      8 C16        26.3770  -20.4660    4.9290 C.2       1 YQY1382     0.0000 
      9 O18        26.8510  -20.8090    6.0120 O.2       1 YQY1382     0.0000 
     10 N17        26.4560  -19.1860    4.5930 N.am      1 YQY1382     0.0000 
     11 C21        26.1120  -18.4460    3.3860 C.3       1 YQY1382     0.0000 
     12 C20        26.7530  -17.2700    4.1280 C.3       1 YQY1382     0.0000 
     13 O23        28.0590  -16.8460    3.7450 O.3       1 YQY1382     0.0000 
     14 C24        25.7760  -16.1110    4.1930 C.3       1 YQY1382     0.0000 
     15 N25        26.3380  -15.1750    5.1040 N.4       1 YQY1382     0.0000 
     16 C19        27.0040  -18.0820    5.3670 C.3       1 YQY1382     0.0000 
     17 C8         26.2210  -22.7860    3.9940 C.ar      1 YQY1382     0.0000 
     18 N7         27.2400  -23.2140    4.7880 N.pl3     1 YQY1382     0.0000 
     19 C5         28.3340  -23.9950    4.3740 C.ar      1 YQY1382     0.0000 
     20 C6         29.2540  -24.3680    5.3510 C.ar      1 YQY1382     0.0000 
     21 F15        29.0240  -23.9200    6.5640 F         1 YQY1382     0.0000 
     22 C1         30.3990  -25.1570    5.1460 C.ar      1 YQY1382     0.0000 
     23 C4         28.5960  -24.4890    3.0870 C.ar      1 YQY1382     0.0000 
     24 C3         29.7490  -25.3080    2.8980 C.ar      1 YQY1382     0.0000 
     25 C2         30.6630  -25.6250    3.9020 C.ar      1 YQY1382     0.0000 
     26 H          23.4107  -21.6658    1.6580 H         1 YQY1382     0.0000 
     27 H          24.3796  -20.0907    3.2243 H         1 YQY1382     0.0000 
     28 H          25.1247  -18.2842    3.3144 H         1 YQY1382     0.0000 
     29 H          26.6979  -18.6985    2.6121 H         1 YQY1382     0.0000 
     30 H          24.8212  -16.4909    4.5349 H         1 YQY1382     0.0000 
     31 H          25.6715  -15.6991    3.1969 H         1 YQY1382     0.0000 
     32 H          27.9975  -18.1847    5.5109 H         1 YQY1382     0.0000 
     33 H          26.3730  -17.7903    6.0985 H         1 YQY1382     0.0000 
     34 H          27.2236  -22.9407    5.8244 H         1 YQY1382     0.0000 
     35 H          31.0120  -25.3628    5.9423 H         1 YQY1382     0.0000 
     36 H          27.9915  -24.2768    2.3084 H         1 YQY1382     0.0000 
     37 H          29.9089  -25.6926    1.9306 H         1 YQY1382     0.0000 
     38 H          31.4831  -26.1821    3.6916 H         1 YQY1382     0.0000 
     39 H          27.2336  -14.8514    4.7987 H         1 YQY1382     0.0000 
     40 H          25.7568  -14.3687    5.2138 H         1 YQY1382     0.0000 
     41 H          26.4640  -15.5715    6.0133 H         1 YQY1382     0.0000 
     42 H          27.9156  -16.0031    3.2264 H         1 YQY1382     0.0000 
@<TRIPOS>BOND
     1    2    1 1    
     2    3    2 ar   
     3   17    2 ar   
     4    4    3 1    
     5    5    3 ar   
     6    6    5 ar   
     7   26    5 1    
     8    7    6 ar   
     9   27    6 1    
    10    8    7 1    
    11   17    7 ar   
    12    9    8 2    
    13   10    8 am   
    14   11   10 1    
    15   16   10 1    
    16   12   11 1    
    17   28   11 1    
    18   29   11 1    
    19   13   12 1    
    20   14   12 1    
    21   16   12 1    
    22   42   13 1    
    23   15   14 1    
    24   30   14 1    
    25   31   14 1    
    26   39   15 1    
    27   40   15 1    
    28   41   15 1    
    29   32   16 1    
    30   33   16 1    
    31   18   17 1    
    32   19   18 1    
    33   34   18 1    
    34   20   19 ar   
    35   23   19 ar   
    36   21   20 1    
    37   22   20 ar   
    38   25   22 ar   
    39   35   22 1    
    40   24   23 ar   
    41   36   23 1    
    42   25   24 ar   
    43   37   24 1    
    44   38   25 1    
@<TRIPOS>SUBSTRUCTURE
     1 YQY1382     1 GROUP   
@<TRIPOS>SET

