#    Name: 4f6x_ZYL_1_INTS_M
#    Modification time : Mon Mar 24 19:00:31 2014

@<TRIPOS>MOLECULE
4f6x_ZYL_1_INTS_M
   59     0     9     0     0
SMALL
NO_CHARGES


@<TRIPOS>ATOM
      1 CA        -22.9605   24.4690    7.4880 C.3       3 GLC5        0.0000 
      2 CA        -23.3210   22.7610    7.7520 C.3       9 GLL5        0.0000 
      3 CA        -22.6000   26.1770    7.2240 C.3       6 GLP5        0.0000 
      4 N         -24.5755    9.6375    3.9555 N.am      1 SEC2        0.0000 
      5 N         -24.3330    9.3130    5.0440 N.am      7 SEL2        0.0000 
      6 N         -24.8180    9.9620    2.8670 N.am      4 SEP2        0.0000 
      7 Zn        -21.8480    7.1445    9.1140 Zn        2 ZIC7        0.0000 
      8 Zn        -23.0040    6.6910    8.6430 Zn        8 ZIL7        0.0000 
      9 Zn        -20.6920    7.5980    9.5850 Zn        5 ZIP7        0.0000 
     10 CA        -27.6870   14.0105    6.1750 C.3       3 GLC5        0.0000 
     11 CA        -26.0150   13.1780    6.0640 C.3       9 GLL5        0.0000 
     12 CA        -29.3590   14.8430    6.2860 C.3       6 GLP5        0.0000 
     13 CA        -26.4160   14.2650    4.7920 C.3       3 GLC5        0.0000 
     14 CA        -25.6540   14.3030    6.7910 C.3       9 GLL5        0.0000 
     15 CA        -27.1780   14.2270    2.7930 C.3       6 GLP5        0.0000 
     16 CA        -27.0920   15.2035    6.6800 C.3       3 GLC5        0.0000 
     17 CA        -28.5300   16.1040    6.5690 C.3       6 GLP5        0.0000 
     18 CA        -23.5740    8.4065    9.8350 C.3       3 GLC5        0.0000 
     19 CA        -22.0500    8.8460    8.3030 C.3       9 GLL5        0.0000 
     20 CA        -25.0980    7.9670   11.3670 C.3       6 GLP5        0.0000 
     21 CA        -25.2665   20.7410    6.7925 C.3       3 GLC5        0.0000 
     22 CA        -23.7200   21.3360    8.1380 C.3       9 GLL5        0.0000 
     23 CA        -26.8130   20.1460    5.4470 C.3       6 GLP5        0.0000 
     24 CA        -25.5220   21.3160    8.9880 C.3       3 GLC5        0.0000 
     25 CA        -27.3240   21.2960    9.8380 C.3       6 GLP5        0.0000 
     26 CA        -25.0565   19.6580    6.1815 C.3       3 GLC5        0.0000 
     27 CA        -23.3000   19.1700    6.9160 C.3       9 GLL5        0.0000 
     28 CA        -23.3125   18.1970    5.0470 C.3       3 GLC5        0.0000 
     29 CA        -23.3250   17.2240    3.1780 C.3       6 GLP5        0.0000 
     30 CA        -24.8550   18.4740    9.0075 C.3       3 GLC5        0.0000 
     31 CA        -23.3100   17.9010    7.7620 C.3       9 GLL5        0.0000 
     32 CA        -26.4000   19.0470   10.2530 C.3       6 GLP5        0.0000 
     33 CA        -26.1070   16.5055    7.5345 C.3       3 GLC5        0.0000 
     34 CA        -23.9580   16.7470    7.0030 C.3       9 GLL5        0.0000 
     35 CA        -28.2560   16.2640    8.0660 C.3       6 GLP5        0.0000 
     36 CA        -23.6415   16.9855    5.0905 C.3       3 GLC5        0.0000 
     37 CA        -22.0525   12.0530    7.5160 C.3       3 GLC5        0.0000 
     38 CA        -22.6650   11.4360    5.6260 C.3       9 GLL5        0.0000 
     39 CA        -21.4400   12.6700    9.4060 C.3       6 GLP5        0.0000 
     40 CA        -22.3340   11.3210    3.6740 C.3       3 GLC5        0.0000 
     41 CA        -22.0030   11.2060    1.7220 C.3       6 GLP5        0.0000 
     42 CA        -26.2920   15.3830    7.6040 C.3       3 GLC5        0.0000 
     43 CA        -24.3280   14.5020    7.1420 C.3       9 GLL5        0.0000 
     44 CA        -22.1040    7.9845    5.2410 C.3       3 GLC5        0.0000 
     45 CA        -23.7190    8.0040    6.7830 C.3       9 GLL5        0.0000 
     46 CA        -20.4890    7.9650    3.6990 C.3       6 GLP5        0.0000 
     47 CA        -23.5748   22.5858    9.8465 C.3       3 GLC5        0.0000 
     48 CA        -23.6290   23.1230   11.7480 C.3       6 GLP5        0.0000 
     49 CA        -24.2167   22.9157    6.2845 C.3       3 GLC5        0.0000 
     50 CA        -24.9130   23.7830    4.6240 C.3       6 GLP5        0.0000 
     51 CA        -21.3182   20.2040    6.7153 C.3       3 GLC5        0.0000 
     52 CA        -19.6540   20.6570    6.1340 C.3       6 GLP5        0.0000 
     53 CA        -21.8937   16.8551    6.7160 C.3       3 GLC5        0.0000 
     54 CA        -20.1560   16.0690    6.2610 C.3       6 GLP5        0.0000 
     55 CA        -21.6614   13.2259    5.2744 C.3       3 GLC5        0.0000 
     56 CA        -23.7280   12.4490    6.0410 C.3       9 GLL5        0.0000 
     57 CA        -20.2170   14.2280    4.5340 C.3       6 GLP5        0.0000 
     58 CA        -25.2385   13.0656    4.2325 C.3       3 GLC5        0.0000 
     59 CA        -25.8460   13.5490    2.5070 C.3       6 GLP5        0.0000 
@<TRIPOS>BOND
@<TRIPOS>SUBSTRUCTURE
     1 SEC2        4 GROUP        1 X    SEC  0     ROOT SEC X 2
     2 ZIC7        7 GROUP        1 X    ZIC  0     **** ZIC X 5
     3 GLC5        1 GROUP        1 X    GLC  0     **** GLC X 6
     4 SEP2        6 GROUP        1 Y    SEP  0     ROOT SEP Y 9
     5 ZIP7        9 GROUP        1 Y    ZIP  0     **** ZIP Y 12
     6 GLP5        3 GROUP        1 Y    GLP  0     **** GLP Y 13
     7 SEL2        5 GROUP        1 Z    SEL  0     ROOT SEL Z 16
     8 ZIL7        8 GROUP        1 Z    ZIL  0     **** ZIL Z 19
     9 GLL5        2 GROUP        1 Z    GLL  0     **** GLL Z 20
@<TRIPOS>SET

