#    Name: 4f6x_ZYL_1_ligand
#    Modification time : Mon Mar 24 19:00:31 2014

@<TRIPOS>MOLECULE
4f6x_ZYL_1_ligand
   46    47     1     0     0
SMALL
NO_CHARGES


@<TRIPOS>ATOM
      1 CAA       -23.3210   22.7610    7.7520 C.3       1 ZYL301      0.0000 
      2 OAB       -25.0520    6.0660    7.1780 O.co2     1 ZYL301      0.0000 
      3 OAC       -24.3330    9.3130    5.0440 O.2       1 ZYL301      0.0000 
      4 OAD       -25.0550    6.9200    5.1390 O.co2     1 ZYL301      0.0000 
      5 OAE       -23.0040    6.6910    8.6430 O.co2     1 ZYL301      0.0000 
      6 CAF       -26.0150   13.1780    6.0640 C.ar      1 ZYL301      0.0000 
      7 CAG       -25.0530   12.2530    5.6860 C.ar      1 ZYL301      0.0000 
      8 CAH       -25.6540   14.3030    6.7910 C.ar      1 ZYL301      0.0000 
      9 CAI       -22.0500    8.8460    8.3030 C.2       1 ZYL301      0.0000 
     10 CAJ       -21.9630   10.0220    7.5640 C.2       1 ZYL301      0.0000 
     11 CAK       -23.3650   13.5740    6.7660 C.ar      1 ZYL301      0.0000 
     12 CAL       -23.7200   21.3360    8.1380 C.3       1 ZYL301      0.0000 
     13 CAM       -22.6650   20.3320    7.6770 C.3       1 ZYL301      0.0000 
     14 CAN       -23.3000   19.1700    6.9160 C.3       1 ZYL301      0.0000 
     15 CAO       -23.3100   17.9010    7.7620 C.3       1 ZYL301      0.0000 
     16 CAP       -23.9580   16.7470    7.0030 C.3       1 ZYL301      0.0000 
     17 CAQ       -22.6650   11.4360    5.6260 C.3       1 ZYL301      0.0000 
     18 OAR       -23.9710   15.6010    7.8560 O.3       1 ZYL301      0.0000 
     19 CAS       -24.6860    6.9090    6.3340 C.2       1 ZYL301      0.0000 
     20 CAT       -23.7280   12.4490    6.0410 C.ar      1 ZYL301      0.0000 
     21 CAU       -24.3280   14.5020    7.1420 C.ar      1 ZYL301      0.0000 
     22 CAV       -22.9270    7.8370    7.9140 C.2       1 ZYL301      0.0000 
     23 CAW       -23.7190    8.0040    6.7830 C.2       1 ZYL301      0.0000 
     24 CAX       -23.6310    9.1750    6.0410 C.2       1 ZYL301      0.0000 
     25 NAY       -22.7590   10.1940    6.4280 N.am      1 ZYL301      0.0000 
     26 H         -27.0013   13.0291    5.8039 H         1 ZYL301      0.0000 
     27 H         -25.3237   11.4220    5.1424 H         1 ZYL301      0.0000 
     28 H         -26.3695   14.9879    7.0688 H         1 ZYL301      0.0000 
     29 H         -21.4641    8.7214    9.1402 H         1 ZYL301      0.0000 
     30 H         -21.3149   10.7650    7.8510 H         1 ZYL301      0.0000 
     31 H         -22.3797   13.7229    7.0268 H         1 ZYL301      0.0000 
     32 H         -24.6746   21.0930    7.6743 H         1 ZYL301      0.0000 
     33 H         -23.8268   21.2743    9.2197 H         1 ZYL301      0.0000 
     34 H         -22.1342   19.9440    8.5474 H         1 ZYL301      0.0000 
     35 H         -21.9480   20.8371    7.0283 H         1 ZYL301      0.0000 
     36 H         -22.7351   18.9888    6.0015 H         1 ZYL301      0.0000 
     37 H         -24.3236   19.4329    6.6489 H         1 ZYL301      0.0000 
     38 H         -23.8667   18.0850    8.6802 H         1 ZYL301      0.0000 
     39 H         -22.2862   17.6320    8.0194 H         1 ZYL301      0.0000 
     40 H         -23.3775   16.5726    6.0967 H         1 ZYL301      0.0000 
     41 H         -24.9649   17.0543    6.7197 H         1 ZYL301      0.0000 
     42 H         -21.6776   11.8962    5.7524 H         1 ZYL301      0.0000 
     43 H         -22.7957   11.2112    4.5605 H         1 ZYL301      0.0000 
     44 H         -22.4511   23.0283    8.1665 H         1 ZYL301      0.0000 
     45 H         -23.2177   22.8626    6.7626 H         1 ZYL301      0.0000 
     46 H         -24.0035   23.4302    8.0457 H         1 ZYL301      0.0000 
@<TRIPOS>BOND
     1   12    1 1    
     2   44    1 1    
     3   45    1 1    
     4   46    1 1    
     5   19    2 ar   
     6   24    3 2    
     7   19    4 ar   
     8   22    5 ar   
     9    7    6 ar   
    10    8    6 ar   
    11   26    6 1    
    12   20    7 ar   
    13   27    7 1    
    14   21    8 ar   
    15   28    8 1    
    16   10    9 2    
    17   22    9 1    
    18   29    9 1    
    19   25   10 1    
    20   30   10 1    
    21   20   11 ar   
    22   21   11 ar   
    23   31   11 1    
    24   13   12 1    
    25   32   12 1    
    26   33   12 1    
    27   14   13 1    
    28   34   13 1    
    29   35   13 1    
    30   15   14 1    
    31   36   14 1    
    32   37   14 1    
    33   16   15 1    
    34   38   15 1    
    35   39   15 1    
    36   18   16 1    
    37   40   16 1    
    38   41   16 1    
    39   20   17 1    
    40   25   17 1    
    41   42   17 1    
    42   43   17 1    
    43   21   18 1    
    44   23   19 1    
    45   23   22 2    
    46   24   23 1    
    47   25   24 am   
@<TRIPOS>SUBSTRUCTURE
     1 ZYL301      1 GROUP   
@<TRIPOS>SET

