#    Name: 2iws_NP4_1_INTS_M
#    Modification time : Tue Mar 25 18:49:36 2014

@<TRIPOS>MOLECULE
2iws_NP4_1_INTS_M
   47     0     6     0     0
SMALL
NO_CHARGES


@<TRIPOS>ATOM
      1 CA         15.5985  -33.7180  -58.9360 C.3       2 GLC5        0.0000 
      2 CA         17.4640  -32.9540  -59.1340 C.3       6 GLL5        0.0000 
      3 CA         13.7330  -34.4820  -58.7380 C.3       4 GLP5        0.0000 
      4 CA         17.3690  -30.1870  -59.1395 C.3       2 GLC5        0.0000 
      5 CA         17.4290  -32.0480  -58.0840 C.3       6 GLL5        0.0000 
      6 CA         17.3090  -28.3260  -60.1950 C.3       4 GLP5        0.0000 
      7 CA         15.7975  -33.3325  -57.6840 C.3       2 GLC5        0.0000 
      8 CA         14.1660  -34.6170  -57.2840 C.3       4 GLP5        0.0000 
      9 CA         19.4725  -36.7325  -58.3970 C.3       2 GLC5        0.0000 
     10 CA         20.4150  -35.1380  -58.1850 C.3       6 GLL5        0.0000 
     11 CA         18.5300  -38.3270  -58.6090 C.3       4 GLP5        0.0000 
     12 CA         20.5480  -36.1140  -56.2065 C.3       2 GLC5        0.0000 
     13 CA         20.6810  -37.0900  -54.2280 C.3       4 GLP5        0.0000 
     14 CA         21.3555  -31.5735  -58.6090 C.3       2 GLC5        0.0000 
     15 CA         21.9060  -33.2980  -59.3390 C.3       6 GLL5        0.0000 
     16 CA         20.8050  -29.8490  -57.8790 C.3       4 GLP5        0.0000 
     17 CA         22.3710  -31.2130  -62.4020 C.3       2 GLC5        0.0000 
     18 CA         22.4170  -33.2520  -61.8100 C.3       6 GLL5        0.0000 
     19 CA         22.3250  -29.1740  -62.9940 C.3       4 GLP5        0.0000 
     20 CA         19.5395  -33.1255  -63.5535 C.3       2 GLC5        0.0000 
     21 CA         20.3800  -34.7180  -63.2330 C.3       6 GLL5        0.0000 
     22 CA         18.6990  -31.5330  -63.8740 C.3       4 GLP5        0.0000 
     23 CA         18.6985  -33.7665  -62.4940 C.3       2 GLC5        0.0000 
     24 CA         19.4780  -35.5460  -62.3300 C.3       6 GLL5        0.0000 
     25 CA         17.9190  -31.9870  -62.6580 C.3       4 GLP5        0.0000 
     26 CA         18.6835  -37.1930  -61.2700 C.3       2 GLC5        0.0000 
     27 CA         17.8890  -38.8400  -60.2100 C.3       4 GLP5        0.0000 
     28 O          15.6455  -31.8500  -60.0515 O.2       1 ALC1        0.0000 
     29 O          16.5410  -32.8560  -60.1320 O.2       5 ALL1        0.0000 
     30 O          14.7500  -30.8440  -59.9710 O.2       3 ALP1        0.0000 
     31 CA         20.6025  -31.5315  -56.8850 C.3       2 GLC5        0.0000 
     32 CA         20.4000  -33.2140  -55.8910 C.3       6 GLL5        0.0000 
     33 CA         20.5405  -35.1520  -55.0595 C.3       2 GLC5        0.0000 
     34 CA         20.2230  -33.2620  -54.2220 C.3       2 GLC5        0.0000 
     35 CA         20.0460  -33.3100  -52.5530 C.3       4 GLP5        0.0000 
     36 CA         17.9318  -32.7203  -60.9027 C.3       2 GLC5        0.0000 
     37 CA         18.4250  -33.9530  -59.1610 C.3       6 GLL5        0.0000 
     38 CA         17.9980  -35.7523  -58.2835 C.3       2 GLC5        0.0000 
     39 CA         17.0960  -37.5080  -57.9190 C.3       4 GLP5        0.0000 
     40 CA         19.3545  -30.9748  -57.7257 C.3       2 GLC5        0.0000 
     41 CA         16.5950  -32.4198  -56.0363 C.3       2 GLC5        0.0000 
     42 CA         18.3790  -32.1530  -57.0610 C.3       6 GLL5        0.0000 
     43 CA         15.2860  -32.7390  -54.5000 C.3       4 GLP5        0.0000 
     44 CA         20.0808  -31.7195  -57.7455 C.3       2 GLC5        0.0000 
     45 CA         19.3380  -33.1400  -57.0890 C.3       6 GLL5        0.0000 
     46 CA         18.8045  -35.4225  -64.1178 C.3       2 GLC5        0.0000 
     47 CA         17.6800  -35.7130  -65.4540 C.3       4 GLP5        0.0000 
@<TRIPOS>BOND
@<TRIPOS>SUBSTRUCTURE
     1 ALC1       28 GROUP        1 X    ALC  0     ROOT ALC X 1
     2 GLC5        1 GROUP        1 X    GLC  0     **** GLC X 6
     3 ALP1       30 GROUP        1 Y    ALP  0     ROOT ALP Y 8
     4 GLP5        3 GROUP        1 Y    GLP  0     **** GLP Y 13
     5 ALL1       29 GROUP        1 Z    ALL  0     ROOT ALL Z 15
     6 GLL5        2 GROUP        1 Z    GLL  0     **** GLL Z 20
@<TRIPOS>SET

