#    Name: 2iws_NP4_1_ligand
#    Modification time : Tue Mar 25 18:49:36 2014

@<TRIPOS>MOLECULE
2iws_NP4_1_ligand
   39    40     1     0     0
SMALL
NO_CHARGES


@<TRIPOS>ATOM
      1 C1         18.4650  -34.9290  -60.3030 C.2       1 NP41215     0.0000 
      2 C2         18.4250  -33.9530  -59.1610 C.ar      1 NP41215     0.0000 
      3 O10        19.7270  -35.1970  -60.9690 O.3       1 NP41215     0.0000 
      4 C3         17.4640  -32.9540  -59.1340 C.ar      1 NP41215     0.0000 
      5 C4         17.4290  -32.0480  -58.0840 C.ar      1 NP41215     0.0000 
      6 C5         18.3790  -32.1530  -57.0610 C.ar      1 NP41215     0.0000 
      7 C6         19.3380  -33.1400  -57.0890 C.ar      1 NP41215     0.0000 
      8 C7         19.3750  -34.0400  -58.1350 C.ar      1 NP41215     0.0000 
      9 C8         20.4150  -35.1380  -58.1850 C.3       1 NP41215     0.0000 
     10 C9         21.7050  -34.7130  -58.8540 C.2       1 NP41215     0.0000 
     11 C10        21.9060  -33.2980  -59.3390 C.3       1 NP41215     0.0000 
     12 C11        23.0010  -33.2730  -60.4030 C.3       1 NP41215     0.0000 
     13 C12        22.4170  -33.2520  -61.8100 C.3       1 NP41215     0.0000 
     14 C13        22.7320  -34.5640  -62.4860 C.2       1 NP41215     0.0000 
     15 C14        21.7910  -35.2420  -63.1410 C.2       1 NP41215     0.0000 
     16 C15        20.3800  -34.7180  -63.2330 C.3       1 NP41215     0.0000 
     17 C16        19.4780  -35.5460  -62.3300 C.3       1 NP41215     0.0000 
     18 O1         17.4560  -35.5070  -60.6830 O.2       1 NP41215     0.0000 
     19 O3         16.5410  -32.8560  -60.1320 O.3       1 NP41215     0.0000 
     20 O4         18.3460  -31.2700  -56.0350 O.3       1 NP41215     0.0000 
     21 CL1        20.4000  -33.2140  -55.8910 Cl        1 NP41215     0.0000 
     22 O5         22.6010  -35.5290  -59.0130 O.2       1 NP41215     0.0000 
     23 H          16.7218  -31.3119  -58.0524 H         1 NP41215     0.0000 
     24 H          19.9985  -36.0055  -58.7236 H         1 NP41215     0.0000 
     25 H          20.6353  -35.4736  -57.1579 H         1 NP41215     0.0000 
     26 H          22.2019  -32.6631  -58.5096 H         1 NP41215     0.0000 
     27 H          20.9833  -32.9219  -59.7698 H         1 NP41215     0.0000 
     28 H          23.6325  -34.1574  -60.2879 H         1 NP41215     0.0000 
     29 H          23.6220  -32.3857  -60.2571 H         1 NP41215     0.0000 
     30 H          22.8585  -32.4359  -62.3678 H         1 NP41215     0.0000 
     31 H          21.3444  -33.1179  -61.7496 H         1 NP41215     0.0000 
     32 H          23.7087  -34.8738  -62.3957 H         1 NP41215     0.0000 
     33 H          21.9517  -36.1402  -63.6150 H         1 NP41215     0.0000 
     34 H          20.0267  -34.7916  -64.2562 H         1 NP41215     0.0000 
     35 H          20.3515  -33.6814  -62.9138 H         1 NP41215     0.0000 
     36 H          18.4401  -35.3476  -62.6166 H         1 NP41215     0.0000 
     37 H          19.6868  -36.6033  -62.5226 H         1 NP41215     0.0000 
     38 H          15.9744  -32.0702  -59.8841 H         1 NP41215     0.0000 
     39 H          17.6755  -30.5804  -56.3087 H         1 NP41215     0.0000 
@<TRIPOS>BOND
     1    2    1 1    
     2    3    1 1    
     3   18    1 2    
     4    4    2 ar   
     5    8    2 ar   
     6   17    3 1    
     7    5    4 ar   
     8   19    4 1    
     9    6    5 ar   
    10   23    5 1    
    11    7    6 ar   
    12   20    6 1    
    13    8    7 ar   
    14   21    7 1    
    15    9    8 1    
    16   10    9 1    
    17   24    9 1    
    18   25    9 1    
    19   11   10 1    
    20   22   10 2    
    21   12   11 1    
    22   26   11 1    
    23   27   11 1    
    24   13   12 1    
    25   28   12 1    
    26   29   12 1    
    27   14   13 1    
    28   30   13 1    
    29   31   13 1    
    30   15   14 2    
    31   32   14 1    
    32   16   15 1    
    33   33   15 1    
    34   17   16 1    
    35   34   16 1    
    36   35   16 1    
    37   36   17 1    
    38   37   17 1    
    39   38   19 1    
    40   39   20 1    
@<TRIPOS>SUBSTRUCTURE
     1 NP41215     1 GROUP   
@<TRIPOS>SET

