#    Name: 3gy0_NAP_1_INTS_M
#    Modification time : Tue Mar 25 13:13:47 2014

@<TRIPOS>MOLECULE
3gy0_NAP_1_INTS_M
  111     0    12     0     0
SMALL
NO_CHARGES


@<TRIPOS>ATOM
      1 CA         32.9045   25.8660   -6.5610 C.3       4 GLC5        0.0000 
      2 CA         34.8710   25.2600   -5.7980 C.3      12 GLL5        0.0000 
      3 CA         30.9380   26.4720   -7.3240 C.3       8 GLP5        0.0000 
      4 N          32.3280   26.5370   -5.3060 N.am      2 SEC2        0.0000 
      5 N          34.0200   26.4020   -5.6830 N.am     10 SEL2        0.0000 
      6 N          30.6360   26.6720   -4.9290 N.am      6 SEP2        0.0000 
      7 CA         37.8530   24.3770   -6.1335 C.3       4 GLC5        0.0000 
      8 CA         36.3000   25.7290   -6.0210 C.3      12 GLL5        0.0000 
      9 CA         39.4060   23.0250   -6.2460 C.3       8 GLP5        0.0000 
     10 O          37.7130   26.2325   -8.2435 O.2       1 ALC1        0.0000 
     11 O          36.6520   25.5470   -7.3720 O.2       9 ALL1        0.0000 
     12 O          38.7740   26.9180   -9.1150 O.2       5 ALP1        0.0000 
     13 CA         32.9505   27.6770   -7.0275 C.3       4 GLC5        0.0000 
     14 CA         34.6830   27.5080   -6.1380 C.3      12 GLL5        0.0000 
     15 CA         31.2180   27.8460   -7.9170 C.3       8 GLP5        0.0000 
     16 CA         31.7970   30.9980   -4.5460 C.3       4 GLC5        0.0000 
     17 CA         33.9920   30.8820   -4.9960 C.3      12 GLL5        0.0000 
     18 CA         29.6020   31.1140   -4.0960 C.3       8 GLP5        0.0000 
     19 CA         32.1120   32.8785   -6.2365 C.3       4 GLC5        0.0000 
     20 CA         33.8280   32.2260   -5.3420 C.3      12 GLL5        0.0000 
     21 CA         30.3960   33.5310   -7.1310 C.3       8 GLP5        0.0000 
     22 CA         32.4795   32.6515   -3.6655 C.3       4 GLC5        0.0000 
     23 CA         31.1310   33.0770   -1.9890 C.3       8 GLP5        0.0000 
     24 O          34.0320   34.5790   -4.9485 O.2       1 ALC1        0.0000 
     25 O          33.6680   33.1930   -4.4400 O.2       9 ALL1        0.0000 
     26 O          34.3960   35.9650   -5.4570 O.2       5 ALP1        0.0000 
     27 N          33.0945   33.7960   -7.0770 N.am      2 SEC2        0.0000 
     28 N          33.8420   32.5890   -6.6720 N.am     10 SEL2        0.0000 
     29 N          32.3470   35.0030   -7.4820 N.am      6 SEP2        0.0000 
     30 CA         35.8960   32.0235   -7.5510 C.3       4 GLC5        0.0000 
     31 CA         34.0290   31.6440   -7.6600 C.3      12 GLL5        0.0000 
     32 CA         37.7630   32.4030   -7.4420 C.3       8 GLP5        0.0000 
     33 CA         34.2505   33.7580   -7.9525 C.3       4 GLC5        0.0000 
     34 CA         34.4720   35.8720   -8.2450 C.3       8 GLP5        0.0000 
     35 CA         32.2880   32.1865   -8.0460 C.3       4 GLC5        0.0000 
     36 CA         30.5470   32.7290   -8.4320 C.3       8 GLP5        0.0000 
     37 CA         32.7025   28.8975   -6.9625 C.3       4 GLC5        0.0000 
     38 CA         34.1870   29.9490   -6.0080 C.3      12 GLL5        0.0000 
     39 N          34.8035   19.4640   -5.9190 N.am      2 SEC2        0.0000 
     40 N          34.3680   20.2490   -4.8080 N.am     10 SEL2        0.0000 
     41 N          35.2390   18.6790   -7.0300 N.am      6 SEP2        0.0000 
     42 N          34.3465   19.0680   -1.7985 N.am      2 SEC2        0.0000 
     43 N          33.4250   19.6740   -2.5140 N.am     10 SEL2        0.0000 
     44 N          35.2680   18.4620   -1.0830 N.am      6 SEP2        0.0000 
     45 CA         31.7205   19.3650   -5.1525 C.3       4 GLC5        0.0000 
     46 CA         31.7930   21.5160   -5.1190 C.3      12 GLL5        0.0000 
     47 CA         31.6480   17.2140   -5.1860 C.3       8 GLP5        0.0000 
     48 CA         29.8315   24.7415   -3.8560 C.3       4 GLC5        0.0000 
     49 CA         29.8110   22.6780   -4.0180 C.3      12 GLL5        0.0000 
     50 CA         29.8520   26.8050   -3.6940 C.3       8 GLP5        0.0000 
     51 CA         30.9425   23.3100   -2.4500 C.3       4 GLC5        0.0000 
     52 CA         32.0740   23.9420   -0.8820 C.3       8 GLP5        0.0000 
     53 N          27.2980   23.5315   -3.9375 N.am      2 SEC2        0.0000 
     54 N          28.6620   23.2890   -4.5780 N.am     10 SEL2        0.0000 
     55 N          25.9340   23.7740   -3.2970 N.am      6 SEP2        0.0000 
     56 O          29.3570   23.6020   -5.7345 O.2       1 ALC1        0.0000 
     57 O          28.6620   23.2890   -4.5780 O.2       9 ALL1        0.0000 
     58 O          30.0520   23.9150   -6.8910 O.2       5 ALP1        0.0000 
     59 CA         30.4210   22.2985   -1.3075 C.3       4 GLC5        0.0000 
     60 CA         29.4610   21.8940   -2.7750 C.3      12 GLL5        0.0000 
     61 CA         31.3810   22.7030    0.1600 C.3       8 GLP5        0.0000 
     62 N          28.0130   22.0125   -0.9085 N.am      2 SEC2        0.0000 
     63 N          28.4400   22.5510   -2.0360 N.am     10 SEL2        0.0000 
     64 N          27.5860   21.4740    0.2190 N.am      6 SEP2        0.0000 
     65 N          27.1870   23.1625   -2.6665 N.am      2 SEC2        0.0000 
     66 CA         27.8510   20.4515   -4.7935 C.3       4 GLC5        0.0000 
     67 CA         28.9550   20.6040   -3.3770 C.3      12 GLL5        0.0000 
     68 CA         26.7470   20.2990   -6.2100 C.3       8 GLP5        0.0000 
     69 CA         28.3730   18.7410   -4.1685 C.3       4 GLC5        0.0000 
     70 CA         27.7910   16.8780   -4.9600 C.3       8 GLP5        0.0000 
     71 CA         28.9520   17.8920   -3.4890 C.3       4 GLC5        0.0000 
     72 CA         30.1130   18.9060   -2.0180 C.3      12 GLL5        0.0000 
     73 N          31.5320   14.7850   -0.1320 N.am      2 SEC2        0.0000 
     74 N          31.1630   16.0970    0.1650 N.am     10 SEL2        0.0000 
     75 N          31.9010   13.4730   -0.4290 N.am      6 SEP2        0.0000 
     76 O          33.3955   16.1545   -0.7805 O.2       1 ALC1        0.0000 
     77 O          32.5160   17.4460   -1.2240 O.2       9 ALL1        0.0000 
     78 O          34.2750   14.8630   -0.3370 O.2       5 ALP1        0.0000 
     79 CA         28.3025   17.0900   -2.8555 C.3       4 GLC5        0.0000 
     80 CA         28.8140   17.3020   -0.7510 C.3      12 GLL5        0.0000 
     81 CA         26.9890   17.3725   -2.9490 C.3       4 GLC5        0.0000 
     82 CA         27.6400   17.9040   -1.2070 C.3      12 GLL5        0.0000 
     83 CA         26.3380   16.8410   -4.6910 C.3       8 GLP5        0.0000 
     84 CA         27.2280   19.6495   -4.1405 C.3       4 GLC5        0.0000 
     85 CA         27.7090   19.0000   -2.0710 C.3      12 GLL5        0.0000 
     86 CA         27.7500   17.9390   -3.5155 C.3       4 GLC5        0.0000 
     87 N          38.9005   27.9770   -8.3695 N.am      2 SEC2        0.0000 
     88 N          39.0270   29.0360   -7.6240 N.am     10 SEL2        0.0000 
     89 N          38.7740   26.9180   -9.1150 N.am      6 SEP2        0.0000 
     90 N          38.4595   30.1075   -8.5605 N.am      2 SEC2        0.0000 
     91 N          37.8920   31.1790   -9.4970 N.am      6 SEP2        0.0000 
     92 N          39.7745   30.1830   -8.1110 N.am      2 SEC2        0.0000 
     93 N          40.5220   31.3300   -8.5980 N.am      6 SEP2        0.0000 
     94 NZ         37.9660   30.1070   -3.9700 N.4       3 LYC4        0.0000 
     95 NZ         38.4420   29.5580   -5.1870 N.4      11 LYL4        0.0000 
     96 NZ         37.3710   31.8750   -3.2650 N.4       7 LYP4        0.0000 
     97 N          38.0015   30.8105   -4.8815 N.am      2 SEC2        0.0000 
     98 N          38.4420   29.5580   -5.1870 N.am     10 SEL2        0.0000 
     99 N          37.5610   32.0630   -4.5760 N.am      6 SEP2        0.0000 
    100 N          37.9660   30.1070   -3.9700 N.am      2 SEC2        0.0000 
    101 N          37.4900   30.6560   -2.7530 N.am      6 SEP2        0.0000 
    102 N          39.0160   27.1240   -7.4635 N.am      2 SEC2        0.0000 
    103 N          39.2580   27.3300   -5.8120 N.am     10 SEL2        0.0000 
    104 CA         35.6835   32.4600   -5.2065 C.3       4 GLC5        0.0000 
    105 CA         37.4570   33.3660   -5.2440 C.3       8 GLP5        0.0000 
    106 CA         28.3952   21.2093   -5.3492 C.3       4 GLC5        0.0000 
    107 CA         30.8660   17.7877   -3.3862 C.3       4 GLC5        0.0000 
    108 CA         25.9093   19.0030   -0.7355 C.3       4 GLC5        0.0000 
    109 CA         24.1440   19.5540    0.1680 C.3       8 GLP5        0.0000 
    110 CA         34.8689   26.1144   -7.7363 C.3       4 GLC5        0.0000 
    111 CA         34.2330   25.7960   -9.5340 C.3       8 GLP5        0.0000 
@<TRIPOS>BOND
@<TRIPOS>SUBSTRUCTURE
     1 ALC1       10 GROUP        1 X    ALC  0     ROOT ALC X 1
     2 SEC2        4 GROUP        1 X    SEC  0     **** SEC X 2
     3 LYC4       94 GROUP        1 X    LYC  0     **** LYC X 4
     4 GLC5        1 GROUP        1 X    GLC  0     **** GLC X 6
     5 ALP1       12 GROUP        1 Y    ALP  0     ROOT ALP Y 8
     6 SEP2        6 GROUP        1 Y    SEP  0     **** SEP Y 9
     7 LYP4       96 GROUP        1 Y    LYP  0     **** LYP Y 11
     8 GLP5        3 GROUP        1 Y    GLP  0     **** GLP Y 13
     9 ALL1       11 GROUP        1 Z    ALL  0     ROOT ALL Z 15
    10 SEL2        5 GROUP        1 Z    SEL  0     **** SEL Z 16
    11 LYL4       95 GROUP        1 Z    LYL  0     **** LYL Z 18
    12 GLL5        2 GROUP        1 Z    GLL  0     **** GLL Z 20
@<TRIPOS>SET

