#    Name: 3gy0_NAP_1_ligand
#    Modification time : Tue Mar 25 13:13:47 2014

@<TRIPOS>MOLECULE
3gy0_NAP_1_ligand
   73    77     1     0     0
SMALL
NO_CHARGES


@<TRIPOS>ATOM
      1 PA         36.0080   22.5200   -3.2710 P.3       1 NAP500      0.0000 
      2 O1A        37.0390   21.5630   -3.7160 O.co2     1 NAP500      0.0000 
      3 O2A        36.4130   23.4270   -2.1650 O.co2     1 NAP500      0.0000 
      4 O5B        35.5700   23.3630   -4.5560 O.3       1 NAP500      0.0000 
      5 C5B        34.7240   24.5000   -4.4860 C.3       1 NAP500      0.0000 
      6 C4B        34.8710   25.2600   -5.7980 C.3       1 NAP500      0.0000 
      7 O4B        34.0200   26.4020   -5.6830 O.3       1 NAP500      0.0000 
      8 C3B        36.3000   25.7290   -6.0210 C.3       1 NAP500      0.0000 
      9 O3B        36.6520   25.5470   -7.3720 O.3       1 NAP500      0.0000 
     10 C2B        36.1650   27.2340   -5.7970 C.3       1 NAP500      0.0000 
     11 O2B        37.0030   27.9690   -6.6550 O.3       1 NAP500      0.0000 
     12 C1B        34.6830   27.5080   -6.1380 C.3       1 NAP500      0.0000 
     13 N9A        34.3390   28.7360   -5.4100 N.pl3     1 NAP500      0.0000 
     14 C8A        34.2620   28.8950   -4.0340 C.2       1 NAP500      0.0000 
     15 N7A        34.0270   30.2110   -3.8060 N.2       1 NAP500      0.0000 
     16 C5A        33.9920   30.8820   -4.9960 C.ar      1 NAP500      0.0000 
     17 C6A        33.8280   32.2260   -5.3420 C.ar      1 NAP500      0.0000 
     18 N6A        33.6680   33.1930   -4.4400 N.pl3     1 NAP500      0.0000 
     19 N1A        33.8420   32.5890   -6.6720 N.ar      1 NAP500      0.0000 
     20 C2A        34.0290   31.6440   -7.6600 C.ar      1 NAP500      0.0000 
     21 N3A        34.1990   30.3260   -7.3190 N.ar      1 NAP500      0.0000 
     22 C4A        34.1870   29.9490   -6.0080 C.ar      1 NAP500      0.0000 
     23 O3         34.6730   21.7820   -2.8270 O.3       1 NAP500      0.0000 
     24 PN         33.7410   20.6810   -3.5510 P.3       1 NAP500      0.0000 
     25 O1N        34.3680   20.2490   -4.8080 O.co2     1 NAP500      0.0000 
     26 O2N        33.4250   19.6740   -2.5140 O.co2     1 NAP500      0.0000 
     27 O5D        32.4190   21.5270   -3.8360 O.3       1 NAP500      0.0000 
     28 C5D        31.7930   21.5160   -5.1190 C.3       1 NAP500      0.0000 
     29 C4D        30.2760   21.5610   -4.9590 C.3       1 NAP500      0.0000 
     30 O4D        29.8910   20.3180   -4.3930 O.3       1 NAP500      0.0000 
     31 C3D        29.8110   22.6780   -4.0180 C.3       1 NAP500      0.0000 
     32 O3D        28.6620   23.2890   -4.5780 O.3       1 NAP500      0.0000 
     33 C2D        29.4610   21.8940   -2.7750 C.3       1 NAP500      0.0000 
     34 O2D        28.4400   22.5510   -2.0360 O.3       1 NAP500      0.0000 
     35 C1D        28.9550   20.6040   -3.3770 C.3       1 NAP500      0.0000 
     36 N1N        28.9410   19.4780   -2.4610 N.pl3     1 NAP500      0.0000 
     37 C2N        30.1130   18.9060   -2.0180 C.ar      1 NAP500      0.0000 
     38 C3N        30.0550   17.8170   -1.1550 C.ar      1 NAP500      0.0000 
     39 C7N        31.3130   17.1120   -0.7490 C.2       1 NAP500      0.0000 
     40 O7N        31.1630   16.0970    0.1650 O.2       1 NAP500      0.0000 
     41 N7N        32.5160   17.4460   -1.2240 N.am      1 NAP500      0.0000 
     42 C4N        28.8140   17.3020   -0.7510 C.ar      1 NAP500      0.0000 
     43 C5N        27.6400   17.9040   -1.2070 C.ar      1 NAP500      0.0000 
     44 C6N        27.7090   19.0000   -2.0710 C.ar      1 NAP500      0.0000 
     45 P2B        38.4870   28.5220   -6.3020 P.3       1 NAP500      0.0000 
     46 O1X        39.0270   29.0360   -7.6240 O.co2     1 NAP500      0.0000 
     47 O2X        38.4420   29.5580   -5.1870 O.co2     1 NAP500      0.0000 
     48 O3X        39.2580   27.3300   -5.8120 O.co2     1 NAP500      0.0000 
     49 H          35.0042   25.1715   -3.6765 H         1 NAP500      0.0000 
     50 H          33.6766   24.2265   -4.3726 H         1 NAP500      0.0000 
     51 H          34.5667   24.6306   -6.5984 H         1 NAP500      0.0000 
     52 H          36.9262   25.3296   -5.3234 H         1 NAP500      0.0000 
     53 H          36.2971   27.4337   -4.7671 H         1 NAP500      0.0000 
     54 H          34.6365   27.6541   -7.1821 H         1 NAP500      0.0000 
     55 H          34.3577   28.2056   -3.3931 H         1 NAP500      0.0000 
     56 H          33.9747   34.1047   -4.7132 H         1 NAP500      0.0000 
     57 H          33.2555   32.9201   -3.5709 H         1 NAP500      0.0000 
     58 H          34.0404   31.9312   -8.6508 H         1 NAP500      0.0000 
     59 H          32.0432   20.6102   -5.6855 H         1 NAP500      0.0000 
     60 H          32.0917   22.3811   -5.7243 H         1 NAP500      0.0000 
     61 H          29.8294   21.7024   -5.9191 H         1 NAP500      0.0000 
     62 H          30.6111   23.3080   -3.8290 H         1 NAP500      0.0000 
     63 H          30.3405   21.6980   -2.2392 H         1 NAP500      0.0000 
     64 H          27.9911   20.7800   -3.8035 H         1 NAP500      0.0000 
     65 H          31.0218   19.2747   -2.3178 H         1 NAP500      0.0000 
     66 H          32.5379   18.2104   -1.8683 H         1 NAP500      0.0000 
     67 H          33.2866   16.9016   -0.8926 H         1 NAP500      0.0000 
     68 H          28.7733   16.4933   -0.1284 H         1 NAP500      0.0000 
     69 H          26.7276   17.5428   -0.9086 H         1 NAP500      0.0000 
     70 H          26.8452   19.4385   -2.4069 H         1 NAP500      0.0000 
     71 H          37.3876   26.2037   -7.5384 H         1 NAP500      0.0000 
     72 H          28.7320   23.1195   -5.5611 H         1 NAP500      0.0000 
     73 H          28.9262   23.1316   -1.3830 H         1 NAP500      0.0000 
@<TRIPOS>BOND
     1    2    1 ar   
     2    3    1 ar   
     3    4    1 1    
     4   23    1 1    
     5    5    4 1    
     6    6    5 1    
     7   49    5 1    
     8   50    5 1    
     9    7    6 1    
    10    8    6 1    
    11   51    6 1    
    12   12    7 1    
    13    9    8 1    
    14   10    8 1    
    15   52    8 1    
    16   71    9 1    
    17   11   10 1    
    18   12   10 1    
    19   53   10 1    
    20   45   11 1    
    21   13   12 1    
    22   54   12 1    
    23   14   13 1    
    24   22   13 1    
    25   15   14 2    
    26   55   14 1    
    27   16   15 1    
    28   17   16 ar   
    29   22   16 ar   
    30   18   17 1    
    31   19   17 ar   
    32   56   18 1    
    33   57   18 1    
    34   20   19 ar   
    35   21   20 ar   
    36   58   20 1    
    37   22   21 ar   
    38   24   23 1    
    39   25   24 ar   
    40   26   24 ar   
    41   27   24 1    
    42   28   27 1    
    43   29   28 1    
    44   59   28 1    
    45   60   28 1    
    46   30   29 1    
    47   31   29 1    
    48   61   29 1    
    49   35   30 1    
    50   32   31 1    
    51   33   31 1    
    52   62   31 1    
    53   72   32 1    
    54   34   33 1    
    55   35   33 1    
    56   63   33 1    
    57   73   34 1    
    58   36   35 1    
    59   64   35 1    
    60   37   36 ar   
    61   44   36 ar   
    62   38   37 ar   
    63   65   37 1    
    64   39   38 1    
    65   42   38 ar   
    66   40   39 2    
    67   41   39 am   
    68   66   41 1    
    69   67   41 1    
    70   43   42 ar   
    71   68   42 1    
    72   44   43 ar   
    73   69   43 1    
    74   70   44 1    
    75   46   45 ar   
    76   47   45 ar   
    77   48   45 ar   
@<TRIPOS>SUBSTRUCTURE
     1 NAP500      1 GROUP   
@<TRIPOS>SET

