#    Name: 1k2t_PTU_2_INTS_M
#    Modification time : Tue Mar 25 09:35:39 2014

@<TRIPOS>MOLECULE
1k2t_PTU_2_INTS_M
   29     0     6     0     0
SMALL
NO_CHARGES


@<TRIPOS>ATOM
      1 O          10.0860   -2.6515   59.3015 O.2       1 ALC1        0.0000 
      2 O          11.0100   -1.5470   58.7770 O.2       5 ALL1        0.0000 
      3 O           9.1620   -3.7560   59.8260 O.2       3 ALP1        0.0000 
      4 O          12.4110   -1.4860   57.7570 O.2       1 ALC1        0.0000 
      5 O          13.8120   -1.4250   56.7370 O.2       3 ALP1        0.0000 
      6 O          11.5560   -2.1870   57.7200 O.2       1 ALC1        0.0000 
      7 O          12.1020   -2.8270   56.6630 O.2       3 ALP1        0.0000 
      8 O          13.2015   -0.6725   57.8215 O.2       1 ALC1        0.0000 
      9 O          12.5910    0.0800   58.9060 O.2       5 ALL1        0.0000 
     10 CA         12.0575   -0.8345   62.1555 C.3       2 GLC5        0.0000 
     11 CA         11.4540    0.9660   61.9910 C.3       6 GLL5        0.0000 
     12 CA         12.6610   -2.6350   62.3200 C.3       4 GLP5        0.0000 
     13 CA         12.6625    3.3320   62.1225 C.3       2 GLC5        0.0000 
     14 CA         10.9110    2.3080   62.4720 C.3       6 GLL5        0.0000 
     15 CA         14.4140    4.3560   61.7730 C.3       4 GLP5        0.0000 
     16 CA         10.6625    3.8160   63.1895 C.3       2 GLC5        0.0000 
     17 CA         10.4140    5.3240   63.9070 C.3       4 GLP5        0.0000 
     18 CA         11.7935   -1.3340   61.1508 C.3       2 GLC5        0.0000 
     19 CA         10.4250    0.3580   60.6240 C.3       6 GLL5        0.0000 
     20 CA          9.5847   -0.3365   62.6543 C.3       2 GLC5        0.0000 
     21 CA          8.2300   -1.3350   64.0010 C.3       4 GLP5        0.0000 
     22 CA         14.1288    2.8732   60.2615 C.3       2 GLC5        0.0000 
     23 CA         13.1330    1.3400   58.8050 C.3       6 GLL5        0.0000 
     24 CA         14.6077    3.8385   60.1805 C.3       2 GLC5        0.0000 
     25 CA         14.4130    3.9150   58.5910 C.3       6 GLL5        0.0000 
     26 CA         13.5512    3.7775   60.2640 C.3       2 GLC5        0.0000 
     27 CA         13.0110    3.8290   58.7020 C.3       6 GLL5        0.0000 
     28 CA         10.8042    1.3565   64.0798 C.3       2 GLC5        0.0000 
     29 CA         10.4260    1.0760   65.9280 C.3       4 GLP5        0.0000 
@<TRIPOS>BOND
@<TRIPOS>SUBSTRUCTURE
     1 ALC1        1 GROUP        1 X    ALC  0     ROOT ALC X 1
     2 GLC5       10 GROUP        1 X    GLC  0     **** GLC X 6
     3 ALP1        3 GROUP        1 Y    ALP  0     ROOT ALP Y 8
     4 GLP5       12 GROUP        1 Y    GLP  0     **** GLP Y 13
     5 ALL1        2 GROUP        1 Z    ALL  0     ROOT ALL Z 15
     6 GLL5       11 GROUP        1 Z    GLL  0     **** GLL Z 20
@<TRIPOS>SET

