#    Name: 1k2t_PTU_2_ligand
#    Modification time : Tue Mar 25 09:35:39 2014

@<TRIPOS>MOLECULE
1k2t_PTU_2_ligand
   25    25     1     0     0
SMALL
NO_CHARGES


@<TRIPOS>ATOM
      1 N1         11.0100   -1.5470   58.7770 N.pl3     1 PTU2810     0.0000 
      2 C          11.4270   -0.4240   59.3390 C.2       1 PTU2810     0.0000 
      3 S          10.4250    0.3580   60.6240 S.3       1 PTU2810     0.0000 
      4 N2         12.5910    0.0800   58.9060 N.pl3     1 PTU2810     0.0000 
      5 C1         13.1330    1.3400   58.8050 C.ar      1 PTU2810     0.0000 
      6 C2         14.5540    1.4410   58.6950 C.ar      1 PTU2810     0.0000 
      7 C3         15.1900    2.7270   58.5850 C.ar      1 PTU2810     0.0000 
      8 C4         14.4130    3.9150   58.5910 C.ar      1 PTU2810     0.0000 
      9 C5         13.0110    3.8290   58.7020 C.ar      1 PTU2810     0.0000 
     10 C6         12.3660    2.5690   58.8080 C.ar      1 PTU2810     0.0000 
     11 C1'        11.4540    0.9660   61.9910 C.3       1 PTU2810     0.0000 
     12 C2'        10.9110    2.3080   62.4720 C.3       1 PTU2810     0.0000 
     13 H          11.5885   -1.9163   58.0497 H         1 PTU2810     0.0000 
     14 H          10.1542   -1.9246   59.1306 H         1 PTU2810     0.0000 
     15 H          13.3163   -0.7241   58.5264 H         1 PTU2810     0.0000 
     16 H          15.1253    0.5984   58.6940 H         1 PTU2810     0.0000 
     17 H          16.2036    2.7762   58.5028 H         1 PTU2810     0.0000 
     18 H          14.8702    4.8209   58.5154 H         1 PTU2810     0.0000 
     19 H          12.4452    4.6851   58.7067 H         1 PTU2810     0.0000 
     20 H          11.3508    2.5148   58.8878 H         1 PTU2810     0.0000 
     21 H          12.4115    1.0272   61.5442 H         1 PTU2810     0.0000 
     22 H          11.3664    0.1887   62.7039 H         1 PTU2810     0.0000 
     23 H          11.3766    2.6220   63.2995 H         1 PTU2810     0.0000 
     24 H          11.0246    3.0233   61.7825 H         1 PTU2810     0.0000 
     25 H           9.9353    2.2589   62.6854 H         1 PTU2810     0.0000 
@<TRIPOS>BOND
     1    2    1 2    
     2   13    1 1    
     3   14    1 1    
     4    3    2 1    
     5    4    2 1    
     6   11    3 1    
     7    5    4 1    
     8   15    4 1    
     9    6    5 ar   
    10   10    5 ar   
    11    7    6 ar   
    12   16    6 1    
    13    8    7 ar   
    14   17    7 1    
    15    9    8 ar   
    16   18    8 1    
    17   10    9 ar   
    18   19    9 1    
    19   20   10 1    
    20   12   11 1    
    21   21   11 1    
    22   22   11 1    
    23   23   12 1    
    24   24   12 1    
    25   25   12 1    
@<TRIPOS>SUBSTRUCTURE
     1 PTU2810     1 GROUP   
@<TRIPOS>SET

