#    Name: 4l7f_1V5_1_INTS_M
#    Modification time : Mon Apr  7 23:57:09 2014

@<TRIPOS>MOLECULE
4l7f_1V5_1_INTS_M
   82     0     9     0     0
SMALL
NO_CHARGES


@<TRIPOS>ATOM
      1 CA         -3.1865   49.7065    0.0950 C.3       3 GLC5        0.0000 
      2 CA         -2.6480   51.2640   -1.2040 C.3       9 GLL5        0.0000 
      3 CA         -3.7250   48.1490    1.3940 C.3       6 GLP5        0.0000 
      4 N          -5.2440   52.3830   -1.0170 N.am      2 SEC2        0.0000 
      5 N          -4.9390   52.5880    0.4160 N.am      8 SEL2        0.0000 
      6 N          -5.5490   52.1780   -2.4500 N.am      5 SEP2        0.0000 
      7 CA         -7.1265   52.5405    2.0775 C.3       3 GLC5        0.0000 
      8 CA         -5.4690   52.2410    3.2620 C.3       9 GLL5        0.0000 
      9 CA         -8.7840   52.8400    0.8930 C.3       6 GLP5        0.0000 
     10 CA         -7.7940   53.2135    4.6445 C.3       3 GLC5        0.0000 
     11 CA         -5.7330   52.3190    4.6360 C.3       9 GLL5        0.0000 
     12 CA         -9.8550   54.1080    4.6530 C.3       6 GLP5        0.0000 
     13 N          -9.1385   50.6615    7.8120 N.am      2 SEC2        0.0000 
     14 N          -8.2490   51.1750    6.8080 N.am      8 SEL2        0.0000 
     15 N         -10.0280   50.1480    8.8160 N.am      5 SEP2        0.0000 
     16 CA        -10.2875   51.1015    6.7960 C.3       3 GLC5        0.0000 
     17 CA         -8.7250   50.7080    5.6390 C.3       9 GLL5        0.0000 
     18 CA        -11.8500   51.4950    7.9530 C.3       6 GLP5        0.0000 
     19 CA         -8.9940   49.0780    6.7290 C.3       3 GLC5        0.0000 
     20 CA         -9.2630   47.4480    7.8190 C.3       6 GLP5        0.0000 
     21 CA         -8.3090   51.0665    2.6635 C.3       3 GLC5        0.0000 
     22 CA         -7.8550   51.0730    4.6750 C.3       9 GLL5        0.0000 
     23 CA         -8.7630   51.0600    0.6520 C.3       6 GLP5        0.0000 
     24 CA         -6.2305   49.9995    5.7975 C.3       3 GLC5        0.0000 
     25 CA         -4.6060   48.9260    6.9200 C.3       6 GLP5        0.0000 
     26 CA         -6.7540   49.8440    3.7765 C.3       3 GLC5        0.0000 
     27 CA         -5.6530   48.6150    2.8780 C.3       6 GLP5        0.0000 
     28 CA         -5.9850   54.5180    6.3205 C.3       3 GLC5        0.0000 
     29 CA         -4.8240   52.9450    5.4730 C.3       9 GLL5        0.0000 
     30 CA         -7.1460   56.0910    7.1680 C.3       6 GLP5        0.0000 
     31 O          -7.2550   51.7660    9.6505 O.2       1 ALC1        0.0000 
     32 O          -6.4090   52.5390    8.6890 O.2       7 ALL1        0.0000 
     33 O          -8.1010   50.9930   10.6120 O.2       4 ALP1        0.0000 
     34 CA         -8.1505   53.9690    9.6835 C.3       3 GLC5        0.0000 
     35 CA         -6.3670   53.9820   10.6460 C.3       9 GLL5        0.0000 
     36 CA         -9.9340   53.9560    8.7210 C.3       6 GLP5        0.0000 
     37 CA         -5.9675   56.4055   10.5265 C.3       3 GLC5        0.0000 
     38 CA         -5.4440   54.7180   11.6090 C.3       9 GLL5        0.0000 
     39 CA         -6.4910   58.0930    9.4440 C.3       6 GLP5        0.0000 
     40 N          -2.1835   53.7910   13.4450 N.am      2 SEC2        0.0000 
     41 N          -3.4980   54.4440   13.0520 N.am      8 SEL2        0.0000 
     42 N          -0.8690   53.1380   13.8380 N.am      5 SEP2        0.0000 
     43 CA         -4.7127   55.6900   -2.5125 C.3       3 GLC5        0.0000 
     44 CA         -3.2780   57.4580   -3.2320 C.3       9 GLL5        0.0000 
     45 CA         -6.2720   54.5210   -2.0940 C.3       6 GLP5        0.0000 
     46 CA         -2.4174   58.2970   -2.2870 C.3       3 GLC5        0.0000 
     47 CA         -3.0290   56.2600   -2.6300 C.3       9 GLL5        0.0000 
     48 CA         -1.7470   60.0590   -2.4830 C.3       6 GLP5        0.0000 
     49 CA         -3.7030   56.2023    0.5275 C.3       3 GLC5        0.0000 
     50 CA         -3.0220   56.2110   -1.2510 C.3       9 GLL5        0.0000 
     51 CA         -4.5000   56.7920    1.9750 C.3       6 GLP5        0.0000 
     52 CA         -1.1724   56.2627   -3.9250 C.3       3 GLC5        0.0000 
     53 CA          0.6280   56.5450   -4.7020 C.3       6 GLP5        0.0000 
     54 CA         -4.2389   56.1827   -4.2270 C.3       3 GLC5        0.0000 
     55 CA         -2.7920   55.1020   -3.3650 C.3       9 GLL5        0.0000 
     56 CA         -5.5050   56.3850   -5.3060 C.3       6 GLP5        0.0000 
     57 CA         -1.6635   49.6723   -1.9030 C.3       3 GLC5        0.0000 
     58 CA         -1.4020   47.8920   -2.7580 C.3       6 GLP5        0.0000 
     59 CA         -4.1857   54.9690    2.5613 C.3       3 GLC5        0.0000 
     60 CA         -4.3190   52.8220    2.7200 C.3       9 GLL5        0.0000 
     61 CA         -3.6147   51.3200    3.2722 C.3       3 GLC5        0.0000 
     62 CA         -3.4240   53.4700    3.5750 C.3       9 GLL5        0.0000 
     63 CA         -3.3580   49.4940    3.3970 C.3       6 GLP5        0.0000 
     64 CA         -5.3892   54.7943    4.2520 C.3       3 GLC5        0.0000 
     65 CA         -3.6870   53.5360    4.9330 C.3       9 GLL5        0.0000 
     66 CA         -6.5230   56.3480    3.3010 C.3       6 GLP5        0.0000 
     67 CA         -3.8068   51.3672    4.3000 C.3       3 GLC5        0.0000 
     68 CA         -6.0620   54.3140    3.6250 C.3       3 GLC5        0.0000 
     69 CA         -4.4795   50.8870    3.6730 C.3       3 GLC5        0.0000 
     70 CA         -4.9422   50.7790    5.9873 C.3       3 GLC5        0.0000 
     71 CA         -9.0725   52.4993    4.9050 C.3       3 GLC5        0.0000 
     72 CA         -8.9620   49.0498    4.3420 C.3       3 GLC5        0.0000 
     73 CA         -9.6340   47.2090    3.5270 C.3       6 GLP5        0.0000 
     74 CA         -6.5507   54.8500    8.6460 C.3       3 GLC5        0.0000 
     75 CA         -5.5440   53.2360    9.6020 C.3       9 GLL5        0.0000 
     76 CA         -2.5992   51.2185   10.0075 C.3       3 GLC5        0.0000 
     77 CA         -4.5960   52.2350   10.2740 C.3       9 GLL5        0.0000 
     78 CA         -1.0810   49.8100    9.3050 C.3       6 GLP5        0.0000 
     79 CA         -4.3321   51.2885   12.1035 C.3       3 GLC5        0.0000 
     80 CA         -4.3900   49.3840   12.7370 C.3       6 GLP5        0.0000 
     81 CA         -4.4841   54.5658   -2.0870 C.3       3 GLC5        0.0000 
     82 CA         -2.7900   55.0140   -0.5890 C.3       9 GLL5        0.0000 
@<TRIPOS>BOND
@<TRIPOS>SUBSTRUCTURE
     1 ALC1       31 GROUP        1 X    ALC  0     ROOT ALC X 1
     2 SEC2        4 GROUP        1 X    SEC  0     **** SEC X 2
     3 GLC5        1 GROUP        1 X    GLC  0     **** GLC X 6
     4 ALP1       33 GROUP        1 Y    ALP  0     ROOT ALP Y 8
     5 SEP2        6 GROUP        1 Y    SEP  0     **** SEP Y 9
     6 GLP5        3 GROUP        1 Y    GLP  0     **** GLP Y 13
     7 ALL1       32 GROUP        1 Z    ALL  0     ROOT ALL Z 15
     8 SEL2        5 GROUP        1 Z    SEL  0     **** SEL Z 16
     9 GLL5        2 GROUP        1 Z    GLL  0     **** GLL Z 20
@<TRIPOS>SET

