#    Name: 4l7f_1V5_1_ligand
#    Modification time : Mon Apr  7 23:57:09 2014

@<TRIPOS>MOLECULE
4l7f_1V5_1_ligand
   60    65     1     0     0
SMALL
NO_CHARGES


@<TRIPOS>ATOM
      1 F60        -3.2780   57.4580   -3.2320 F         1 1V5401      0.0000 
      2 C53        -3.0290   56.2600   -2.6300 C.ar      1 1V5401      0.0000 
      3 C52        -3.0220   56.2110   -1.2510 C.ar      1 1V5401      0.0000 
      4 C51        -2.7900   55.0140   -0.5890 C.ar      1 1V5401      0.0000 
      5 C54        -2.7920   55.1020   -3.3650 C.ar      1 1V5401      0.0000 
      6 C55        -2.5500   53.8850   -2.7220 C.ar      1 1V5401      0.0000 
      7 C50        -2.5370   53.8430   -1.3130 C.ar      1 1V5401      0.0000 
      8 C16        -2.3240   52.5930   -0.5160 C.3       1 1V5401      0.0000 
      9 C47        -1.2020   51.6410   -0.8920 C.3       1 1V5401      0.0000 
     10 C31        -2.6480   51.2640   -1.2040 C.3       1 1V5401      0.0000 
     11 N48        -2.7460   52.6830    0.8710 N.am      1 1V5401      0.0000 
     12 C27        -4.0330   52.7190    1.2420 C.2       1 1V5401      0.0000 
     13 O30        -4.9390   52.5880    0.4160 O.2       1 1V5401      0.0000 
     14 C39        -4.3190   52.8220    2.7200 C.ar      1 1V5401      0.0000 
     15 C45        -3.4240   53.4700    3.5750 C.ar      1 1V5401      0.0000 
     16 C37        -3.6870   53.5360    4.9330 C.ar      1 1V5401      0.0000 
     17 C40        -5.4690   52.2410    3.2620 C.ar      1 1V5401      0.0000 
     18 C32        -5.7330   52.3190    4.6360 C.ar      1 1V5401      0.0000 
     19 N41        -6.8500   51.7290    5.2370 N.pl3     1 1V5401      0.0000 
     20 C44        -7.0880   51.8120    6.5560 C.2       1 1V5401      0.0000 
     21 N28        -8.2490   51.1750    6.8080 N.2       1 1V5401      0.0000 
     22 C46        -8.7250   50.7080    5.6390 C.2       1 1V5401      0.0000 
     23 C18        -7.8550   51.0730    4.6750 C.2       1 1V5401      0.0000 
     24 C43        -6.1590   52.4640    7.3630 C.2       1 1V5401      0.0000 
     25 N42        -5.0500   53.0100    6.8090 N.2       1 1V5401      0.0000 
     26 C33        -4.8240   52.9450    5.4730 C.ar      1 1V5401      0.0000 
     27 N34        -6.4090   52.5390    8.6890 N.pl3     1 1V5401      0.0000 
     28 C26        -5.5440   53.2360    9.6020 C.3       1 1V5401      0.0000 
     29 C35        -4.5960   52.2350   10.2740 C.3       1 1V5401      0.0000 
     30 C19        -3.6390   53.0190   11.1460 C.3       1 1V5401      0.0000 
     31 C21        -6.3670   53.9820   10.6460 C.3       1 1V5401      0.0000 
     32 C36        -5.4440   54.7180   11.6090 C.3       1 1V5401      0.0000 
     33 C20        -4.4310   53.7590   12.2300 C.3       1 1V5401      0.0000 
     34 O17        -3.4980   54.4440   13.0520 O.3       1 1V5401      0.0000 
     35 H          -3.1908   57.0721   -0.7032 H         1 1V5401      0.0000 
     36 H          -2.8028   54.9811    0.4401 H         1 1V5401      0.0000 
     37 H          -2.7945   55.1399   -4.3963 H         1 1V5401      0.0000 
     38 H          -2.3845   53.0363   -3.2595 H         1 1V5401      0.0000 
     39 H          -0.9460   51.1707   -0.1113 H         1 1V5401      0.0000 
     40 H          -0.8095   51.9566   -1.6936 H         1 1V5401      0.0000 
     41 H          -2.7996   51.4491   -2.1173 H         1 1V5401      0.0000 
     42 H          -2.9361   50.6633   -0.5350 H         1 1V5401      0.0000 
     43 H          -1.9730   52.7189    1.5793 H         1 1V5401      0.0000 
     44 H          -2.5709   53.8965    3.1903 H         1 1V5401      0.0000 
     45 H          -3.0273   54.0333    5.5591 H         1 1V5401      0.0000 
     46 H          -6.1320   51.7488    2.6447 H         1 1V5401      0.0000 
     47 H          -9.5342   50.2073    5.5126 H         1 1V5401      0.0000 
     48 H          -7.9603   50.8801    3.7281 H         1 1V5401      0.0000 
     49 H          -7.2552   52.0844    9.1027 H         1 1V5401      0.0000 
     50 H          -4.9347   53.9605    9.0715 H         1 1V5401      0.0000 
     51 H          -4.0493   51.7014    9.5149 H         1 1V5401      0.0000 
     52 H          -5.1713   51.5542   10.8786 H         1 1V5401      0.0000 
     53 H          -3.1020   53.7425   10.5443 H         1 1V5401      0.0000 
     54 H          -2.9364   52.3440   11.6199 H         1 1V5401      0.0000 
     55 H          -6.9743   53.2722   11.2001 H         1 1V5401      0.0000 
     56 H          -7.0149   54.6982   10.1491 H         1 1V5401      0.0000 
     57 H          -6.0376   55.1742   12.4003 H         1 1V5401      0.0000 
     58 H          -4.9124   55.5021   11.0713 H         1 1V5401      0.0000 
     59 H          -4.9723   53.0102   12.7994 H         1 1V5401      0.0000 
     60 H          -4.0261   54.7480   13.8449 H         1 1V5401      0.0000 
@<TRIPOS>BOND
     1    2    1 1    
     2    3    2 ar   
     3    5    2 ar   
     4    4    3 ar   
     5   35    3 1    
     6    7    4 ar   
     7   36    4 1    
     8    6    5 ar   
     9   37    5 1    
    10    7    6 ar   
    11   38    6 1    
    12    8    7 1    
    13    9    8 1    
    14   10    8 1    
    15   11    8 1    
    16   10    9 1    
    17   39    9 1    
    18   40    9 1    
    19   41   10 1    
    20   42   10 1    
    21   12   11 am   
    22   43   11 1    
    23   13   12 2    
    24   14   12 1    
    25   15   14 ar   
    26   17   14 ar   
    27   16   15 ar   
    28   44   15 1    
    29   26   16 ar   
    30   45   16 1    
    31   18   17 ar   
    32   46   17 1    
    33   19   18 1    
    34   26   18 ar   
    35   20   19 1    
    36   23   19 1    
    37   21   20 2    
    38   24   20 1    
    39   22   21 1    
    40   23   22 2    
    41   47   22 1    
    42   48   23 1    
    43   25   24 2    
    44   27   24 1    
    45   26   25 1    
    46   28   27 1    
    47   49   27 1    
    48   29   28 1    
    49   31   28 1    
    50   50   28 1    
    51   30   29 1    
    52   51   29 1    
    53   52   29 1    
    54   33   30 1    
    55   53   30 1    
    56   54   30 1    
    57   32   31 1    
    58   55   31 1    
    59   56   31 1    
    60   33   32 1    
    61   57   32 1    
    62   58   32 1    
    63   34   33 1    
    64   59   33 1    
    65   60   34 1    
@<TRIPOS>SUBSTRUCTURE
     1 1V5401      1 GROUP   
@<TRIPOS>SET

