#    Name: 7upj_INU_1_INTS_M
#    Modification time : Tue Mar 25 13:58:43 2014

@<TRIPOS>MOLECULE
7upj_INU_1_INTS_M
   62     0     9     0     0
SMALL
NO_CHARGES


@<TRIPOS>ATOM
      1 N          10.4335   21.5640    5.6845 N.am      2 SEC2        0.0000 
      2 N          11.4470   22.5440    6.0220 N.am      8 SEL2        0.0000 
      3 N           9.4200   20.5840    5.3470 N.am      5 SEP2        0.0000 
      4 CA         13.9335   21.2855    4.7870 C.3       3 GLC5        0.0000 
      5 CA         14.8300   22.4030    6.4230 C.3       9 GLL5        0.0000 
      6 CA         13.0370   20.1680    3.1510 C.3       6 GLP5        0.0000 
      7 N          15.0165   25.7265    3.5795 N.am      2 SEC2        0.0000 
      8 N          14.7250   25.6750    4.8300 N.am      8 SEL2        0.0000 
      9 N          15.3080   25.7780    2.3290 N.am      5 SEP2        0.0000 
     10 O          15.3840   26.5700    5.5630 O.2       1 ALC1        0.0000 
     11 O          14.7250   25.6750    4.8300 O.2       7 ALL1        0.0000 
     12 O          16.0430   27.4650    6.2960 O.2       4 ALP1        0.0000 
     13 CA          8.9045   24.2490    5.9585 C.3       3 GLC5        0.0000 
     14 CA          9.8720   26.1000    5.9490 C.3       9 GLL5        0.0000 
     15 CA          7.9370   22.3980    5.9680 C.3       6 GLP5        0.0000 
     16 CA          9.4355   23.3930    4.9025 C.3       3 GLC5        0.0000 
     17 CA         10.9340   24.3880    3.8370 C.3       9 GLL5        0.0000 
     18 CA         11.0375   26.5085    1.1455 C.3       3 GLC5        0.0000 
     19 CA         10.2150   25.1970    2.7750 C.3       9 GLL5        0.0000 
     20 CA         11.8600   27.8200   -0.4840 C.3       6 GLP5        0.0000 
     21 CA          8.7605   23.5540    2.2995 C.3       3 GLC5        0.0000 
     22 CA          7.3060   21.9110    1.8240 C.3       6 GLP5        0.0000 
     23 CA         16.1855   25.5290    8.9120 C.3       3 GLC5        0.0000 
     24 CA         17.3020   24.6280    7.2520 C.3       9 GLL5        0.0000 
     25 CA         15.0690   26.4300   10.5720 C.3       6 GLP5        0.0000 
     26 CA         18.1890   23.5225    4.4175 C.3       3 GLC5        0.0000 
     27 CA         16.7370   24.0090    5.9090 C.3       9 GLL5        0.0000 
     28 CA         19.6410   23.0360    2.9260 C.3       6 GLP5        0.0000 
     29 O           7.2425   26.0025    6.7515 O.2       1 ALC1        0.0000 
     30 O           7.8910   27.2770    6.9080 O.2       7 ALL1        0.0000 
     31 O           6.5940   24.7280    6.5950 O.2       4 ALP1        0.0000 
     32 N           9.4485   30.7995    6.0605 N.am      2 SEC2        0.0000 
     33 N           8.5110   29.6400    6.4390 N.am      8 SEL2        0.0000 
     34 N          10.3860   31.9590    5.6820 N.am      5 SEP2        0.0000 
     35 CA          8.2950   26.1035    0.1255 C.3       3 GLC5        0.0000 
     36 CA          7.4070   27.4080    1.7260 C.3       9 GLL5        0.0000 
     37 CA          9.1830   24.7990   -1.4750 C.3       6 GLP5        0.0000 
     38 CA         10.1745   28.0030    0.8525 C.3       3 GLC5        0.0000 
     39 CA          8.4890   28.1860    2.1890 C.3       9 GLL5        0.0000 
     40 CA         11.9261   28.6275    7.3044 C.3       3 GLC5        0.0000 
     41 CA         12.0820   26.4400    6.9430 C.3       9 GLL5        0.0000 
     42 CA         12.9050   30.0860    6.9140 C.3       6 GLP5        0.0000 
     43 CA         11.2931   26.0015    9.2124 C.3       3 GLC5        0.0000 
     44 CA         11.4870   27.2460    7.9300 C.3       9 GLL5        0.0000 
     45 CA         11.6390   24.8340   10.7300 C.3       6 GLP5        0.0000 
     46 CA         11.3585   22.1520    3.2690 C.3       3 GLC5        0.0000 
     47 CA         11.5690   19.9750    3.4280 C.3       6 GLP5        0.0000 
     48 CA          9.9857   24.7662    0.5520 C.3       3 GLC5        0.0000 
     49 CA         11.3620   24.2700    2.3830 C.3       9 GLL5        0.0000 
     50 CA         11.7498   24.4363    0.8880 C.3       3 GLC5        0.0000 
     51 CA         12.7110   24.1390   -0.8030 C.3       6 GLP5        0.0000 
     52 CA         14.4383   20.2417    7.8574 C.3       3 GLC5        0.0000 
     53 CA         13.2380   18.7590    8.0770 C.3       6 GLP5        0.0000 
     54 CA         17.6075   23.4360   10.4605 C.3       3 GLC5        0.0000 
     55 CA         16.2140   22.9870    8.9940 C.3       9 GLL5        0.0000 
     56 CA         18.3620   23.5490   12.2030 C.3       6 GLP5        0.0000 
     57 CA         15.9610   24.8765    9.6450 C.3       3 GLC5        0.0000 
     58 CA         17.4920   23.6590    8.4420 C.3       9 GLL5        0.0000 
     59 CA         19.0205   24.9733    8.2045 C.3       3 GLC5        0.0000 
     60 CA         20.6440   25.8030    8.5620 C.3       6 GLP5        0.0000 
     61 CA         18.5177   25.3263    5.6898 C.3       3 GLC5        0.0000 
     62 CA         20.0160   26.3340    4.7990 C.3       6 GLP5        0.0000 
@<TRIPOS>BOND
@<TRIPOS>SUBSTRUCTURE
     1 ALC1       10 GROUP        1 X    ALC  0     ROOT ALC X 1
     2 SEC2        1 GROUP        1 X    SEC  0     **** SEC X 2
     3 GLC5        4 GROUP        1 X    GLC  0     **** GLC X 6
     4 ALP1       12 GROUP        1 Y    ALP  0     ROOT ALP Y 8
     5 SEP2        3 GROUP        1 Y    SEP  0     **** SEP Y 9
     6 GLP5        6 GROUP        1 Y    GLP  0     **** GLP Y 13
     7 ALL1       11 GROUP        1 Z    ALL  0     ROOT ALL Z 15
     8 SEL2        2 GROUP        1 Z    SEL  0     **** SEL Z 16
     9 GLL5        5 GROUP        1 Z    GLL  0     **** GLL Z 20
@<TRIPOS>SET

