#    Name: 7upj_INU_1_ligand
#    Modification time : Tue Mar 25 13:58:43 2014

@<TRIPOS>MOLECULE
7upj_INU_1_ligand
   63    67     1     0     0
SMALL
NO_CHARGES


@<TRIPOS>ATOM
      1 CA         12.9630   24.1000    5.3730 C.2       1 INU100      0.0000 
      2 CA2        12.5940   22.8440    5.9470 C.2       1 INU100      0.0000 
      3 OA2        11.4470   22.5440    6.0220 O.2       1 INU100      0.0000 
      4 OA3        13.4860   21.9770    6.4690 O.3       1 INU100      0.0000 
      5 CA4        14.8300   22.4030    6.4230 C.2       1 INU100      0.0000 
      6 CA5        15.2710   23.6230    5.8890 C.2       1 INU100      0.0000 
      7 CA6        14.3120   24.4820    5.3550 C.2       1 INU100      0.0000 
      8 OA6        14.7250   25.6750    4.8300 O.3       1 INU100      0.0000 
      9 CB1        11.2720   25.8560    5.9360 C.ar      1 INU100      0.0000 
     10 CB2        12.0820   26.4400    6.9430 C.ar      1 INU100      0.0000 
     11 CB3        11.4870   27.2460    7.9300 C.ar      1 INU100      0.0000 
     12 CB4        10.1100   27.4950    7.9530 C.ar      1 INU100      0.0000 
     13 CB5         9.2800   26.9260    6.9500 C.ar      1 INU100      0.0000 
     14 CB6         9.8720   26.1000    5.9490 C.ar      1 INU100      0.0000 
     15 CG1        11.9100   25.0510    4.8330 C.3       1 INU100      0.0000 
     16 CG2        10.9340   24.3880    3.8370 C.3       1 INU100      0.0000 
     17 CG3        11.3620   24.2700    2.3830 C.3       1 INU100      0.0000 
     18 CG4        10.2150   25.1970    2.7750 C.3       1 INU100      0.0000 
     19 CD1        15.7680   21.3830    7.0500 C.3       1 INU100      0.0000 
     20 CD2        15.9780   21.5560    8.5390 C.3       1 INU100      0.0000 
     21 CD3        16.2140   22.9870    8.9940 C.3       1 INU100      0.0000 
     22 CD4        17.4920   23.6590    8.4420 C.3       1 INU100      0.0000 
     23 CD5        17.3020   24.6280    7.2520 C.3       1 INU100      0.0000 
     24 CD6        16.7370   24.0090    5.9090 C.3       1 INU100      0.0000 
     25 N           7.8910   27.2770    6.9080 N.pl3     1 INU100      0.0000 
     26 S           7.5030   28.6780    6.0930 S.o2      1 INU100      0.0000 
     27 O1          6.1590   28.9700    6.5430 O.2       1 INU100      0.0000 
     28 O2          8.5110   29.6400    6.4390 O.2       1 INU100      0.0000 
     29 CE1         7.4840   28.2200    4.4120 C.ar      1 INU100      0.0000 
     30 CE2         6.3970   27.4300    3.9370 C.ar      1 INU100      0.0000 
     31 CE3         6.3680   27.0320    2.6040 C.ar      1 INU100      0.0000 
     32 CE4         7.4070   27.4080    1.7260 C.ar      1 INU100      0.0000 
     33 CE5         8.4890   28.1860    2.1890 C.ar      1 INU100      0.0000 
     34 CE6         8.5390   28.5960    3.5280 C.ar      1 INU100      0.0000 
     35 H          13.0860   26.2739    6.9468 H         1 INU100      0.0000 
     36 H          12.0900   27.6678    8.6625 H         1 INU100      0.0000 
     37 H           9.6972   28.0778    8.6784 H         1 INU100      0.0000 
     38 H           9.2773   25.6776    5.2300 H         1 INU100      0.0000 
     39 H          12.5033   25.8120    4.2035 H         1 INU100      0.0000 
     40 H          10.3813   23.6065    4.0170 H         1 INU100      0.0000 
     41 H          10.9813   23.4780    2.0340 H         1 INU100      0.0000 
     42 H          12.1328   24.8049    2.2652 H         1 INU100      0.0000 
     43 H          10.5571   26.0790    2.7999 H         1 INU100      0.0000 
     44 H           9.4056   24.7521    2.5687 H         1 INU100      0.0000 
     45 H          16.7478   21.4377    6.5378 H         1 INU100      0.0000 
     46 H          15.3716   20.3678    6.8562 H         1 INU100      0.0000 
     47 H          16.8405   20.9343    8.8565 H         1 INU100      0.0000 
     48 H          15.0959   21.1518    9.0773 H         1 INU100      0.0000 
     49 H          16.2592   23.0147   10.1010 H         1 INU100      0.0000 
     50 H          15.3437   23.6094    8.7053 H         1 INU100      0.0000 
     51 H          18.2044   22.8642    8.1380 H         1 INU100      0.0000 
     52 H          17.9851   24.2104    9.2692 H         1 INU100      0.0000 
     53 H          18.2730   25.1069    7.0176 H         1 INU100      0.0000 
     54 H          16.6195   25.4453    7.5573 H         1 INU100      0.0000 
     55 H          16.9419   24.7436    5.0992 H         1 INU100      0.0000 
     56 H          17.3616   23.1198    5.6711 H         1 INU100      0.0000 
     57 H           7.1515   26.8105    7.2884 H         1 INU100      0.0000 
     58 H           5.6527   27.1660    4.5818 H         1 INU100      0.0000 
     59 H           5.5911   26.4621    2.2490 H         1 INU100      0.0000 
     60 H           7.3751   27.1136    0.7448 H         1 INU100      0.0000 
     61 H           9.2376   28.4496    1.5416 H         1 INU100      0.0000 
     62 H           9.3120   29.1543    3.8763 H         1 INU100      0.0000 
     63 H          15.1464   26.1622    5.5949 H         1 INU100      0.0000 
@<TRIPOS>BOND
     1    2    1 1    
     2    7    1 2    
     3   15    1 1    
     4    3    2 2    
     5    4    2 1    
     6    5    4 1    
     7    6    5 2    
     8   19    5 1    
     9    7    6 1    
    10   24    6 1    
    11    8    7 1    
    12   63    8 1    
    13   10    9 ar   
    14   14    9 ar   
    15   15    9 1    
    16   11   10 ar   
    17   35   10 1    
    18   12   11 ar   
    19   36   11 1    
    20   13   12 ar   
    21   37   12 1    
    22   14   13 ar   
    23   25   13 1    
    24   38   14 1    
    25   16   15 1    
    26   39   15 1    
    27   17   16 1    
    28   18   16 1    
    29   40   16 1    
    30   18   17 1    
    31   41   17 1    
    32   42   17 1    
    33   43   18 1    
    34   44   18 1    
    35   20   19 1    
    36   45   19 1    
    37   46   19 1    
    38   21   20 1    
    39   47   20 1    
    40   48   20 1    
    41   22   21 1    
    42   49   21 1    
    43   50   21 1    
    44   23   22 1    
    45   51   22 1    
    46   52   22 1    
    47   24   23 1    
    48   53   23 1    
    49   54   23 1    
    50   55   24 1    
    51   56   24 1    
    52   26   25 1    
    53   57   25 1    
    54   27   26 2    
    55   28   26 2    
    56   29   26 1    
    57   30   29 ar   
    58   34   29 ar   
    59   31   30 ar   
    60   58   30 1    
    61   32   31 ar   
    62   59   31 1    
    63   33   32 ar   
    64   60   32 1    
    65   34   33 ar   
    66   61   33 1    
    67   62   34 1    
@<TRIPOS>SUBSTRUCTURE
     1 INU100      1 GROUP   
@<TRIPOS>SET

