#    Name: 1C3S_1_CAVITY_N1_6.mol2
#    Modification time : Mon Mar 10 16:01:33 2014

@<TRIPOS>MOLECULE
1C3S_1_CAVITY_N1_6.mol2
   65     0     5     0     0
SMALL
NO_CHARGES


@<TRIPOS>ATOM
      1 NZ         19.8169   46.1255   42.2112 N.2       2 LYS4        0.0000 
      2 CZ         18.6203   45.8843   43.0830 C.ar      3 PHE5        0.0000 
      3 DU         21.0971   44.8978   41.0477 H         5 CUB7        0.0000 
      4 DU         19.9005   44.6566   41.9194 H         5 CUB7        0.0000 
      5 NZ         21.9142   46.1826   42.5248 N.2       2 LYS4        0.0000 
      6 NZ         20.7176   45.9413   43.3965 N.2       2 LYS4        0.0000 
      7 CZ         19.5210   45.7001   44.2683 C.ar      3 PHE5        0.0000 
      8 N          23.1943   44.9549   41.3612 N.2       1 ALA2        0.0000 
      9 DU         21.9978   44.7136   42.2330 H         5 CUB7        0.0000 
     10 DU         20.8012   44.4724   43.1047 H         5 CUB7        0.0000 
     11 CZ         19.6046   44.2311   43.9765 C.ar      3 PHE5        0.0000 
     12 N          23.2779   43.4860   41.0694 N.2       1 ALA2        0.0000 
     13 N          22.0813   43.2447   41.9412 N.2       1 ALA2        0.0000 
     14 DU         20.8848   43.0034   42.8129 H         5 CUB7        0.0000 
     15 DU         19.6882   42.7622   43.6847 H         5 CUB7        0.0000 
     16 CZ         18.4916   42.5209   44.5564 C.ar      3 PHE5        0.0000 
     17 CZ         17.2950   42.2796   45.4282 C.ar      3 PHE5        0.0000 
     18 CZ         16.0984   42.0383   46.2999 C.ar      3 PHE5        0.0000 
     19 N          22.8148   45.9984   43.7101 N.2       1 ALA2        0.0000 
     20 DU         21.6182   45.7571   44.5818 H         5 CUB7        0.0000 
     21 CZ         20.4216   45.5159   45.4536 C.ar      3 PHE5        0.0000 
     22 CA         19.2250   45.2746   46.3253 C.3       4 GLY6        0.0000 
     23 N          24.0950   44.7707   42.5465 N.2       1 ALA2        0.0000 
     24 DU         22.8984   44.5294   43.4183 H         5 CUB7        0.0000 
     25 DU         21.7018   44.2882   44.2900 H         5 CUB7        0.0000 
     26 DU         20.5052   44.0469   45.1618 H         5 CUB7        0.0000 
     27 CZ         19.3086   43.8056   46.0335 C.ar      3 PHE5        0.0000 
     28 CZ         18.1120   43.5644   46.9053 C.ar      3 PHE5        0.0000 
     29 N          24.1786   43.3018   42.2547 N.2       1 ALA2        0.0000 
     30 CA         22.9820   43.0605   43.1265 C.3       4 GLY6        0.0000 
     31 CA         21.7854   42.8192   43.9982 C.3       4 GLY6        0.0000 
     32 CA         20.5888   42.5780   44.8700 C.3       4 GLY6        0.0000 
     33 DU         19.3922   42.3367   45.7417 H         5 CUB7        0.0000 
     34 CA         18.1956   42.0954   46.6135 C.3       4 GLY6        0.0000 
     35 CA         16.9990   41.8542   47.4852 C.3       4 GLY6        0.0000 
     36 CA         23.0656   41.5915   42.8346 C.3       4 GLY6        0.0000 
     37 CA         21.8690   41.3503   43.7064 C.3       4 GLY6        0.0000 
     38 CA         20.6724   41.1090   44.5782 C.3       4 GLY6        0.0000 
     39 CA         19.4758   40.8677   45.4499 C.3       4 GLY6        0.0000 
     40 CA         18.2792   40.6265   46.3217 C.3       4 GLY6        0.0000 
     41 CA         17.0826   40.3852   47.1934 C.3       4 GLY6        0.0000 
     42 CA         20.7560   39.6400   44.2863 C.3       4 GLY6        0.0000 
     43 CZ         22.5189   45.5729   45.7671 C.ar      3 PHE5        0.0000 
     44 CZ         21.3223   45.3317   46.6389 C.ar      3 PHE5        0.0000 
     45 CZ         20.1257   45.0904   47.5106 C.ar      3 PHE5        0.0000 
     46 N          24.9956   44.5865   43.7318 N.2       1 ALA2        0.0000 
     47 CA         23.7991   44.3453   44.6035 C.3       4 GLY6        0.0000 
     48 CA         22.6025   44.1040   45.4753 C.3       4 GLY6        0.0000 
     49 DU         21.4059   43.8627   46.3470 H         5 CUB7        0.0000 
     50 CA         20.2093   43.6215   47.2188 C.3       4 GLY6        0.0000 
     51 CA         22.6861   42.6350   45.1835 C.3       4 GLY6        0.0000 
     52 CA         21.4895   42.3938   46.0552 C.3       4 GLY6        0.0000 
     53 CA         20.2929   42.1525   46.9270 C.3       4 GLY6        0.0000 
     54 CA         19.0963   41.9112   47.7987 C.3       4 GLY6        0.0000 
     55 CA         20.3765   40.6835   46.6352 C.3       4 GLY6        0.0000 
     56 CA         19.1799   40.4423   47.5069 C.3       4 GLY6        0.0000 
     57 CA         17.9833   40.2010   48.3787 C.3       4 GLY6        0.0000 
     58 CZ         21.0263   44.9062   48.6959 C.ar      3 PHE5        0.0000 
     59 N          24.6997   44.1611   45.7888 N.2       1 ALA2        0.0000 
     60 CA         23.5031   43.9198   46.6606 C.3       4 GLY6        0.0000 
     61 CA         22.3065   43.6785   47.5323 C.3       4 GLY6        0.0000 
     62 CA         21.1099   43.4373   48.4041 C.3       4 GLY6        0.0000 
     63 CA         22.3901   42.2096   47.2405 C.3       4 GLY6        0.0000 
     64 CA         21.1935   41.9683   48.1123 C.3       4 GLY6        0.0000 
     65 O          19.9969   41.7270   48.9840 O.2       1 ALA2        0.0000 
@<TRIPOS>BOND
@<TRIPOS>SUBSTRUCTURE
     1 ALA2        8 GROUP   
     2 LYS4        1 GROUP   
     3 PHE5        2 GROUP   
     4 GLY6       22 GROUP   
     5 CUB7        3 GROUP   
@<TRIPOS>SET

