#    Name: 1c3s_SHH_1_INTS_M
#    Modification time : Mon Mar 24 20:16:29 2014

@<TRIPOS>MOLECULE
1c3s_SHH_1_INTS_M
   46     0    12     0     0
SMALL
NO_CHARGES


@<TRIPOS>ATOM
      1 Zn         24.1370   34.0415   53.7650 Zn        3 ZIC7        0.0000 
      2 Zn         24.5780   33.2950   53.4580 Zn       11 ZIL7        0.0000 
      3 Zn         23.6960   34.7880   54.0720 Zn        7 ZIP7        0.0000 
      4 N          25.3045   31.9560   53.9495 N.am      2 SEC2        0.0000 
      5 N          24.5780   33.2950   53.4580 N.am     10 SEL2        0.0000 
      6 N          26.0310   30.6170   54.4410 N.am      6 SEP2        0.0000 
      7 Zn         23.9950   35.0030   52.7580 Zn        3 ZIC7        0.0000 
      8 Zn         24.2940   35.2180   51.4440 Zn       11 ZIL7        0.0000 
      9 N          25.0075   36.0295   51.0295 N.am      2 SEC2        0.0000 
     10 N          24.2940   35.2180   51.4440 N.am     10 SEL2        0.0000 
     11 N          25.7210   36.8410   50.6150 N.am      6 SEP2        0.0000 
     12 O          24.4915   31.6960   51.8505 O.2       1 ALC1        0.0000 
     13 O          24.5780   33.0850   52.0690 O.2       9 ALL1        0.0000 
     14 O          24.4050   30.3070   51.6320 O.2       5 ALP1        0.0000 
     15 CA         24.3285   31.8855   50.5895 C.3       4 GLC5        0.0000 
     16 CA         23.0900   33.6250   50.2590 C.3      12 GLL5        0.0000 
     17 CA         25.5670   30.1460   50.9200 C.3       8 GLP5        0.0000 
     18 CA         21.6955   33.4095   51.3035 C.3       4 GLC5        0.0000 
     19 CA         20.3010   33.1940   52.3480 C.3       8 GLP5        0.0000 
     20 CA         24.1740   35.0115   47.7270 C.3       4 GLC5        0.0000 
     21 CA         23.5480   33.7810   48.8160 C.3      12 GLL5        0.0000 
     22 CA         24.8000   36.2420   46.6380 C.3       8 GLP5        0.0000 
     23 CA         20.6965   36.2895   47.9080 C.3       4 GLC5        0.0000 
     24 CA         21.5900   34.4130   47.4550 C.3      12 GLL5        0.0000 
     25 CA         19.8030   38.1660   48.3610 C.3       8 GLP5        0.0000 
     26 CA         19.7785   36.4400   47.0740 C.3       4 GLC5        0.0000 
     27 CA         19.7540   34.7140   45.7870 C.3      12 GLL5        0.0000 
     28 CA         24.1585   31.9317   47.4795 C.3       4 GLC5        0.0000 
     29 CA         22.4980   33.2740   47.8520 C.3      12 GLL5        0.0000 
     30 CA         25.2940   30.3360   46.6250 C.3       8 GLP5        0.0000 
     31 CA         23.0580   34.8623   46.5763 C.3       4 GLC5        0.0000 
     32 CA         24.0720   35.8810   45.4990 C.3       8 GLP5        0.0000 
     33 CA         22.1722   31.8077   48.9349 C.3       4 GLC5        0.0000 
     34 CA         21.4360   30.1270   49.1750 C.3       8 GLP5        0.0000 
     35 CA         20.7878   32.2475   47.6187 C.3       4 GLC5        0.0000 
     36 CA         20.2500   30.2800   48.4640 C.3       8 GLP5        0.0000 
     37 CA         22.2398   35.1232   45.7193 C.3       4 GLC5        0.0000 
     38 CA         21.0610   34.0170   46.0920 C.3      12 GLL5        0.0000 
     39 CA         21.5032   39.3453   44.9320 C.3       4 GLC5        0.0000 
     40 CA         19.8420   38.3300   44.5070 C.3      12 GLL5        0.0000 
     41 CA         23.4640   39.8100   45.0030 C.3       8 GLP5        0.0000 
     42 CA         19.6728   38.5232   46.6110 C.3       4 GLC5        0.0000 
     43 CA         21.6300   40.3773   44.5695 C.3       4 GLC5        0.0000 
     44 CA         19.4230   40.8040   44.7270 C.3      12 GLL5        0.0000 
     45 CA         22.0737   39.5270   44.0343 C.3       4 GLC5        0.0000 
     46 CA         20.7550   39.9420   42.8270 C.3      12 GLL5        0.0000 
@<TRIPOS>BOND
@<TRIPOS>SUBSTRUCTURE
     1 ALC1       12 GROUP        1 X    ALC  0     ROOT ALC X 1
     2 SEC2        4 GROUP        1 X    SEC  0     **** SEC X 2
     3 ZIC7        1 GROUP        1 X    ZIC  0     **** ZIC X 5
     4 GLC5       15 GROUP        1 X    GLC  0     **** GLC X 6
     5 ALP1       14 GROUP        1 Y    ALP  0     ROOT ALP Y 8
     6 SEP2        6 GROUP        1 Y    SEP  0     **** SEP Y 9
     7 ZIP7        3 GROUP        1 Y    ZIP  0     **** ZIP Y 12
     8 GLP5       17 GROUP        1 Y    GLP  0     **** GLP Y 13
     9 ALL1       13 GROUP        1 Z    ALL  0     ROOT ALL Z 15
    10 SEL2        5 GROUP        1 Z    SEL  0     **** SEL Z 16
    11 ZIL7        2 GROUP        1 Z    ZIL  0     **** ZIL Z 19
    12 GLL5       16 GROUP        1 Z    GLL  0     **** GLL Z 20
@<TRIPOS>SET

