#    Name: 1c3s_SHH_1_ligand
#    Modification time : Mon Mar 24 20:16:29 2014

@<TRIPOS>MOLECULE
1c3s_SHH_1_ligand
   38    38     1     0     0
SMALL
NO_CHARGES


@<TRIPOS>ATOM
      1 O1         24.5780   33.2950   53.4580 O.3       1 SHH952      0.0000 
      2 O2         24.2940   35.2180   51.4440 O.2       1 SHH952      0.0000 
      3 N1         24.5780   33.0850   52.0690 N.am      1 SHH952      0.0000 
      4 C1         24.0630   34.0530   51.2460 C.2       1 SHH952      0.0000 
      5 C2         23.0900   33.6250   50.2590 C.3       1 SHH952      0.0000 
      6 C3         23.5480   33.7810   48.8160 C.3       1 SHH952      0.0000 
      7 C4         22.4980   33.2740   47.8520 C.3       1 SHH952      0.0000 
      8 C5         21.5900   34.4130   47.4550 C.3       1 SHH952      0.0000 
      9 C6         21.0610   34.0170   46.0920 C.3       1 SHH952      0.0000 
     10 C7         19.7540   34.7140   45.7870 C.3       1 SHH952      0.0000 
     11 C8         19.9600   35.7200   44.6930 C.2       1 SHH952      0.0000 
     12 O3         20.3810   35.4670   43.5750 O.2       1 SHH952      0.0000 
     13 N2         19.5910   36.9560   45.0850 N.am      1 SHH952      0.0000 
     14 C9         19.8420   38.3300   44.5070 C.ar      1 SHH952      0.0000 
     15 C10        19.2430   39.4310   45.2150 C.ar      1 SHH952      0.0000 
     16 C11        19.4230   40.8040   44.7270 C.ar      1 SHH952      0.0000 
     17 C12        20.1690   41.0850   43.5450 C.ar      1 SHH952      0.0000 
     18 C13        20.7550   39.9420   42.8270 C.ar      1 SHH952      0.0000 
     19 C14        20.6120   38.5460   43.3040 C.ar      1 SHH952      0.0000 
     20 H          24.9615   32.2143   51.6909 H         1 SHH952      0.0000 
     21 H          22.1387   34.1921   50.3762 H         1 SHH952      0.0000 
     22 H          22.8187   32.5562   50.4152 H         1 SHH952      0.0000 
     23 H          24.4753   33.2216   48.6722 H         1 SHH952      0.0000 
     24 H          23.7475   34.8363   48.6158 H         1 SHH952      0.0000 
     25 H          21.9144   32.4924   48.3303 H         1 SHH952      0.0000 
     26 H          22.9830   32.8695   46.9680 H         1 SHH952      0.0000 
     27 H          22.1505   35.3167   47.3768 H         1 SHH952      0.0000 
     28 H          20.7825   34.4945   48.1466 H         1 SHH952      0.0000 
     29 H          20.9099   32.9341   46.0639 H         1 SHH952      0.0000 
     30 H          21.7988   34.2789   45.3282 H         1 SHH952      0.0000 
     31 H          19.3947   35.2143   46.6849 H         1 SHH952      0.0000 
     32 H          19.0167   33.9760   45.4750 H         1 SHH952      0.0000 
     33 H          18.9807   37.0359   46.0094 H         1 SHH952      0.0000 
     34 H          18.6976   39.2724   46.0473 H         1 SHH952      0.0000 
     35 H          18.9964   41.5638   45.2599 H         1 SHH952      0.0000 
     36 H          20.2999   42.0050   43.2033 H         1 SHH952      0.0000 
     37 H          21.2785   40.1117   41.9710 H         1 SHH952      0.0000 
     38 H          21.0324   37.8062   42.8075 H         1 SHH952      0.0000 
@<TRIPOS>BOND
     1    3    1 1    
     2    4    2 2    
     3    4    3 am   
     4   20    3 1    
     5    5    4 1    
     6    6    5 1    
     7   21    5 1    
     8   22    5 1    
     9    7    6 1    
    10   23    6 1    
    11   24    6 1    
    12    8    7 1    
    13   25    7 1    
    14   26    7 1    
    15    9    8 1    
    16   27    8 1    
    17   28    8 1    
    18   10    9 1    
    19   29    9 1    
    20   30    9 1    
    21   11   10 1    
    22   31   10 1    
    23   32   10 1    
    24   12   11 2    
    25   13   11 am   
    26   14   13 1    
    27   33   13 1    
    28   15   14 ar   
    29   19   14 ar   
    30   16   15 ar   
    31   34   15 1    
    32   17   16 ar   
    33   35   16 1    
    34   18   17 ar   
    35   36   17 1    
    36   19   18 ar   
    37   37   18 1    
    38   38   19 1    
@<TRIPOS>SUBSTRUCTURE
     1 SHH952      1 GROUP   
@<TRIPOS>SET

