#    Name: 2rd2_QSI_1_INTS_M
#    Modification time : Mon Mar 24 23:42:49 2014

@<TRIPOS>MOLECULE
2rd2_QSI_1_INTS_M
   70     0    12     0     0
SMALL
NO_CHARGES


@<TRIPOS>ATOM
      1 OD1        46.7460   32.8655   12.8240 O.co2     3 ASC3        0.0000 
      2 OD1        46.4670   31.7990   13.9580 O.co2    11 ASL3        0.0000 
      3 OD1        47.0250   33.9320   11.6900 O.co2     7 ASP3        0.0000 
      4 O          45.7585   31.0690   12.5940 O.2       1 ALC1        0.0000 
      5 O          46.4670   31.7990   13.9580 O.2       9 ALL1        0.0000 
      6 O          45.0500   30.3390   11.2300 O.2       5 ALP1        0.0000 
      7 O          46.7460   32.8655   12.8240 O.2       1 ALC1        0.0000 
      8 O          47.0250   33.9320   11.6900 O.2       5 ALP1        0.0000 
      9 CA         43.2685   32.0650   12.5780 C.3       4 GLC5        0.0000 
     10 CA         44.1110   32.3240   14.3090 C.3      12 GLL5        0.0000 
     11 CA         42.4260   31.8060   10.8470 C.3       8 GLP5        0.0000 
     12 N          41.0100   33.9580   12.4710 N.am      2 SEC2        0.0000 
     13 N          41.5730   33.2960   13.8940 N.am     10 SEL2        0.0000 
     14 N          40.4470   34.6200   11.0480 N.am      6 SEP2        0.0000 
     15 O          42.9230   35.8505   15.6140 O.2       1 ALC1        0.0000 
     16 O          41.7080   35.0860   15.1760 O.2       9 ALL1        0.0000 
     17 O          44.1380   36.6150   16.0520 O.2       5 ALP1        0.0000 
     18 N          47.0160   27.5790   13.0505 N.am      2 SEC2        0.0000 
     19 N          46.0880   27.0930   14.1470 N.am     10 SEL2        0.0000 
     20 N          47.9440   28.0650   11.9540 N.am      6 SEP2        0.0000 
     21 N          47.0450   26.0305   14.8890 N.am      2 SEC2        0.0000 
     22 N          48.0020   24.9680   15.6310 N.am      6 SEP2        0.0000 
     23 CA         44.5225   27.8590   12.5035 C.3       4 GLC5        0.0000 
     24 CA         43.3630   27.9520   13.9500 C.3      12 GLL5        0.0000 
     25 CA         45.6820   27.7660   11.0570 C.3       8 GLP5        0.0000 
     26 CA         43.1405   25.9925   14.7675 C.3       4 GLC5        0.0000 
     27 CA         42.9180   24.0330   15.5850 C.3       8 GLP5        0.0000 
     28 CA         41.7550   25.8800   15.8330 C.3       4 GLC5        0.0000 
     29 CA         40.5920   27.7270   16.0810 C.3      12 GLL5        0.0000 
     30 CA         39.1785   26.9845   14.9220 C.3       4 GLC5        0.0000 
     31 CA         37.7650   26.2420   13.7630 C.3       8 GLP5        0.0000 
     32 CA         38.6695   26.2350   15.7875 C.3       4 GLC5        0.0000 
     33 CA         39.5740   26.2280   17.8120 C.3      12 GLL5        0.0000 
     34 CA         38.1080   23.4745   18.1910 C.3       4 GLC5        0.0000 
     35 CA         37.4360   25.4950   18.3490 C.3      12 GLL5        0.0000 
     36 CA         38.7800   21.4540   18.0330 C.3       8 GLP5        0.0000 
     37 CA         35.7130   24.8655   18.4300 C.3       4 GLC5        0.0000 
     38 CA         33.9900   24.2360   18.5110 C.3       8 GLP5        0.0000 
     39 CA         37.7835   27.3395   18.8940 C.3       4 GLC5        0.0000 
     40 CA         38.1310   29.1840   19.4390 C.3       8 GLP5        0.0000 
     41 CA         37.0725   26.0340   20.1675 C.3       4 GLC5        0.0000 
     42 CA         36.7090   26.5730   21.9860 C.3       8 GLP5        0.0000 
     43 N          37.1440   24.4820   20.5810 N.am      2 SEC2        0.0000 
     44 N          37.9040   24.7610   19.3650 N.am     10 SEL2        0.0000 
     45 N          36.3840   24.2030   21.7970 N.am      6 SEP2        0.0000 
     46 CA         37.5520   23.3555   20.3050 C.3       4 GLC5        0.0000 
     47 CA         39.2250   24.7150   19.6630 C.3      12 GLL5        0.0000 
     48 CA         35.8790   21.9960   20.9470 C.3       8 GLP5        0.0000 
     49 O          38.9385   23.1755   21.9040 O.2       1 ALC1        0.0000 
     50 O          39.6950   23.9530   20.7140 O.2       9 ALL1        0.0000 
     51 O          38.1820   22.3980   23.0940 O.2       5 ALP1        0.0000 
     52 N          39.3105   31.0850   17.5850 N.am      2 SEC2        0.0000 
     53 N          40.2790   30.0210   16.9390 N.am     10 SEL2        0.0000 
     54 N          38.3420   32.1490   18.2310 N.am      6 SEP2        0.0000 
     55 O          40.2050   30.2925   18.2625 O.2       1 ALC1        0.0000 
     56 O          40.2790   30.0210   16.9390 O.2       9 ALL1        0.0000 
     57 O          40.1310   30.5640   19.5860 O.2       5 ALP1        0.0000 
     58 CA         45.2028   34.4200   14.8932 C.3       4 GLC5        0.0000 
     59 CA         43.6580   33.6010   15.0050 C.3      12 GLL5        0.0000 
     60 CA         46.2000   36.0020   14.9660 C.3       8 GLP5        0.0000 
     61 CA         44.1938   32.9370   16.7428 C.3       4 GLC5        0.0000 
     62 CA         44.1820   33.0360   18.6650 C.3       8 GLP5        0.0000 
     63 CA         41.7507   27.0200   12.6810 C.3       4 GLC5        0.0000 
     64 CA         40.8800   25.9510   11.2720 C.3       8 GLP5        0.0000 
     65 CA         39.5145   28.8005   17.8305 C.3       4 GLC5        0.0000 
     66 CA         38.9885   27.5163   18.8915 C.3       4 GLC5        0.0000 
     67 CA         39.2257   23.2730   18.6513 C.3       4 GLC5        0.0000 
     68 CA         40.1180   25.4690   18.8760 C.3      12 GLL5        0.0000 
     69 CA         38.9537   25.9105   20.6968 C.3       4 GLC5        0.0000 
     70 CA         38.2360   26.7290   22.1240 C.3       8 GLP5        0.0000 
@<TRIPOS>BOND
@<TRIPOS>SUBSTRUCTURE
     1 ALC1        4 GROUP        1 X    ALC  0     ROOT ALC X 1
     2 SEC2       12 GROUP        1 X    SEC  0     **** SEC X 2
     3 ASC3        1 GROUP        1 X    ASC  0     **** ASC X 3
     4 GLC5        9 GROUP        1 X    GLC  0     **** GLC X 6
     5 ALP1        6 GROUP        1 Y    ALP  0     ROOT ALP Y 8
     6 SEP2       14 GROUP        1 Y    SEP  0     **** SEP Y 9
     7 ASP3        3 GROUP        1 Y    ASP  0     **** ASP Y 10
     8 GLP5       11 GROUP        1 Y    GLP  0     **** GLP Y 13
     9 ALL1        5 GROUP        1 Z    ALL  0     ROOT ALL Z 15
    10 SEL2       13 GROUP        1 Z    SEL  0     **** SEL Z 16
    11 ASL3        2 GROUP        1 Z    ASL  0     **** ASL Z 17
    12 GLL5       10 GROUP        1 Z    GLL  0     **** GLL Z 20
@<TRIPOS>SET

