#    Name: 2rd2_QSI_1_ligand
#    Modification time : Mon Mar 24 23:42:49 2014

@<TRIPOS>MOLECULE
2rd2_QSI_1_ligand
   55    57     1     0     0
SMALL
NO_CHARGES


@<TRIPOS>ATOM
      1 N          46.4670   31.7990   13.9580 N.4       1 QSI998      0.0000 
      2 CA         45.3950   31.8260   14.9630 C.3       1 QSI998      0.0000 
      3 CB         44.1110   32.3240   14.3090 C.3       1 QSI998      0.0000 
      4 CG         43.6580   33.6010   15.0050 C.3       1 QSI998      0.0000 
      5 CD         42.2370   33.9740   14.6480 C.2       1 QSI998      0.0000 
      6 OE1        41.5730   33.2960   13.8940 O.2       1 QSI998      0.0000 
      7 NE2        41.7080   35.0860   15.1760 N.am      1 QSI998      0.0000 
      8 C          45.1560   30.4360   15.4420 C.2       1 QSI998      0.0000 
      9 O          44.4520   30.2400   16.4160 O.2       1 QSI998      0.0000 
     10 N10        45.7230   29.4050   14.7730 N.pl3     1 QSI998      0.0000 
     11 S          45.4970   27.8250   15.1970 S.o2      1 QSI998      0.0000 
     12 O1S        45.9260   27.7220   16.5240 O.2       1 QSI998      0.0000 
     13 O2S        46.0880   27.0930   14.1470 O.2       1 QSI998      0.0000 
     14 O5'        44.0030   27.4490   15.1600 O.3       1 QSI998      0.0000 
     15 C5'        43.3630   27.9520   13.9500 C.3       1 QSI998      0.0000 
     16 C4'        41.8800   28.2260   14.2300 C.3       1 QSI998      0.0000 
     17 O4'        41.4110   27.1660   15.0430 O.3       1 QSI998      0.0000 
     18 C1'        40.5920   27.7270   16.0810 C.3       1 QSI998      0.0000 
     19 N9         40.6360   26.8380   17.2310 N.pl3     1 QSI998      0.0000 
     20 C4         39.5740   26.2280   17.8120 C.ar      1 QSI998      0.0000 
     21 N3         38.2490   26.2110   17.5860 N.ar      1 QSI998      0.0000 
     22 C2         37.4360   25.4950   18.3490 C.ar      1 QSI998      0.0000 
     23 N1         37.9040   24.7610   19.3650 N.ar      1 QSI998      0.0000 
     24 C6         39.2250   24.7150   19.6630 C.ar      1 QSI998      0.0000 
     25 N6         39.6950   23.9530   20.7140 N.pl3     1 QSI998      0.0000 
     26 C5         40.1180   25.4690   18.8760 C.ar      1 QSI998      0.0000 
     27 N7         41.4500   25.6660   18.8770 N.2       1 QSI998      0.0000 
     28 C8         41.7600   26.4640   17.9210 C.2       1 QSI998      0.0000 
     29 C2'        41.2040   29.1070   16.3630 C.3       1 QSI998      0.0000 
     30 O2'        40.2790   30.0210   16.9390 O.3       1 QSI998      0.0000 
     31 C3'        41.7340   29.5440   14.9910 C.3       1 QSI998      0.0000 
     32 O3'        40.7690   30.3870   14.3490 O.3       1 QSI998      0.0000 
     33 H          45.6423   32.4569   15.7733 H         1 QSI998      0.0000 
     34 H          43.3417   31.5683   14.4046 H         1 QSI998      0.0000 
     35 H          44.2963   32.5295   13.2623 H         1 QSI998      0.0000 
     36 H          44.3318   34.4193   14.7225 H         1 QSI998      0.0000 
     37 H          43.7371   33.4628   16.0904 H         1 QSI998      0.0000 
     38 H          42.3172   35.6337   15.7495 H         1 QSI998      0.0000 
     39 H          40.7513   35.2687   14.9493 H         1 QSI998      0.0000 
     40 H          46.3344   29.4808   13.9577 H         1 QSI998      0.0000 
     41 H          43.4265   27.2248   13.1394 H         1 QSI998      0.0000 
     42 H          43.8236   28.8838   13.6190 H         1 QSI998      0.0000 
     43 H          41.3649   28.2902   13.3080 H         1 QSI998      0.0000 
     44 H          39.5966   27.8702   15.7265 H         1 QSI998      0.0000 
     45 H          36.3973   25.5000   18.1560 H         1 QSI998      0.0000 
     46 H          39.0140   23.4040   21.1985 H         1 QSI998      0.0000 
     47 H          40.6756   24.0163   20.8994 H         1 QSI998      0.0000 
     48 H          42.6593   26.7900   17.6777 H         1 QSI998      0.0000 
     49 H          42.0751   28.9326   16.9898 H         1 QSI998      0.0000 
     50 H          42.6762   29.9778   15.1143 H         1 QSI998      0.0000 
     51 H          47.3654   31.9529   14.3691 H         1 QSI998      0.0000 
     52 H          46.5087   30.9200   13.4830 H         1 QSI998      0.0000 
     53 H          46.3395   32.5036   13.2600 H         1 QSI998      0.0000 
     54 H          40.3519   29.8755   17.9257 H         1 QSI998      0.0000 
     55 H          41.2929   31.1683   14.0099 H         1 QSI998      0.0000 
@<TRIPOS>BOND
     1    2    1 1    
     2   51    1 1    
     3   52    1 1    
     4   53    1 1    
     5    3    2 1    
     6    8    2 1    
     7   33    2 1    
     8    4    3 1    
     9   34    3 1    
    10   35    3 1    
    11    5    4 1    
    12   36    4 1    
    13   37    4 1    
    14    6    5 2    
    15    7    5 am   
    16   38    7 1    
    17   39    7 1    
    18    9    8 2    
    19   10    8 1    
    20   11   10 1    
    21   40   10 1    
    22   12   11 2    
    23   13   11 2    
    24   14   11 1    
    25   15   14 1    
    26   16   15 1    
    27   41   15 1    
    28   42   15 1    
    29   17   16 1    
    30   31   16 1    
    31   43   16 1    
    32   18   17 1    
    33   19   18 1    
    34   29   18 1    
    35   44   18 1    
    36   20   19 1    
    37   28   19 1    
    38   21   20 ar   
    39   26   20 ar   
    40   22   21 ar   
    41   23   22 ar   
    42   45   22 1    
    43   24   23 ar   
    44   25   24 1    
    45   26   24 ar   
    46   46   25 1    
    47   47   25 1    
    48   27   26 1    
    49   28   27 2    
    50   48   28 1    
    51   30   29 1    
    52   31   29 1    
    53   49   29 1    
    54   54   30 1    
    55   32   31 1    
    56   50   31 1    
    57   55   32 1    
@<TRIPOS>SUBSTRUCTURE
     1 QSI998      1 GROUP   
@<TRIPOS>SET

