#    Name: 3ty0_082_2_INTS_M
#    Modification time : Mon Mar 24 21:08:58 2014

@<TRIPOS>MOLECULE
3ty0_082_2_INTS_M
   74     0     6     0     0
SMALL
NO_CHARGES


@<TRIPOS>ATOM
      1 CA         38.2800  -17.6795   44.6855 C.3       2 GLC5        0.0000 
      2 CA         37.0400  -19.3850   44.4340 C.3       6 GLL5        0.0000 
      3 CA         39.5200  -15.9740   44.9370 C.3       4 GLP5        0.0000 
      4 CA         36.9795  -18.5410   46.2970 C.3       2 GLC5        0.0000 
      5 CA         36.9190  -17.6970   48.1600 C.3       4 GLP5        0.0000 
      6 CA         38.0310  -19.7075   46.3325 C.3       2 GLC5        0.0000 
      7 CA         38.0180  -20.3360   44.2240 C.3       6 GLL5        0.0000 
      8 CA         38.0440  -19.0790   48.4410 C.3       4 GLP5        0.0000 
      9 CA         33.9255  -19.3915   44.7205 C.3       2 GLC5        0.0000 
     10 CA         35.8240  -19.4710   43.7870 C.3       6 GLL5        0.0000 
     11 CA         32.0270  -19.3120   45.6540 C.3       4 GLP5        0.0000 
     12 CA         32.8915  -18.7790   39.4775 C.3       2 GLC5        0.0000 
     13 CA         34.7690  -18.6450   39.8970 C.3       6 GLL5        0.0000 
     14 CA         31.0140  -18.9130   39.0580 C.3       4 GLP5        0.0000 
     15 CA         37.5615  -22.3605   44.8185 C.3       2 GLC5        0.0000 
     16 CA         38.8110  -22.4690   43.0440 C.3       6 GLL5        0.0000 
     17 CA         36.3120  -22.2520   46.5930 C.3       4 GLP5        0.0000 
     18 CA         41.0305  -21.1390   41.2685 C.3       2 GLC5        0.0000 
     19 CA         39.2920  -22.4770   41.6250 C.3       6 GLL5        0.0000 
     20 CA         42.7690  -19.8010   40.9120 C.3       4 GLP5        0.0000 
     21 CA         39.3085  -20.8795   40.4300 C.3       2 GLC5        0.0000 
     22 CA         39.3250  -19.2820   39.2350 C.3       4 GLP5        0.0000 
     23 CA         39.0720  -23.0735   40.0815 C.3       2 GLC5        0.0000 
     24 CA         38.8520  -23.6700   38.5380 C.3       4 GLP5        0.0000 
     25 CA         29.7410  -28.4940   36.3445 C.3       2 GLC5        0.0000 
     26 CA         31.2400  -28.1370   37.5820 C.3       6 GLL5        0.0000 
     27 CA         28.2420  -28.8510   35.1070 C.3       4 GLP5        0.0000 
     28 CA         32.7180  -20.8145   41.3210 C.3       2 GLC5        0.0000 
     29 CA         34.2970  -20.6610   42.1980 C.3       6 GLL5        0.0000 
     30 CA         31.1390  -20.9680   40.4440 C.3       4 GLP5        0.0000 
     31 CA         32.6540  -20.9220   43.2405 C.3       2 GLC5        0.0000 
     32 CA         31.0110  -21.1830   44.2830 C.3       4 GLP5        0.0000 
     33 N          37.0945  -25.3205   44.2210 N.am      1 SEC2        0.0000 
     34 N          37.4390  -24.4420   42.9750 N.am      5 SEL2        0.0000 
     35 N          36.7500  -26.1990   45.4670 N.am      3 SEP2        0.0000 
     36 N          41.5180  -22.3910   46.4345 N.am      1 SEC2        0.0000 
     37 N          40.3360  -22.9850   46.0610 N.am      5 SEL2        0.0000 
     38 N          42.7000  -21.7970   46.8080 N.am      3 SEP2        0.0000 
     39 CA         36.6225  -18.1895   38.7870 C.3       2 GLC5        0.0000 
     40 CA         34.8640  -17.9550   38.7000 C.3       6 GLL5        0.0000 
     41 CA         38.3900  -18.1030   39.4870 C.3       4 GLP5        0.0000 
     42 CA         37.6355  -18.9412   42.7525 C.3       2 GLC5        0.0000 
     43 CA         37.7420  -18.0220   41.1760 C.3       4 GLP5        0.0000 
     44 CA         35.7670  -20.4230   45.3063 C.3       2 GLC5        0.0000 
     45 CA         35.1020  -21.4180   46.5020 C.3       4 GLP5        0.0000 
     46 CA         30.4282  -23.5850   38.4840 C.3       2 GLC5        0.0000 
     47 CA         32.3110  -24.3750   38.5010 C.3       6 GLL5        0.0000 
     48 CA         28.8960  -22.2480   38.6970 C.3       4 GLP5        0.0000 
     49 CA         31.5033  -25.1475   39.9480 C.3       2 GLC5        0.0000 
     50 CA         31.0460  -25.3730   41.6250 C.3       4 GLP5        0.0000 
     51 CA         32.9040  -19.0185   38.4020 C.3       2 GLC5        0.0000 
     52 CA         34.8460  -18.5970   37.4740 C.3       6 GLL5        0.0000 
     53 CA         36.2295  -18.6750   40.5143 C.3       2 GLC5        0.0000 
     54 CA         34.2550  -16.8798   39.5870 C.3       2 GLC5        0.0000 
     55 CA         33.6980  -15.2990   40.1820 C.3       4 GLP5        0.0000 
     56 CA         30.2067  -25.6463   36.4575 C.3       2 GLC5        0.0000 
     57 CA         31.6100  -25.4690   38.0410 C.3       6 GLL5        0.0000 
     58 CA         28.6190  -25.4840   35.4460 C.3       4 GLP5        0.0000 
     59 CA         37.4617  -19.7317   42.1175 C.3       2 GLC5        0.0000 
     60 CA         36.5720  -21.4750   42.7370 C.3       6 GLL5        0.0000 
     61 CA         36.7751  -21.7127   44.9314 C.3       2 GLC5        0.0000 
     62 CA         34.6072  -25.5772   34.9845 C.3       2 GLC5        0.0000 
     63 CA         33.7340  -24.6790   36.6170 C.3       6 GLL5        0.0000 
     64 CA         35.8180  -25.9280   33.5950 C.3       4 GLP5        0.0000 
     65 CA         35.5565  -24.3990   37.9368 C.3       2 GLC5        0.0000 
     66 CA         37.5400  -24.4690   38.6860 C.3       4 GLP5        0.0000 
     67 CA         33.3185  -22.6925   35.8443 C.3       2 GLC5        0.0000 
     68 CA         33.4120  -23.9790   37.7580 C.3       6 GLL5        0.0000 
     69 CA         33.0640  -21.0560   34.5010 C.3       4 GLP5        0.0000 
     70 CA         35.0228  -21.0057   44.5323 C.3       2 GLC5        0.0000 
     71 CA         33.8914  -20.5119   36.2604 C.3       2 GLC5        0.0000 
     72 CA         34.6480  -20.6510   38.6000 C.3       6 GLL5        0.0000 
     73 CA         32.8978  -20.6495   39.8240 C.3       2 GLC5        0.0000 
     74 CA         36.3720  -19.1759   41.9767 C.3       2 GLC5        0.0000 
@<TRIPOS>BOND
@<TRIPOS>SUBSTRUCTURE
     1 SEC2       33 GROUP        1 X    SEC  0     ROOT SEC X 2
     2 GLC5        1 GROUP        1 X    GLC  0     **** GLC X 6
     3 SEP2       35 GROUP        1 Y    SEP  0     ROOT SEP Y 9
     4 GLP5        3 GROUP        1 Y    GLP  0     **** GLP Y 13
     5 SEL2       34 GROUP        1 Z    SEL  0     ROOT SEL Z 16
     6 GLL5        2 GROUP        1 Z    GLL  0     **** GLL Z 20
@<TRIPOS>SET

