#    Name: 3ty0_082_2_ligand
#    Modification time : Mon Mar 24 21:08:58 2014

@<TRIPOS>MOLECULE
3ty0_082_2_ligand
   56    61     1     0     0
SMALL
NO_CHARGES


@<TRIPOS>ATOM
      1 C11        34.8460  -18.5970   37.4740 C.ar      1 0822        0.0000 
      2 C10        34.8640  -17.9550   38.7000 C.ar      1 0822        0.0000 
      3 C21        37.0400  -19.3850   44.4340 C.ar      1 0822        0.0000 
      4 C2         32.3110  -24.3750   38.5010 C.ar      1 0822        0.0000 
      5 C20        38.0180  -20.3360   44.2240 C.ar      1 0822        0.0000 
      6 C22        35.8240  -19.4710   43.7870 C.ar      1 0822        0.0000 
      7 C12        34.7330  -19.9720   37.4050 C.ar      1 0822        0.0000 
      8 C13        34.7690  -18.6450   39.8970 C.ar      1 0822        0.0000 
      9 C3         31.6100  -25.4690   38.0410 C.ar      1 0822        0.0000 
     10 C18        36.5720  -21.4750   42.7370 C.ar      1 0822        0.0000 
     11 C5         33.0590  -25.7740   36.1310 C.ar      1 0822        0.0000 
     12 C1         33.4120  -23.9790   37.7580 C.ar      1 0822        0.0000 
     13 C19        37.7910  -21.4080   43.3810 C.ar      1 0822        0.0000 
     14 C17        35.5900  -20.5260   42.9270 C.ar      1 0822        0.0000 
     15 C8         34.6480  -20.6510   38.6000 C.ar      1 0822        0.0000 
     16 C7         34.6650  -20.0110   39.8080 C.ar      1 0822        0.0000 
     17 C6         33.7340  -24.6790   36.6170 C.ar      1 0822        0.0000 
     18 C4         31.9790  -26.1480   36.8970 C.ar      1 0822        0.0000 
     19 C14        34.4020  -22.9600   37.8500 C.2       1 0822        0.0000 
     20 C24        38.2850  -23.7760   43.5570 C.2       1 0822        0.0000 
     21 C25        39.6190  -23.0380   45.0750 C.2       1 0822        0.0000 
     22 C9         34.4560  -22.2260   40.2340 C.2       1 0822        0.0000 
     23 C23        38.8110  -22.4690   43.0440 C.3       1 0822        0.0000 
     24 C26        39.2920  -22.4770   41.6250 C.3       1 0822        0.0000 
     25 C15        31.2400  -28.1370   37.5820 C.3       1 0822        0.0000 
     26 C16        34.2970  -20.6610   42.1980 C.3       1 0822        0.0000 
     27 N3         35.2570  -23.0390   36.8190 N.2       1 0822        0.0000 
     28 N4         38.7340  -23.9830   44.7840 N.am      1 0822        0.0000 
     29 N1         34.5130  -22.0130   38.8660 N.am      1 0822        0.0000 
     30 N2         34.5560  -20.9740   40.8090 N.am      1 0822        0.0000 
     31 O6         37.4390  -24.4420   42.9750 O.2       1 0822        0.0000 
     32 O5         40.3360  -22.9850   46.0610 O.2       1 0822        0.0000 
     33 O1         34.3510  -23.2830   40.8340 O.2       1 0822        0.0000 
     34 O2         34.8290  -24.1130   36.0440 O.3       1 0822        0.0000 
     35 O4         39.8220  -22.2330   44.0060 O.3       1 0822        0.0000 
     36 O3         31.2480  -27.2440   36.4730 O.3       1 0822        0.0000 
     37 H          34.9177  -18.0424   36.6041 H         1 0822        0.0000 
     38 H          34.9524  -16.9129   38.7237 H         1 0822        0.0000 
     39 H          37.2207  -18.5984   45.0842 H         1 0822        0.0000 
     40 H          32.0384  -23.8829   39.3391 H         1 0822        0.0000 
     41 H          38.9326  -20.2465   44.7029 H         1 0822        0.0000 
     42 H          35.1012  -18.7590   43.9429 H         1 0822        0.0000 
     43 H          34.7138  -20.4554   36.5176 H         1 0822        0.0000 
     44 H          34.7763  -18.1648   40.7827 H         1 0822        0.0000 
     45 H          30.7716  -25.7959   38.5750 H         1 0822        0.0000 
     46 H          36.3879  -22.2717   42.0838 H         1 0822        0.0000 
     47 H          33.3260  -26.2511   35.3037 H         1 0822        0.0000 
     48 H          33.7374  -19.7222   42.2868 H         1 0822        0.0000 
     49 H          33.7020  -21.4519   42.6700 H         1 0822        0.0000 
     50 H          38.4616  -24.7084   45.3776 H         1 0822        0.0000 
     51 H          39.7292  -21.6127   41.3762 H         1 0822        0.0000 
     52 H          39.9622  -23.2015   41.4641 H         1 0822        0.0000 
     53 H          38.5422  -22.6227   40.9795 H         1 0822        0.0000 
     54 H          32.1652  -28.4099   37.8458 H         1 0822        0.0000 
     55 H          30.8151  -27.7246   38.3878 H         1 0822        0.0000 
     56 H          30.7335  -28.9753   37.3802 H         1 0822        0.0000 
@<TRIPOS>BOND
     1    2    1 ar   
     2    7    1 ar   
     3   37    1 1    
     4    8    2 ar   
     5   38    2 1    
     6    5    3 ar   
     7    6    3 ar   
     8   39    3 1    
     9    9    4 ar   
    10   12    4 ar   
    11   40    4 1    
    12   13    5 ar   
    13   41    5 1    
    14   14    6 ar   
    15   42    6 1    
    16   15    7 ar   
    17   43    7 1    
    18   16    8 ar   
    19   44    8 1    
    20   18    9 ar   
    21   45    9 1    
    22   13   10 ar   
    23   14   10 ar   
    24   46   10 1    
    25   17   11 ar   
    26   18   11 ar   
    27   47   11 1    
    28   17   12 ar   
    29   19   12 1    
    30   23   13 1    
    31   26   14 1    
    32   16   15 ar   
    33   29   15 1    
    34   30   16 1    
    35   34   17 1    
    36   36   18 1    
    37   27   19 2    
    38   29   19 1    
    39   23   20 1    
    40   28   20 am   
    41   31   20 2    
    42   28   21 am   
    43   32   21 2    
    44   35   21 1    
    45   29   22 am   
    46   30   22 am   
    47   33   22 2    
    48   24   23 1    
    49   35   23 1    
    50   51   24 1    
    51   52   24 1    
    52   53   24 1    
    53   36   25 1    
    54   54   25 1    
    55   55   25 1    
    56   56   25 1    
    57   30   26 1    
    58   48   26 1    
    59   49   26 1    
    60   34   27 1    
    61   50   28 1    
@<TRIPOS>SUBSTRUCTURE
     1 0822        1 GROUP   
@<TRIPOS>SET

