#    Name: 3m3l_P99_1_INTS_M
#    Modification time : Mon Mar 24 22:43:19 2014

@<TRIPOS>MOLECULE
3m3l_P99_1_INTS_M
   71     0     6     0     0
SMALL
NO_CHARGES


@<TRIPOS>ATOM
      1 O         -18.5745   -5.8515   33.7085 O.2       1 ALC1        0.0000 
      2 O         -17.9400   -4.4540   33.3720 O.2       5 ALL1        0.0000 
      3 O         -19.2090   -7.2490   34.0450 O.2       3 ALP1        0.0000 
      4 O         -18.4205   -3.1710   34.2650 O.2       1 ALC1        0.0000 
      5 O         -18.9010   -1.8880   35.1580 O.2       3 ALP1        0.0000 
      6 O         -16.8875   -3.9390   34.4605 O.2       1 ALC1        0.0000 
      7 O         -15.8350   -3.4240   35.5490 O.2       3 ALP1        0.0000 
      8 CA        -18.1325   -6.6115   31.3335 C.3       2 GLC5        0.0000 
      9 CA        -18.2240   -4.7320   30.7990 C.3       6 GLL5        0.0000 
     10 CA        -18.0410   -8.4910   31.8680 C.3       4 GLP5        0.0000 
     11 CA        -16.8300   -5.8450   29.4580 C.3       2 GLC5        0.0000 
     12 CA        -15.4360   -6.9580   28.1170 C.3       4 GLP5        0.0000 
     13 CA        -20.1065   -2.7290   24.2425 C.3       2 GLC5        0.0000 
     14 CA        -18.2620   -3.8770   23.7390 C.3       6 GLL5        0.0000 
     15 CA        -21.9510   -1.5810   24.7460 C.3       4 GLP5        0.0000 
     16 CA        -18.0900   -2.0035   22.6575 C.3       2 GLC5        0.0000 
     17 CA        -17.9180   -0.1300   21.5760 C.3       4 GLP5        0.0000 
     18 CA        -16.7485   -2.7170   24.5405 C.3       2 GLC5        0.0000 
     19 CA        -15.2350   -1.5570   25.3420 C.3       4 GLP5        0.0000 
     20 CA        -23.4725   -9.9885   23.5690 C.3       2 GLC5        0.0000 
     21 CA        -22.2360   -8.9570   22.3890 C.3       6 GLL5        0.0000 
     22 CA        -24.7090  -11.0200   24.7490 C.3       4 GLP5        0.0000 
     23 CA        -24.2640  -10.0285   22.5380 C.3       2 GLC5        0.0000 
     24 CA        -22.6930   -9.6810   21.1280 C.3       6 GLL5        0.0000 
     25 CA        -25.8350  -10.3760   23.9480 C.3       4 GLP5        0.0000 
     26 CA        -23.0835  -10.3410   18.3635 C.3       2 GLC5        0.0000 
     27 CA        -23.3590   -8.8920   19.9830 C.3       6 GLL5        0.0000 
     28 CA        -22.8080  -11.7900   16.7440 C.3       4 GLP5        0.0000 
     29 CA        -24.5940   -5.7260   22.3615 C.3       2 GLC5        0.0000 
     30 CA        -23.0860   -6.6490   21.3330 C.3       6 GLL5        0.0000 
     31 CA        -26.1020   -4.8030   23.3900 C.3       4 GLP5        0.0000 
     32 CA        -22.2165   -6.9060   19.4380 C.3       2 GLC5        0.0000 
     33 CA        -21.3470   -7.1630   17.5430 C.3       4 GLP5        0.0000 
     34 CA        -20.4585   -6.8210   28.4255 C.3       2 GLC5        0.0000 
     35 CA        -18.8910   -6.6480   28.2510 C.3       6 GLL5        0.0000 
     36 CA        -22.0260   -6.9940   28.6000 C.3       4 GLP5        0.0000 
     37 CA        -18.4660   -7.5695   30.0595 C.3       2 GLC5        0.0000 
     38 CA        -17.5270   -7.4310   28.4095 C.3       2 GLC5        0.0000 
     39 CA        -16.1630   -8.2140   28.5680 C.3       4 GLP5        0.0000 
     40 CA        -19.2395   -8.2650   27.5020 C.3       2 GLC5        0.0000 
     41 CA        -19.5880   -9.8820   26.7530 C.3       4 GLP5        0.0000 
     42 CA        -20.6333   -4.5568   28.0345 C.3       2 GLC5        0.0000 
     43 CA        -19.0160   -4.1300   28.5380 C.3       6 GLL5        0.0000 
     44 CA        -22.2770   -5.6720   27.8730 C.3       4 GLP5        0.0000 
     45 CA        -20.5550   -2.7965   26.2822 C.3       2 GLC5        0.0000 
     46 CA        -18.9630   -2.7530   27.8540 C.3       6 GLL5        0.0000 
     47 CA        -22.2650   -2.8900   25.4690 C.3       4 GLP5        0.0000 
     48 CA        -18.5520   -0.6125   29.1695 C.3       2 GLC5        0.0000 
     49 CA        -18.0580    0.9630   30.1120 C.3       4 GLP5        0.0000 
     50 CA        -16.9398   -2.4295   25.6345 C.3       2 GLC5        0.0000 
     51 CA        -18.7270   -2.6530   26.3370 C.3       6 GLL5        0.0000 
     52 CA        -19.2432   -0.6173   26.9785 C.3       2 GLC5        0.0000 
     53 CA        -19.6000    1.1860   26.6750 C.3       4 GLP5        0.0000 
     54 CA        -20.4300   -3.7650   25.6580 C.3       2 GLC5        0.0000 
     55 CA        -18.5620   -3.9510   25.5170 C.3       6 GLL5        0.0000 
     56 CA        -18.6988   -7.6100   23.0113 C.3       2 GLC5        0.0000 
     57 CA        -18.3990   -5.5750   23.1010 C.3       6 GLL5        0.0000 
     58 CA        -18.3000   -9.5390   23.2290 C.3       4 GLP5        0.0000 
     59 CA        -20.6683  -10.1010   22.2672 C.3       2 GLC5        0.0000 
     60 CA        -18.8720  -10.8830   22.7760 C.3       4 GLP5        0.0000 
     61 CA        -24.7965   -8.6702   20.5667 C.3       2 GLC5        0.0000 
     62 CA        -26.5670   -8.0540   20.5780 C.3       4 GLP5        0.0000 
     63 CA        -22.4017   -7.6490   18.7862 C.3       2 GLC5        0.0000 
     64 CA        -24.0840   -5.2342   19.7957 C.3       2 GLC5        0.0000 
     65 CA        -23.5540   -7.3780   20.0760 C.3       6 GLL5        0.0000 
     66 CA        -24.8480   -3.4550   18.8870 C.3       4 GLP5        0.0000 
     67 CA        -24.9435   -7.5337   20.6412 C.3       2 GLC5        0.0000 
     68 CA        -20.5115   -5.5237   27.4025 C.3       2 GLC5        0.0000 
     69 CA        -18.6280   -5.3290   26.1770 C.3       6 GLL5        0.0000 
     70 CA        -17.0910   -6.1667   27.5245 C.3       2 GLC5        0.0000 
     71 CA        -18.8640   -5.4220   27.6870 C.3       6 GLL5        0.0000 
@<TRIPOS>BOND
@<TRIPOS>SUBSTRUCTURE
     1 ALC1        1 GROUP        1 X    ALC  0     ROOT ALC X 1
     2 GLC5        8 GROUP        1 X    GLC  0     **** GLC X 6
     3 ALP1        3 GROUP        1 Y    ALP  0     ROOT ALP Y 8
     4 GLP5       10 GROUP        1 Y    GLP  0     **** GLP Y 13
     5 ALL1        2 GROUP        1 Z    ALL  0     ROOT ALL Z 15
     6 GLL5        9 GROUP        1 Z    GLL  0     **** GLL Z 20
@<TRIPOS>SET

