#    Name: 3m3l_P99_1_ligand
#    Modification time : Mon Mar 24 22:43:19 2014

@<TRIPOS>MOLECULE
3m3l_P99_1_ligand
   42    43     1     0     0
SMALL
NO_CHARGES


@<TRIPOS>ATOM
      1 N01       -17.9400   -4.4540   33.3720 N.am      1 P99800      0.0000 
      2 C02       -18.0500   -3.8460   32.0480 C.2       1 P99800      0.0000 
      3 O03       -17.9750   -2.6650   31.9450 O.2       1 P99800      0.0000 
      4 C04       -18.2240   -4.7320   30.7990 C.3       1 P99800      0.0000 
      5 O05       -19.1870   -4.1800   29.9340 O.3       1 P99800      0.0000 
      6 C06       -19.0160   -4.1300   28.5380 C.ar      1 P99800      0.0000 
      7 C07       -18.9630   -2.7530   27.8540 C.ar      1 P99800      0.0000 
      8 F08       -19.1290   -1.6230   28.6000 F         1 P99800      0.0000 
      9 C09       -18.7270   -2.6530   26.3370 C.ar      1 P99800      0.0000 
     10 C10       -18.5620   -3.9510   25.5170 C.ar      1 P99800      0.0000 
     11 S11       -18.2620   -3.8770   23.7390 S.3       1 P99800      0.0000 
     12 C12       -18.3990   -5.5750   23.1010 C.3       1 P99800      0.0000 
     13 C13       -19.7960   -5.7870   22.4860 C.3       1 P99800      0.0000 
     14 N14       -20.8300   -5.2650   23.3880 N.pl3     1 P99800      0.0000 
     15 S15       -21.8290   -6.5630   23.9090 S.o2      1 P99800      0.0000 
     16 O16       -23.0880   -6.0330   24.8300 O.2       1 P99800      0.0000 
     17 O17       -20.8880   -7.6280   24.7450 O.2       1 P99800      0.0000 
     18 C18       -22.4360   -7.4470   22.4690 C.ar      1 P99800      0.0000 
     19 C19       -22.2360   -8.9570   22.3890 C.ar      1 P99800      0.0000 
     20 C20       -22.6930   -9.6810   21.1280 C.ar      1 P99800      0.0000 
     21 C21       -23.3590   -8.8920   19.9830 C.ar      1 P99800      0.0000 
     22 C22       -23.5540   -7.3780   20.0760 C.ar      1 P99800      0.0000 
     23 C23       -23.0860   -6.6490   21.3330 C.ar      1 P99800      0.0000 
     24 C24       -18.6280   -5.3290   26.1770 C.ar      1 P99800      0.0000 
     25 C25       -18.8640   -5.4220   27.6870 C.ar      1 P99800      0.0000 
     26 F26       -18.8910   -6.6480   28.2510 F         1 P99800      0.0000 
     27 H         -17.7805   -3.8252   34.1331 H         1 P99800      0.0000 
     28 H         -18.0332   -5.4490   33.4084 H         1 P99800      0.0000 
     29 H         -18.5042   -5.7359   31.1527 H         1 P99800      0.0000 
     30 H         -17.2345   -4.8182   30.3248 H         1 P99800      0.0000 
     31 H         -18.6821   -1.7878   25.8994 H         1 P99800      0.0000 
     32 H         -18.2256   -6.1593   23.9651 H         1 P99800      0.0000 
     33 H         -17.6154   -5.6176   22.3922 H         1 P99800      0.0000 
     34 H         -19.9311   -6.8563   22.3140 H         1 P99800      0.0000 
     35 H         -19.8228   -5.2745   21.5227 H         1 P99800      0.0000 
     36 H         -21.0188   -4.4574   23.6912 H         1 P99800      0.0000 
     37 H         -21.8280   -9.4441   23.1228 H         1 P99800      0.0000 
     38 H         -22.5666  -10.6499   21.0375 H         1 P99800      0.0000 
     39 H         -23.6632   -9.3776   19.1775 H         1 P99800      0.0000 
     40 H         -23.9703   -6.8877   19.3442 H         1 P99800      0.0000 
     41 H         -23.1987   -5.6814   21.4154 H         1 P99800      0.0000 
     42 H         -18.5213   -6.1384   25.6438 H         1 P99800      0.0000 
@<TRIPOS>BOND
     1    2    1 am   
     2   27    1 1    
     3   28    1 1    
     4    3    2 2    
     5    4    2 1    
     6    5    4 1    
     7   29    4 1    
     8   30    4 1    
     9    6    5 1    
    10    7    6 ar   
    11   25    6 ar   
    12    8    7 1    
    13    9    7 ar   
    14   10    9 ar   
    15   31    9 1    
    16   11   10 1    
    17   24   10 ar   
    18   12   11 1    
    19   13   12 1    
    20   32   12 1    
    21   33   12 1    
    22   14   13 1    
    23   34   13 1    
    24   35   13 1    
    25   15   14 1    
    26   36   14 1    
    27   16   15 2    
    28   17   15 2    
    29   18   15 1    
    30   19   18 ar   
    31   23   18 ar   
    32   20   19 ar   
    33   37   19 1    
    34   21   20 ar   
    35   38   20 1    
    36   22   21 ar   
    37   39   21 1    
    38   23   22 ar   
    39   40   22 1    
    40   41   23 1    
    41   25   24 ar   
    42   42   24 1    
    43   26   25 1    
@<TRIPOS>SUBSTRUCTURE
     1 P99800      1 GROUP   
@<TRIPOS>SET

