#    Name: 2x0e_TYD_2_INTS_M
#    Modification time : Tue Mar 25 04:55:20 2014

@<TRIPOS>MOLECULE
2x0e_TYD_2_INTS_M
   49     0    12     0     0
SMALL
NO_CHARGES


@<TRIPOS>ATOM
      1 NZ        -20.1155   13.8800   32.4235 N.4       3 LYC4        0.0000 
      2 NZ        -19.8890   13.0080   31.1790 N.4      11 LYL4        0.0000 
      3 NZ        -20.3420   14.7520   33.6680 N.4       7 LYP4        0.0000 
      4 N         -15.7775   11.5185   30.5915 N.am      2 SEC2        0.0000 
      5 N         -17.1860   11.8190   29.7140 N.am     10 SEL2        0.0000 
      6 N         -14.3690   11.2180   31.4690 N.am      6 SEP2        0.0000 
      7 N         -18.5170   12.4590   28.8390 N.am      2 SEC2        0.0000 
      8 N         -19.8480   13.0990   27.9640 N.am      6 SEP2        0.0000 
      9 NZ        -19.0475   10.5470   27.4520 N.4       3 LYC4        0.0000 
     10 NZ        -17.9950    9.8150   28.3320 N.4      11 LYL4        0.0000 
     11 NZ        -20.5440   12.4390   27.0440 N.4       7 LYP4        0.0000 
     12 N         -19.0475   10.5470   27.4520 N.am      2 SEC2        0.0000 
     13 N         -17.9950    9.8150   28.3320 N.am     10 SEL2        0.0000 
     14 N         -20.1000   11.2790   26.5720 N.am      6 SEP2        0.0000 
     15 N         -21.7165   10.9690   30.4385 N.am      2 SEC2        0.0000 
     16 N         -20.9710   10.8580   32.0170 N.am     10 SEL2        0.0000 
     17 N         -22.4620   11.0800   28.8600 N.am      6 SEP2        0.0000 
     18 CA        -21.9585    6.9380   33.9170 C.3       4 GLC5        0.0000 
     19 CA        -22.0750    8.7300   34.7640 C.3      12 GLL5        0.0000 
     20 CA        -21.8420    5.1460   33.0700 C.3       8 GLP5        0.0000 
     21 O         -22.5050    7.1260   35.8420 O.2       1 ALC1        0.0000 
     22 O         -21.4040    7.6460   35.4280 O.2       9 ALL1        0.0000 
     23 O         -23.6060    6.6060   36.2560 O.2       5 ALP1        0.0000 
     24 O         -24.6445   15.1815   36.8355 O.2       1 ALC1        0.0000 
     25 O         -24.3950   14.0570   36.1010 O.2       9 ALL1        0.0000 
     26 O         -24.8940   16.3060   37.5700 O.2       5 ALP1        0.0000 
     27 N         -26.1270   16.2400   35.1995 N.am      2 SEC2        0.0000 
     28 N         -26.0520   14.9280   34.8880 N.am     10 SEL2        0.0000 
     29 N         -26.2020   17.5520   35.5110 N.am      6 SEP2        0.0000 
     30 CA        -25.9010   11.8840   35.6465 C.3       4 GLC5        0.0000 
     31 CA        -25.1200   12.9060   34.0910 C.3      12 GLL5        0.0000 
     32 CA        -26.6820   10.8620   37.2020 C.3       8 GLP5        0.0000 
     33 CA        -25.4005   11.9880   31.2170 C.3       4 GLC5        0.0000 
     34 CA        -26.0490   12.8680   32.9010 C.3      12 GLL5        0.0000 
     35 CA        -24.7520   11.1080   29.5330 C.3       8 GLP5        0.0000 
     36 CA        -27.7320   13.8440   32.4435 C.3       4 GLC5        0.0000 
     37 CA        -29.4150   14.8200   31.9860 C.3       8 GLP5        0.0000 
     38 CA        -25.7440   14.0030   31.4880 C.3       4 GLC5        0.0000 
     39 CA        -25.4390   15.1380   30.0750 C.3       8 GLP5        0.0000 
     40 CA        -27.2690   11.8295   34.0105 C.3       4 GLC5        0.0000 
     41 CA        -28.4890   10.7910   35.1200 C.3       8 GLP5        0.0000 
     42 CA        -25.3925   10.8815   35.2905 C.3       4 GLC5        0.0000 
     43 CA        -24.1650   11.9210   34.3130 C.3      12 GLL5        0.0000 
     44 CA        -26.6200    9.8420   36.2680 C.3       8 GLP5        0.0000 
     45 CA        -22.9247   10.8700   37.6340 C.3       4 GLC5        0.0000 
     46 CA        -22.8780    9.5580   35.7580 C.3      12 GLL5        0.0000 
     47 CA        -23.2370   11.4700   39.5700 C.3       8 GLP5        0.0000 
     48 CA        -24.6163   10.0560   35.9830 C.3       4 GLC5        0.0000 
     49 CA        -22.3470   10.9820   35.6380 C.3      12 GLL5        0.0000 
@<TRIPOS>BOND
@<TRIPOS>SUBSTRUCTURE
     1 ALC1       21 GROUP        1 X    ALC  0     ROOT ALC X 1
     2 SEC2        4 GROUP        1 X    SEC  0     **** SEC X 2
     3 LYC4        1 GROUP        1 X    LYC  0     **** LYC X 4
     4 GLC5       18 GROUP        1 X    GLC  0     **** GLC X 6
     5 ALP1       23 GROUP        1 Y    ALP  0     ROOT ALP Y 8
     6 SEP2        6 GROUP        1 Y    SEP  0     **** SEP Y 9
     7 LYP4        3 GROUP        1 Y    LYP  0     **** LYP Y 11
     8 GLP5       20 GROUP        1 Y    GLP  0     **** GLP Y 13
     9 ALL1       22 GROUP        1 Z    ALL  0     ROOT ALL Z 15
    10 SEL2        5 GROUP        1 Z    SEL  0     **** SEL Z 16
    11 LYL4        2 GROUP        1 Z    LYL  0     **** LYL Z 18
    12 GLL5       19 GROUP        1 Z    GLL  0     **** GLL Z 20
@<TRIPOS>SET

