#    Name: 2x0e_TYD_2_ligand
#    Modification time : Tue Mar 25 04:55:20 2014

@<TRIPOS>MOLECULE
2x0e_TYD_2_ligand
   38    39     1     0     0
SMALL
NO_CHARGES


@<TRIPOS>ATOM
      1 PA        -19.6070   11.5590   31.5200 P.3       1 TYD414      0.0000 
      2 O1A       -19.8890   13.0080   31.1790 O.co2     1 TYD414      0.0000 
      3 O2A       -18.4920   11.2310   32.4860 O.co2     1 TYD414      0.0000 
      4 O3A       -19.3520   10.7790   30.1360 O.3       1 TYD414      0.0000 
      5 PB        -17.8460   10.4470   29.6910 P.3       1 TYD414      0.0000 
      6 O1B       -17.1860   11.8190   29.7140 O.co2     1 TYD414      0.0000 
      7 O2B       -17.3850    9.4800   30.7540 O.co2     1 TYD414      0.0000 
      8 O3B       -17.9950    9.8150   28.3320 O.co2     1 TYD414      0.0000 
      9 O5'       -20.9710   10.8580   32.0170 O.3       1 TYD414      0.0000 
     10 C5'       -20.9560    9.5550   32.6230 C.3       1 TYD414      0.0000 
     11 C4'       -21.0750    9.6940   34.1430 C.3       1 TYD414      0.0000 
     12 O4'       -21.4420   11.0170   34.5330 O.3       1 TYD414      0.0000 
     13 C3'       -22.0750    8.7300   34.7640 C.3       1 TYD414      0.0000 
     14 O3'       -21.4040    7.6460   35.4280 O.3       1 TYD414      0.0000 
     15 C2'       -22.8780    9.5580   35.7580 C.3       1 TYD414      0.0000 
     16 C1'       -22.3470   10.9820   35.6380 C.3       1 TYD414      0.0000 
     17 N1        -23.3800   11.9980   35.3930 N.am      1 TYD414      0.0000 
     18 C2        -23.4920   13.0860   36.2810 C.2       1 TYD414      0.0000 
     19 O2        -22.7290   13.1370   37.2690 O.2       1 TYD414      0.0000 
     20 N3        -24.3950   14.0570   36.1010 N.am      1 TYD414      0.0000 
     21 C4        -25.2140   14.0250   35.0570 C.2       1 TYD414      0.0000 
     22 O4        -26.0520   14.9280   34.8880 O.2       1 TYD414      0.0000 
     23 C5        -25.1200   12.9060   34.0910 C.2       1 TYD414      0.0000 
     24 C5M       -26.0490   12.8680   32.9010 C.3       1 TYD414      0.0000 
     25 C6        -24.1650   11.9210   34.3130 C.2       1 TYD414      0.0000 
     26 H         -20.0261    9.0206   32.4071 H         1 TYD414      0.0000 
     27 H         -21.7914    8.9394   32.2763 H         1 TYD414      0.0000 
     28 H         -20.0878    9.4499   34.5766 H         1 TYD414      0.0000 
     29 H         -22.7385    8.3943   33.9966 H         1 TYD414      0.0000 
     30 H         -22.7117    9.1939   36.7494 H         1 TYD414      0.0000 
     31 H         -23.9137    9.5363   35.4933 H         1 TYD414      0.0000 
     32 H         -21.8075   11.2187   36.5500 H         1 TYD414      0.0000 
     33 H         -24.4521   14.8456   36.7914 H         1 TYD414      0.0000 
     34 H         -24.0809   11.1452   33.6350 H         1 TYD414      0.0000 
     35 H         -25.9394   13.6734   32.3184 H         1 TYD414      0.0000 
     36 H         -25.8842   12.0662   32.3266 H         1 TYD414      0.0000 
     37 H         -27.0088   12.8364   33.1800 H         1 TYD414      0.0000 
     38 H         -22.1321    7.1254   35.8739 H         1 TYD414      0.0000 
@<TRIPOS>BOND
     1    2    1 ar   
     2    3    1 ar   
     3    4    1 1    
     4    9    1 1    
     5    5    4 1    
     6    6    5 ar   
     7    7    5 ar   
     8    8    5 ar   
     9   10    9 1    
    10   11   10 1    
    11   26   10 1    
    12   27   10 1    
    13   12   11 1    
    14   13   11 1    
    15   28   11 1    
    16   16   12 1    
    17   14   13 1    
    18   15   13 1    
    19   29   13 1    
    20   38   14 1    
    21   16   15 1    
    22   30   15 1    
    23   31   15 1    
    24   17   16 1    
    25   32   16 1    
    26   18   17 1    
    27   25   17 1    
    28   19   18 2    
    29   20   18 1    
    30   21   20 1    
    31   33   20 1    
    32   22   21 2    
    33   23   21 1    
    34   24   23 1    
    35   25   23 2    
    36   35   24 1    
    37   36   24 1    
    38   37   24 1    
    39   34   25 1    
@<TRIPOS>SUBSTRUCTURE
     1 TYD414      1 GROUP   
@<TRIPOS>SET

