#    Name: 3r7y_Z04_1_INTS_M
#    Modification time : Tue Mar 25 11:14:11 2014

@<TRIPOS>MOLECULE
3r7y_Z04_1_INTS_M
   56     0     9     0     0
SMALL
NO_CHARGES


@<TRIPOS>ATOM
      1 O         116.9590   47.4080  -48.7210 O.2       1 ALC1        0.0000 
      2 O         117.8460   46.5360  -47.9180 O.2       7 ALL1        0.0000 
      3 O         116.0720   48.2800  -49.5240 O.2       4 ALP1        0.0000 
      4 O         120.9915   46.9085  -51.9740 O.2       1 ALC1        0.0000 
      5 O         120.9910   46.3070  -50.6090 O.2       7 ALL1        0.0000 
      6 O         120.9920   47.5100  -53.3390 O.2       4 ALP1        0.0000 
      7 N         115.7000   46.3545  -42.6465 N.am      2 SEC2        0.0000 
      8 N         115.8450   47.4260  -43.7120 N.am      8 SEL2        0.0000 
      9 N         115.5550   45.2830  -41.5810 N.am      5 SEP2        0.0000 
     10 CA        120.3720   48.0820  -47.4140 C.3       3 GLC5        0.0000 
     11 CA        120.1380   46.0880  -48.3710 C.3       9 GLL5        0.0000 
     12 CA        120.6060   50.0760  -46.4570 C.3       6 GLP5        0.0000 
     13 CA        118.2335   44.0160  -47.3975 C.3       3 GLC5        0.0000 
     14 CA        119.1040   45.4100  -46.2260 C.3       9 GLL5        0.0000 
     15 CA        117.3630   42.6220  -48.5690 C.3       6 GLP5        0.0000 
     16 CA        115.8900   44.2855  -46.4455 C.3       3 GLC5        0.0000 
     17 CA        116.5110   46.2550  -47.2950 C.3       9 GLL5        0.0000 
     18 CA        115.2690   42.3160  -45.5960 C.3       6 GLP5        0.0000 
     19 CA        116.9370   44.4385  -47.9320 C.3       3 GLC5        0.0000 
     20 CA        114.9925   48.8615  -47.6395 C.3       3 GLC5        0.0000 
     21 CA        116.4640   48.5390  -46.1540 C.3       9 GLL5        0.0000 
     22 CA        113.5210   49.1840  -49.1250 C.3       6 GLP5        0.0000 
     23 CA        117.8920   48.5110  -44.0485 C.3       3 GLC5        0.0000 
     24 CA        116.0130   48.7680  -43.9000 C.3       9 GLL5        0.0000 
     25 CA        119.7710   48.2540  -44.1970 C.3       6 GLP5        0.0000 
     26 CA        115.6370   44.4790  -45.2090 C.3       3 GLC5        0.0000 
     27 CA        116.0050   46.6420  -44.8220 C.3       9 GLL5        0.0000 
     28 CA        117.2705   42.7900  -44.9080 C.3       3 GLC5        0.0000 
     29 CA        119.2720   43.2640  -44.2200 C.3       9 GLL5        0.0000 
     30 CA        118.7750   40.9165  -42.8040 C.3       3 GLC5        0.0000 
     31 CA        119.0680   43.0780  -42.7090 C.3       9 GLL5        0.0000 
     32 CA        118.4820   38.7550  -42.8990 C.3       6 GLP5        0.0000 
     33 CA        123.2890   45.4915  -43.9475 C.3       3 GLC5        0.0000 
     34 CA        121.2660   44.7920  -43.4860 C.3       9 GLL5        0.0000 
     35 CA        125.3120   46.1910  -44.4090 C.3       6 GLP5        0.0000 
     36 N         118.2330   47.9350  -50.9125 N.am      2 SEC2        0.0000 
     37 N         119.2790   47.5370  -49.9050 N.am      8 SEL2        0.0000 
     38 N         117.1870   48.3330  -51.9200 N.am      5 SEP2        0.0000 
     39 CA        122.7660   46.5472  -46.5373 C.3       3 GLC5        0.0000 
     40 CA        121.3610   45.5210  -47.9200 C.3       9 GLL5        0.0000 
     41 CA        124.1020   47.8890  -45.7970 C.3       6 GLP5        0.0000 
     42 CA        121.7892   47.3768  -49.0042 C.3       3 GLC5        0.0000 
     43 CA        122.8290   48.9490  -49.8630 C.3       6 GLP5        0.0000 
     44 CA        119.4070   46.9868  -45.5340 C.3       3 GLC5        0.0000 
     45 CA        118.9820   46.0290  -47.5160 C.3       9 GLL5        0.0000 
     46 CA        119.2269   44.8444  -49.1364 C.3       3 GLC5        0.0000 
     47 CA        118.5880   43.7720  -50.4420 C.3       6 GLP5        0.0000 
     48 CA        120.3405   46.5598  -45.1953 C.3       3 GLC5        0.0000 
     49 CA        121.4990   44.8900  -46.6350 C.3       9 GLL5        0.0000 
     50 CA        117.9846   47.7484  -44.8344 C.3       3 GLC5        0.0000 
     51 CA        116.3190   47.1480  -46.0890 C.3       9 GLL5        0.0000 
     52 CA        114.4580   46.3369  -46.4995 C.3       3 GLC5        0.0000 
     53 CA        112.7060   46.0020  -47.2420 C.3       6 GLP5        0.0000 
     54 CA        120.4052   46.4327  -43.4865 C.3       3 GLC5        0.0000 
     55 CA        121.4383   46.0053  -41.5280 C.3       3 GLC5        0.0000 
     56 CA        121.8370   47.3990  -40.2800 C.3       6 GLP5        0.0000 
@<TRIPOS>BOND
@<TRIPOS>SUBSTRUCTURE
     1 ALC1        1 GROUP        1 X    ALC  0     ROOT ALC X 1
     2 SEC2        7 GROUP        1 X    SEC  0     **** SEC X 2
     3 GLC5       10 GROUP        1 X    GLC  0     **** GLC X 6
     4 ALP1        3 GROUP        1 Y    ALP  0     ROOT ALP Y 8
     5 SEP2        9 GROUP        1 Y    SEP  0     **** SEP Y 9
     6 GLP5       12 GROUP        1 Y    GLP  0     **** GLP Y 13
     7 ALL1        2 GROUP        1 Z    ALL  0     ROOT ALL Z 15
     8 SEL2        8 GROUP        1 Z    SEL  0     **** SEL Z 16
     9 GLL5       11 GROUP        1 Z    GLL  0     **** GLL Z 20
@<TRIPOS>SET

