#    Name: 3r7y_Z04_1_ligand
#    Modification time : Tue Mar 25 11:14:11 2014

@<TRIPOS>MOLECULE
3r7y_Z04_1_ligand
   46    48     1     0     0
SMALL
NO_CHARGES


@<TRIPOS>ATOM
      1 N01       117.8460   46.5360  -47.9180 N.pl3     1 Z04484      0.0000 
      2 N02       120.9910   46.3070  -50.6090 N.am      1 Z04484      0.0000 
      3 N03       116.3160   49.3660  -45.0830 N.ar      1 Z04484      0.0000 
      4 N04       115.8450   47.4260  -43.7120 N.ar      1 Z04484      0.0000 
      5 N05       120.3060   44.3060  -44.5470 N.3       1 Z04484      0.0000 
      6 N06       115.8770   49.5240  -42.8820 N.pl3     1 Z04484      0.0000 
      7 N07       122.6650   44.3940  -46.3330 N.pl3     1 Z04484      0.0000 
      8 C08       121.3610   45.5210  -47.9200 C.ar      1 Z04484      0.0000 
      9 C09       120.1380   46.0880  -48.3710 C.ar      1 Z04484      0.0000 
     10 C11       118.9820   46.0290  -47.5160 C.ar      1 Z04484      0.0000 
     11 C12       119.1040   45.4100  -46.2260 C.ar      1 Z04484      0.0000 
     12 C13       120.3210   44.8410  -45.7520 C.ar      1 Z04484      0.0000 
     13 C14       121.4990   44.8900  -46.6350 C.ar      1 Z04484      0.0000 
     14 C15       120.0960   46.6790  -49.6390 C.2       1 Z04484      0.0000 
     15 C16       116.5110   46.2550  -47.2950 C.3       1 Z04484      0.0000 
     16 C17       116.3190   47.1480  -46.0890 C.ar      1 Z04484      0.0000 
     17 C18       116.4640   48.5390  -46.1540 C.ar      1 Z04484      0.0000 
     18 C19       116.0130   48.7680  -43.9000 C.ar      1 Z04484      0.0000 
     19 C20       116.0050   46.6420  -44.8220 C.ar      1 Z04484      0.0000 
     20 C21       119.2720   43.2640  -44.2200 C.3       1 Z04484      0.0000 
     21 C22       119.0680   43.0780  -42.7090 C.3       1 Z04484      0.0000 
     22 C23       121.2660   44.7920  -43.4860 C.3       1 Z04484      0.0000 
     23 C24       120.8130   44.4310  -42.0660 C.3       1 Z04484      0.0000 
     24 O25       119.2790   47.5370  -49.9050 O.2       1 Z04484      0.0000 
     25 O26       120.3430   43.1000  -42.0880 O.3       1 Z04484      0.0000 
     26 O27       122.8170   43.5200  -45.3760 O.2       1 Z04484      0.0000 
     27 O28       123.7440   44.7320  -47.0330 O.2       1 Z04484      0.0000 
     28 H         117.7836   47.2052  -48.7413 H         1 Z04484      0.0000 
     29 H         120.9324   46.8030  -51.4753 H         1 Z04484      0.0000 
     30 H         121.6240   45.5722  -50.3652 H         1 Z04484      0.0000 
     31 H         115.9561   50.5066  -43.0499 H         1 Z04484      0.0000 
     32 H         115.7041   49.0631  -42.0116 H         1 Z04484      0.0000 
     33 H         122.1911   45.5604  -48.5372 H         1 Z04484      0.0000 
     34 H         118.2667   45.3781  -45.6161 H         1 Z04484      0.0000 
     35 H         116.4609   45.2140  -46.9833 H         1 Z04484      0.0000 
     36 H         115.7193   46.4486  -48.0156 H         1 Z04484      0.0000 
     37 H         116.7024   48.9560  -47.0969 H         1 Z04484      0.0000 
     38 H         115.8879   45.5966  -44.7315 H         1 Z04484      0.0000 
     39 H         119.5687   42.2979  -44.6528 H         1 Z04484      0.0000 
     40 H         118.3084   43.5433  -44.6697 H         1 Z04484      0.0000 
     41 H         118.5518   42.1299  -42.5612 H         1 Z04484      0.0000 
     42 H         118.4245   43.8861  -42.3622 H         1 Z04484      0.0000 
     43 H         121.3684   45.8833  -43.5552 H         1 Z04484      0.0000 
     44 H         122.2582   44.3545  -43.6600 H         1 Z04484      0.0000 
     45 H         120.0386   45.1417  -41.7778 H         1 Z04484      0.0000 
     46 H         121.6702   44.5594  -41.4053 H         1 Z04484      0.0000 
@<TRIPOS>BOND
     1   10    1 1    
     2   15    1 1    
     3   28    1 1    
     4   14    2 am   
     5   29    2 1    
     6   30    2 1    
     7   17    3 ar   
     8   18    3 ar   
     9   18    4 ar   
    10   19    4 ar   
    11   12    5 1    
    12   20    5 1    
    13   22    5 1    
    14   18    6 1    
    15   31    6 1    
    16   32    6 1    
    17   13    7 1    
    18   26    7 2    
    19   27    7 2    
    20    9    8 ar   
    21   13    8 ar   
    22   33    8 1    
    23   10    9 ar   
    24   14    9 1    
    25   11   10 ar   
    26   12   11 ar   
    27   34   11 1    
    28   13   12 ar   
    29   24   14 2    
    30   16   15 1    
    31   35   15 1    
    32   36   15 1    
    33   17   16 ar   
    34   19   16 ar   
    35   37   17 1    
    36   38   19 1    
    37   21   20 1    
    38   39   20 1    
    39   40   20 1    
    40   25   21 1    
    41   41   21 1    
    42   42   21 1    
    43   23   22 1    
    44   43   22 1    
    45   44   22 1    
    46   25   23 1    
    47   45   23 1    
    48   46   23 1    
@<TRIPOS>SUBSTRUCTURE
     1 Z04484      1 GROUP   
@<TRIPOS>SET

