#    Name: 3i6q_NDP_1_INTS_M
#    Modification time : Tue Mar 25 15:57:43 2014

@<TRIPOS>MOLECULE
3i6q_NDP_1_INTS_M
   81     0     9     0     0
SMALL
NO_CHARGES


@<TRIPOS>ATOM
      1 N           1.6265    5.6465   22.3540 N.am      2 SEC2        0.0000 
      2 N           0.7340    6.5280   21.5800 N.am      8 SEL2        0.0000 
      3 N           2.5190    4.7650   23.1280 N.am      5 SEP2        0.0000 
      4 CA          2.5070    9.4015   18.6920 C.3       3 GLC5        0.0000 
      5 CA          2.9920    9.5410   20.6530 C.3       9 GLL5        0.0000 
      6 CA          2.0220    9.2620   16.7310 C.3       6 GLP5        0.0000 
      7 N           4.4080   10.3790   25.4305 N.am      2 SEC2        0.0000 
      8 N           4.3590   10.4240   23.8900 N.am      8 SEL2        0.0000 
      9 N           4.4570   10.3340   26.9710 N.am      5 SEP2        0.0000 
     10 CA          6.1810   11.1715   21.9980 C.3       3 GLC5        0.0000 
     11 CA          4.8090   12.3470   21.6280 C.3       9 GLL5        0.0000 
     12 CA          7.5530    9.9960   22.3680 C.3       6 GLP5        0.0000 
     13 CA          5.9455   12.3455   19.7320 C.3       3 GLC5        0.0000 
     14 CA          7.0820   12.3440   17.8360 C.3       6 GLP5        0.0000 
     15 CA          6.3330   17.9610   21.0940 C.3       3 GLC5        0.0000 
     16 CA          6.2850   16.4840   19.4850 C.3       9 GLL5        0.0000 
     17 CA          6.3810   19.4380   22.7030 C.3       6 GLP5        0.0000 
     18 CA          7.7185   16.2665   18.2710 C.3       3 GLC5        0.0000 
     19 CA          9.1520   16.0490   17.0570 C.3       6 GLP5        0.0000 
     20 O           6.3755   18.7980   18.3015 O.2       1 ALC1        0.0000 
     21 O           5.9860   17.3700   18.5250 O.2       7 ALL1        0.0000 
     22 O           6.7650   20.2260   18.0780 O.2       4 ALP1        0.0000 
     23 O           5.0840   17.4520   17.3415 O.2       1 ALC1        0.0000 
     24 O           4.1820   17.5340   16.1580 O.2       4 ALP1        0.0000 
     25 N           8.5775   17.4105   19.7390 N.am      2 SEC2        0.0000 
     26 N           7.3850   16.6370   20.2370 N.am      8 SEL2        0.0000 
     27 N           9.7700   18.1840   19.2410 N.am      5 SEP2        0.0000 
     28 CA          9.6155   15.8640   21.7465 C.3       3 GLC5        0.0000 
     29 CA          7.6830   15.7630   21.1940 C.3       9 GLL5        0.0000 
     30 CA         11.5480   15.9650   22.2990 C.3       6 GLP5        0.0000 
     31 CA          8.4365   17.6195   21.2045 C.3       3 GLC5        0.0000 
     32 CA          9.1900   19.4760   21.2150 C.3       6 GLP5        0.0000 
     33 CA          9.3015   15.6180   19.9920 C.3       3 GLC5        0.0000 
     34 CA         10.9200   15.4730   18.7900 C.3       6 GLP5        0.0000 
     35 N           3.3915    3.7910   20.8170 N.am      2 SEC2        0.0000 
     36 N           2.7380    4.8070   20.0480 N.am      8 SEL2        0.0000 
     37 N           4.0450    2.7750   21.5860 N.am      5 SEP2        0.0000 
     38 N           3.7440    5.4050   20.5175 N.am      2 SEC2        0.0000 
     39 N           4.7500    6.0030   20.9870 N.am      5 SEP2        0.0000 
     40 CA          3.0010    7.4205   17.0180 C.3       3 GLC5        0.0000 
     41 CA          3.9800    5.5790   17.3050 C.3       9 GLL5        0.0000 
     42 CA          5.5855    3.2880   15.3525 C.3       3 GLC5        0.0000 
     43 CA          4.2830    5.0410   15.8580 C.3       9 GLL5        0.0000 
     44 CA          6.8880    1.5350   14.8470 C.3       6 GLP5        0.0000 
     45 CA          2.7330    7.4685   15.7345 C.3       3 GLC5        0.0000 
     46 CA          3.4440    5.6750   14.7380 C.3       9 GLL5        0.0000 
     47 N           4.1040    5.4080   12.2730 N.am      2 SEC2        0.0000 
     48 N           4.2910    5.8900   13.5940 N.am      8 SEL2        0.0000 
     49 N           3.9170    4.9260   10.9520 N.am      5 SEP2        0.0000 
     50 O           5.3675    6.6255   14.1935 O.2       1 ALC1        0.0000 
     51 O           4.2910    5.8900   13.5940 O.2       7 ALL1        0.0000 
     52 O           6.4440    7.3610   14.7930 O.2       4 ALP1        0.0000 
     53 N           2.9515    4.7880   11.9945 N.am      2 SEC2        0.0000 
     54 N           1.9860    4.6500   13.0370 N.am      8 SEL2        0.0000 
     55 CA          3.6800    2.5665   16.8230 C.3       3 GLC5        0.0000 
     56 CA          3.0550    3.3140   14.8000 C.3       9 GLL5        0.0000 
     57 CA          4.3050    1.8190   18.8460 C.3       6 GLP5        0.0000 
     58 CA          4.9715    2.4245   14.8235 C.3       3 GLC5        0.0000 
     59 N           1.2360   -3.7085   15.8155 N.am      2 SEC2        0.0000 
     60 N           0.8210   -2.3160   15.4550 N.am      8 SEL2        0.0000 
     61 N           1.6510   -5.1010   16.1760 N.am      5 SEP2        0.0000 
     62 O           3.0230   -2.7410   13.6060 O.2       1 ALC1        0.0000 
     63 O           2.7100   -1.7290   14.3860 O.2       7 ALL1        0.0000 
     64 O           3.3360   -3.7530   12.8260 O.2       4 ALP1        0.0000 
     65 O           3.8080   -0.8950   14.0530 O.2       1 ALC1        0.0000 
     66 O           4.9060   -0.0610   13.7200 O.2       4 ALP1        0.0000 
     67 CA          4.5795   10.0445   19.3665 C.3       3 GLC5        0.0000 
     68 CA          4.1120   10.1070   21.4990 C.3       9 GLL5        0.0000 
     69 CA          5.6070   10.2650   17.6570 C.3       6 GLP5        0.0000 
     70 CA          5.6813   10.2090   22.2548 C.3       3 GLC5        0.0000 
     71 CA          3.5363    8.5602   22.8800 C.3       3 GLC5        0.0000 
     72 CA          3.5070   10.7370   22.7840 C.3       9 GLL5        0.0000 
     73 CA          3.5430    6.8400   23.8300 C.3       6 GLP5        0.0000 
     74 CA          6.3607   13.6370   19.0290 C.3       3 GLC5        0.0000 
     75 CA          5.8060   14.4830   20.7240 C.3       9 GLL5        0.0000 
     76 CA          4.2183    3.5645   17.7137 C.3       3 GLC5        0.0000 
     77 CA          3.0228    0.3852   17.0998 C.3       3 GLC5        0.0000 
     78 CA          2.3180    0.9380   15.0630 C.3       9 GLL5        0.0000 
     79 CA          4.1650    0.2890   18.9240 C.3       6 GLP5        0.0000 
     80 CA          2.6080    2.0180   17.7957 C.3       3 GLC5        0.0000 
     81 CA          1.3550    2.6340   16.4860 C.3       9 GLL5        0.0000 
@<TRIPOS>BOND
@<TRIPOS>SUBSTRUCTURE
     1 ALC1       20 GROUP        1 X    ALC  0     ROOT ALC X 1
     2 SEC2        1 GROUP        1 X    SEC  0     **** SEC X 2
     3 GLC5        4 GROUP        1 X    GLC  0     **** GLC X 6
     4 ALP1       22 GROUP        1 Y    ALP  0     ROOT ALP Y 8
     5 SEP2        3 GROUP        1 Y    SEP  0     **** SEP Y 9
     6 GLP5        6 GROUP        1 Y    GLP  0     **** GLP Y 13
     7 ALL1       21 GROUP        1 Z    ALL  0     ROOT ALL Z 15
     8 SEL2        2 GROUP        1 Z    SEL  0     **** SEL Z 16
     9 GLL5        5 GROUP        1 Z    GLL  0     **** GLL Z 20
@<TRIPOS>SET

