#    Name: 3i6q_NDP_1_ligand
#    Modification time : Tue Mar 25 15:57:43 2014

@<TRIPOS>MOLECULE
3i6q_NDP_1_ligand
   74    78     1     0     0
SMALL
NO_CHARGES


@<TRIPOS>ATOM
      1 PA          1.1790    7.6980   20.6890 P.3       1 NDP360      0.0000 
      2 O1A         0.1330    8.5990   20.1350 O.co2     1 NDP360      0.0000 
      3 O2A         0.7340    6.5280   21.5800 O.co2     1 NDP360      0.0000 
      4 O5B         2.3680    8.4520   21.3500 O.3       1 NDP360      0.0000 
      5 C5B         2.9920    9.5410   20.6530 C.3       1 NDP360      0.0000 
      6 C4B         4.1120   10.1070   21.4990 C.3       1 NDP360      0.0000 
      7 O4B         4.7180   11.2050   20.7550 O.3       1 NDP360      0.0000 
      8 C3B         3.5070   10.7370   22.7840 C.3       1 NDP360      0.0000 
      9 O3B         4.3590   10.4240   23.8900 O.3       1 NDP360      0.0000 
     10 C2B         3.5360   12.2280   22.4600 C.3       1 NDP360      0.0000 
     11 O2B         3.6780   13.0310   23.6320 O.3       1 NDP360      0.0000 
     12 C1B         4.8090   12.3470   21.6280 C.3       1 NDP360      0.0000 
     13 N9A         4.8660   13.5380   20.7400 N.pl3     1 NDP360      0.0000 
     14 C8A         3.9820   13.8350   19.7840 C.2       1 NDP360      0.0000 
     15 N7A         4.3420   14.9530   19.1660 N.2       1 NDP360      0.0000 
     16 C5A         5.4730   15.3770   19.7200 C.ar      1 NDP360      0.0000 
     17 C6A         6.2850   16.4840   19.4850 C.ar      1 NDP360      0.0000 
     18 N6A         5.9860   17.3700   18.5250 N.pl3     1 NDP360      0.0000 
     19 N1A         7.3850   16.6370   20.2370 N.ar      1 NDP360      0.0000 
     20 C2A         7.6830   15.7630   21.1940 C.ar      1 NDP360      0.0000 
     21 N3A         6.9220   14.6930   21.4420 N.ar      1 NDP360      0.0000 
     22 C4A         5.8060   14.4830   20.7240 C.ar      1 NDP360      0.0000 
     23 O3          1.9730    6.9190   19.3560 O.3       1 NDP360      0.0000 
     24 PN          1.8240    5.3960   18.8760 P.3       1 NDP360      0.0000 
     25 O1N         0.3790    5.3700   18.8050 O.co2     1 NDP360      0.0000 
     26 O2N         2.7380    4.8070   20.0480 O.co2     1 NDP360      0.0000 
     27 O5D         2.5990    5.8510   17.4860 O.3       1 NDP360      0.0000 
     28 C5D         3.9800    5.5790   17.3050 C.3       1 NDP360      0.0000 
     29 C4D         4.2830    5.0410   15.8580 C.3       1 NDP360      0.0000 
     30 O4D         3.9460    3.6200   15.8890 O.3       1 NDP360      0.0000 
     31 C3D         3.4440    5.6750   14.7380 C.3       1 NDP360      0.0000 
     32 O3D         4.2910    5.8900   13.5940 O.3       1 NDP360      0.0000 
     33 C2D         2.3870    4.6240   14.4300 C.3       1 NDP360      0.0000 
     34 O2D         1.9860    4.6500   13.0370 O.3       1 NDP360      0.0000 
     35 C1D         3.0550    3.3140   14.8000 C.3       1 NDP360      0.0000 
     36 N1N         2.0970    2.2970   15.3010 N.pl3     1 NDP360      0.0000 
     37 C2N         2.3180    0.9380   15.0630 C.2       1 NDP360      0.0000 
     38 C3N         1.4430    0.0250   15.4880 C.2       1 NDP360      0.0000 
     39 C7N         1.6250   -1.4550   15.1070 C.2       1 NDP360      0.0000 
     40 O7N         0.8210   -2.3160   15.4550 O.2       1 NDP360      0.0000 
     41 N7N         2.7100   -1.7290   14.3860 N.am      1 NDP360      0.0000 
     42 C4N         0.2280    0.4350   16.3450 C.3       1 NDP360      0.0000 
     43 C5N         0.4670    1.8000   17.0050 C.2       1 NDP360      0.0000 
     44 C6N         1.3550    2.6340   16.4860 C.2       1 NDP360      0.0000 
     45 P2B         2.3770   13.7450   24.2820 P.3       1 NDP360      0.0000 
     46 O1X         1.5360   12.7220   24.9450 O.co2     1 NDP360      0.0000 
     47 O2X         3.0720   14.8080   25.2710 O.co2     1 NDP360      0.0000 
     48 O3X         1.6570   14.5680   23.1180 O.co2     1 NDP360      0.0000 
     49 H           2.2774   10.3455   20.4470 H         1 NDP360      0.0000 
     50 H           3.4158    9.2133   19.6973 H         1 NDP360      0.0000 
     51 H           4.7988    9.3753   21.7590 H         1 NDP360      0.0000 
     52 H           2.5245   10.4132   22.8734 H         1 NDP360      0.0000 
     53 H           2.7199   12.4684   21.8553 H         1 NDP360      0.0000 
     54 H           5.6506   12.2686   22.2462 H         1 NDP360      0.0000 
     55 H           3.1845   13.3016   19.5730 H         1 NDP360      0.0000 
     56 H           6.6244   18.1318   18.4150 H         1 NDP360      0.0000 
     57 H           5.1512   17.1900   18.0046 H         1 NDP360      0.0000 
     58 H           8.5537   15.9181   21.7819 H         1 NDP360      0.0000 
     59 H           4.3536    4.8142   18.0041 H         1 NDP360      0.0000 
     60 H           4.6067    6.4748   17.4397 H         1 NDP360      0.0000 
     61 H           5.3182    5.1645   15.6583 H         1 NDP360      0.0000 
     62 H           2.9896    6.5391   15.1035 H         1 NDP360      0.0000 
     63 H           1.5647    4.7778   15.0980 H         1 NDP360      0.0000 
     64 H           3.5997    2.9449   13.9682 H         1 NDP360      0.0000 
     65 H           3.1797    0.6646   14.5481 H         1 NDP360      0.0000 
     66 H           3.3181   -0.9583   14.1957 H         1 NDP360      0.0000 
     67 H           2.8192   -2.6809   14.0996 H         1 NDP360      0.0000 
     68 H           0.0687   -0.3137   17.1149 H         1 NDP360      0.0000 
     69 H          -0.6506    0.4916   15.7098 H         1 NDP360      0.0000 
     70 H          -0.0998    1.9748   17.8320 H         1 NDP360      0.0000 
     71 H           1.5560    3.5657   16.9084 H         1 NDP360      0.0000 
     72 H           4.9512    9.6887   23.5604 H         1 NDP360      0.0000 
     73 H           5.2158    5.9640   13.9671 H         1 NDP360      0.0000 
     74 H           1.2760    3.9501   12.9591 H         1 NDP360      0.0000 
@<TRIPOS>BOND
     1    2    1 ar   
     2    3    1 ar   
     3    4    1 1    
     4   23    1 1    
     5    5    4 1    
     6    6    5 1    
     7   49    5 1    
     8   50    5 1    
     9    7    6 1    
    10    8    6 1    
    11   51    6 1    
    12   12    7 1    
    13    9    8 1    
    14   10    8 1    
    15   52    8 1    
    16   72    9 1    
    17   11   10 1    
    18   12   10 1    
    19   53   10 1    
    20   45   11 1    
    21   13   12 1    
    22   54   12 1    
    23   14   13 1    
    24   22   13 1    
    25   15   14 2    
    26   55   14 1    
    27   16   15 1    
    28   17   16 ar   
    29   22   16 ar   
    30   18   17 1    
    31   19   17 ar   
    32   56   18 1    
    33   57   18 1    
    34   20   19 ar   
    35   21   20 ar   
    36   58   20 1    
    37   22   21 ar   
    38   24   23 1    
    39   25   24 ar   
    40   26   24 ar   
    41   27   24 1    
    42   28   27 1    
    43   29   28 1    
    44   59   28 1    
    45   60   28 1    
    46   30   29 1    
    47   31   29 1    
    48   61   29 1    
    49   35   30 1    
    50   32   31 1    
    51   33   31 1    
    52   62   31 1    
    53   73   32 1    
    54   34   33 1    
    55   35   33 1    
    56   63   33 1    
    57   74   34 1    
    58   36   35 1    
    59   64   35 1    
    60   37   36 1    
    61   44   36 1    
    62   38   37 2    
    63   65   37 1    
    64   39   38 1    
    65   42   38 1    
    66   40   39 2    
    67   41   39 am   
    68   66   41 1    
    69   67   41 1    
    70   43   42 1    
    71   68   42 1    
    72   69   42 1    
    73   44   43 2    
    74   70   43 1    
    75   71   44 1    
    76   46   45 ar   
    77   47   45 ar   
    78   48   45 ar   
@<TRIPOS>SUBSTRUCTURE
     1 NDP360      1 GROUP   
@<TRIPOS>SET

