#    Name: 4k33_ACP_1_INTS_M
#    Modification time : Tue Mar 25 06:48:34 2014

@<TRIPOS>MOLECULE
4k33_ACP_1_INTS_M
   90     0    15     0     0
SMALL
NO_CHARGES


@<TRIPOS>ATOM
      1 NZ         24.8045    6.5485   27.8720 N.4       3 LYC4        0.0000 
      2 NZ         25.6960    6.1020   29.0960 N.4      13 LYL4        0.0000 
      3 NZ         22.9200    7.3130   27.4650 N.4       8 LYP4        0.0000 
      4 N          24.8045    6.5485   27.8720 N.am      2 SEC2        0.0000 
      5 N          25.6960    6.1020   29.0960 N.am     12 SEL2        0.0000 
      6 N          23.9130    6.9950   26.6480 N.am      7 SEP2        0.0000 
      7 N          24.3310    6.5280   28.9235 N.am      2 SEC2        0.0000 
      8 N          22.9660    6.9540   28.7510 N.am      7 SEP2        0.0000 
      9 NZ         23.9675    7.7235   28.9495 N.4       3 LYC4        0.0000 
     10 NZ         25.0150    8.1340   30.4340 N.4      13 LYL4        0.0000 
     11 Zn         24.3335    8.2150   31.1620 Zn        4 ZIC7        0.0000 
     12 Zn         25.0150    8.1340   30.4340 Zn       14 ZIL7        0.0000 
     13 Zn         23.6520    8.2960   31.8900 Zn        9 ZIP7        0.0000 
     14 N          28.0490    8.6230   28.4335 N.am      2 SEC2        0.0000 
     15 N          27.3450    7.9630   29.3550 N.am     12 SEL2        0.0000 
     16 N          28.7530    9.2830   27.5120 N.am      7 SEP2        0.0000 
     17 N          28.2830    8.8170   29.7790 N.am      2 SEC2        0.0000 
     18 N          29.2210    9.6710   30.2030 N.am      7 SEP2        0.0000 
     19 NZ         24.8235    7.5360   34.2560 N.4       3 LYC4        0.0000 
     20 NZ         24.6370    7.0580   32.9590 N.4      13 LYL4        0.0000 
     21 NZ         25.0100    8.0140   35.5530 N.4       8 LYP4        0.0000 
     22 Zn         24.1445    7.6770   32.4245 Zn        4 ZIC7        0.0000 
     23 Zn         24.6370    7.0580   32.9590 Zn       14 ZIL7        0.0000 
     24 N          24.8235    7.5360   34.2560 N.am      2 SEC2        0.0000 
     25 N          24.6370    7.0580   32.9590 N.am     12 SEL2        0.0000 
     26 N          25.0100    8.0140   35.5530 N.am      7 SEP2        0.0000 
     27 N          23.5455    7.8865   33.2735 N.am      2 SEC2        0.0000 
     28 N          22.4540    8.7150   33.5880 N.am      7 SEP2        0.0000 
     29 Zn         24.0395    4.0330   32.6590 Zn        4 ZIC7        0.0000 
     30 Zn         24.7260    4.6380   32.3180 Zn       14 ZIL7        0.0000 
     31 Zn         23.3530    3.4280   33.0000 Zn        9 ZIP7        0.0000 
     32 CA         28.0000    5.5975   30.0715 C.3       5 GLC5        0.0000 
     33 CA         26.8680    6.3240   31.5390 C.3      15 GLL5        0.0000 
     34 CA         29.1320    4.8710   28.6040 C.3      10 GLP5        0.0000 
     35 CA         28.2285    7.9875   31.5755 C.3       5 GLC5        0.0000 
     36 CA         29.5890    9.6510   31.6120 C.3      10 GLP5        0.0000 
     37 NZ         25.3015    6.6195   35.9855 N.4       3 LYC4        0.0000 
     38 NZ         25.5930    5.2250   36.4180 N.4      13 LYL4        0.0000 
     39 N          25.3015    6.6195   35.9855 N.am      2 SEC2        0.0000 
     40 N          25.5930    5.2250   36.4180 N.am     12 SEL2        0.0000 
     41 Zn         24.0115    3.6065   33.7945 Zn        4 ZIC7        0.0000 
     42 Zn         24.6700    3.7850   34.5890 Zn       14 ZIL7        0.0000 
     43 CA         28.8435    4.2530   35.5450 C.3       5 GLC5        0.0000 
     44 CA         27.8130    2.8960   34.2940 C.3      15 GLL5        0.0000 
     45 CA         29.8740    5.6100   36.7960 C.3      10 GLP5        0.0000 
     46 CA         30.5990    1.6555   34.4210 C.3       5 GLC5        0.0000 
     47 CA         28.6290    1.7620   34.7750 C.3      15 GLL5        0.0000 
     48 CA         32.5690    1.5490   34.0670 C.3      10 GLP5        0.0000 
     49 N          27.3155   -1.5480   34.2080 N.am      2 SEC2        0.0000 
     50 N          27.1780   -0.1330   34.6020 N.am     12 SEL2        0.0000 
     51 N          27.4530   -2.9630   33.8140 N.am      7 SEP2        0.0000 
     52 N          28.4645   -1.9285   34.7355 N.am      2 SEC2        0.0000 
     53 N          29.4760   -0.8940   35.6570 N.am     12 SEL2        0.0000 
     54 CA         31.6830    1.4165   37.5740 C.3       5 GLC5        0.0000 
     55 CA         29.6060    1.1790   36.8450 C.3      15 GLL5        0.0000 
     56 CA         33.7600    1.6540   38.3030 C.3      10 GLP5        0.0000 
     57 CA         31.0875    1.3640   35.4560 C.3       5 GLC5        0.0000 
     58 CA         30.4130    3.1655   37.0955 C.3       5 GLC5        0.0000 
     59 CA         31.2200    5.1520   37.3460 C.3      10 GLP5        0.0000 
     60 CA         28.3095    3.9840   42.3650 C.3       5 GLC5        0.0000 
     61 CA         28.9190    1.9880   41.5850 C.3      15 GLL5        0.0000 
     62 CA         27.7000    5.9800   43.1450 C.3      10 GLP5        0.0000 
     63 CA         28.3435    0.1155   42.5400 C.3       5 GLC5        0.0000 
     64 CA         27.7680   -1.7570   43.4950 C.3      10 GLP5        0.0000 
     65 O          28.0675    2.7670   43.8820 O.2       1 ALC1        0.0000 
     66 O          28.1930    2.7980   42.5460 O.2      11 ALL1        0.0000 
     67 O          27.9420    2.7360   45.2180 O.2       6 ALP1        0.0000 
     68 N          29.6160    0.3350   43.3260 N.am      2 SEC2        0.0000 
     69 N          29.7580    1.0480   42.0480 N.am     12 SEL2        0.0000 
     70 N          29.4740   -0.3780   44.6040 N.am      7 SEP2        0.0000 
     71 CA         31.9420    1.2045   40.9705 C.3       5 GLC5        0.0000 
     72 CA         30.4550    0.2590   41.1920 C.3      15 GLL5        0.0000 
     73 CA         33.4290    2.1500   40.7490 C.3      10 GLP5        0.0000 
     74 CA         29.7350   -0.7435   42.7865 C.3       5 GLC5        0.0000 
     75 CA         29.0150   -1.7460   44.3810 C.3      10 GLP5        0.0000 
     76 CA         31.4505    1.7455   40.0340 C.3       5 GLC5        0.0000 
     77 CA         29.4720    1.3410   39.3190 C.3      15 GLL5        0.0000 
     78 CA         27.7860    0.2615   39.1665 C.3       5 GLC5        0.0000 
     79 CA         26.1000   -0.8180   39.0140 C.3      10 GLP5        0.0000 
     80 CA         27.1660   -1.3640   35.8540 C.3       5 GLC5        0.0000 
     81 CA         28.7260    0.1250   36.3700 C.3      15 GLL5        0.0000 
     82 CA         26.0600   -3.1830   35.7820 C.3      10 GLP5        0.0000 
     83 CA         27.1860   -0.1815   37.4700 C.3       5 GLC5        0.0000 
     84 CA         30.1313    3.3582   39.3128 C.3       5 GLC5        0.0000 
     85 CA         31.1520    4.9600   38.8630 C.3      10 GLP5        0.0000 
     86 CA         29.9615    3.2845   41.7852 C.3       5 GLC5        0.0000 
     87 CA         28.7490    2.1720   40.2060 C.3      15 GLL5        0.0000 
     88 CA         31.0890    4.4890   42.6750 C.3      10 GLP5        0.0000 
     89 CA         27.2965    1.4525   40.8732 C.3       5 GLC5        0.0000 
     90 CA         25.7590    0.8250   40.8510 C.3      10 GLP5        0.0000 
@<TRIPOS>BOND
@<TRIPOS>SUBSTRUCTURE
     1 ALC1       65 GROUP        1 X    ALC  0     ROOT ALC X 1
     2 SEC2        4 GROUP        1 X    SEC  0     **** SEC X 2
     3 LYC4        1 GROUP        1 X    LYC  0     **** LYC X 4
     4 ZIC7       11 GROUP        1 X    ZIC  0     **** ZIC X 5
     5 GLC5       32 GROUP        1 X    GLC  0     **** GLC X 6
     6 ALP1       67 GROUP        1 Y    ALP  0     ROOT ALP Y 8
     7 SEP2        6 GROUP        1 Y    SEP  0     **** SEP Y 9
     8 LYP4        3 GROUP        1 Y    LYP  0     **** LYP Y 11
     9 ZIP7       13 GROUP        1 Y    ZIP  0     **** ZIP Y 12
    10 GLP5       34 GROUP        1 Y    GLP  0     **** GLP Y 13
    11 ALL1       66 GROUP        1 Z    ALL  0     ROOT ALL Z 15
    12 SEL2        5 GROUP        1 Z    SEL  0     **** SEL Z 16
    13 LYL4        2 GROUP        1 Z    LYL  0     **** LYL Z 18
    14 ZIL7       12 GROUP        1 Z    ZIL  0     **** ZIL Z 19
    15 GLL5       33 GROUP        1 Z    GLL  0     **** GLL Z 20
@<TRIPOS>SET

