#    Name: 4k33_ACP_1_ligand
#    Modification time : Tue Mar 25 06:48:34 2014

@<TRIPOS>MOLECULE
4k33_ACP_1_ligand
   45    47     1     0     0
SMALL
NO_CHARGES


@<TRIPOS>ATOM
      1 PG         26.1880    7.1620   30.0550 P.3       1 ACP801      0.0000 
      2 O1G        25.6960    6.1020   29.0960 O.co2     1 ACP801      0.0000 
      3 O2G        25.0150    8.1340   30.4340 O.co2     1 ACP801      0.0000 
      4 O3G        27.3450    7.9630   29.3550 O.co2     1 ACP801      0.0000 
      5 PB         25.5600    5.8970   32.7570 P.3       1 ACP801      0.0000 
      6 O1B        24.6370    7.0580   32.9590 O.co2     1 ACP801      0.0000 
      7 O2B        24.7260    4.6380   32.3180 O.co2     1 ACP801      0.0000 
      8 C3B        26.8680    6.3240   31.5390 C.3       1 ACP801      0.0000 
      9 PA         25.9140    4.5170   35.1190 P.3       1 ACP801      0.0000 
     10 O1A        25.5930    5.2250   36.4180 O.co2     1 ACP801      0.0000 
     11 O2A        24.6700    3.7850   34.5890 O.co2     1 ACP801      0.0000 
     12 O3A        26.3910    5.5930   34.0690 O.3       1 ACP801      0.0000 
     13 O5'        27.1400    3.4850   35.3900 O.3       1 ACP801      0.0000 
     14 C5'        27.8130    2.8960   34.2940 C.3       1 ACP801      0.0000 
     15 C4'        28.6290    1.7620   34.7750 C.3       1 ACP801      0.0000 
     16 O4'        29.6060    2.2250   35.7830 O.3       1 ACP801      0.0000 
     17 C3'        27.8180    0.7850   35.4820 C.3       1 ACP801      0.0000 
     18 O3'        27.1780   -0.1330   34.6020 O.3       1 ACP801      0.0000 
     19 C2'        28.7260    0.1250   36.3700 C.3       1 ACP801      0.0000 
     20 O2'        29.4760   -0.8940   35.6570 O.3       1 ACP801      0.0000 
     21 C1'        29.6060    1.1790   36.8450 C.3       1 ACP801      0.0000 
     22 N9         29.1210    1.7280   38.0300 N.pl3     1 ACP801      0.0000 
     23 C8         28.2300    2.7290   38.1560 C.2       1 ACP801      0.0000 
     24 N7         28.0090    2.9870   39.4500 N.2       1 ACP801      0.0000 
     25 C5         28.7490    2.1720   40.2060 C.ar      1 ACP801      0.0000 
     26 C6         28.9190    1.9880   41.5850 C.ar      1 ACP801      0.0000 
     27 N6         28.1930    2.7980   42.5460 N.pl3     1 ACP801      0.0000 
     28 N1         29.7580    1.0480   42.0480 N.ar      1 ACP801      0.0000 
     29 C2         30.4550    0.2590   41.1920 C.ar      1 ACP801      0.0000 
     30 N3         30.3120    0.4050   39.8370 N.ar      1 ACP801      0.0000 
     31 C4         29.4720    1.3410   39.3190 C.ar      1 ACP801      0.0000 
     32 H          27.4906    7.0034   32.0027 H         1 ACP801      0.0000 
     33 H          27.2709    5.4311   31.2156 H         1 ACP801      0.0000 
     34 H          28.4730    3.6205   33.7924 H         1 ACP801      0.0000 
     35 H          27.1023    2.5265   33.5387 H         1 ACP801      0.0000 
     36 H          29.1508    1.2961   33.9708 H         1 ACP801      0.0000 
     37 H          27.0802    1.3273   36.0801 H         1 ACP801      0.0000 
     38 H          28.1921   -0.2963   37.1965 H         1 ACP801      0.0000 
     39 H          30.6043    0.8011   36.9420 H         1 ACP801      0.0000 
     40 H          27.8077    3.1972   37.4068 H         1 ACP801      0.0000 
     41 H          28.3457    2.5798   43.5099 H         1 ACP801      0.0000 
     42 H          27.6001    3.5073   42.1648 H         1 ACP801      0.0000 
     43 H          31.1053   -0.4650   41.5618 H         1 ACP801      0.0000 
     44 H          26.6211    0.4350   33.9960 H         1 ACP801      0.0000 
     45 H          29.0509   -0.9432   34.7532 H         1 ACP801      0.0000 
@<TRIPOS>BOND
     1    2    1 ar   
     2    3    1 ar   
     3    4    1 ar   
     4    8    1 1    
     5    6    5 ar   
     6    7    5 ar   
     7    8    5 1    
     8   12    5 1    
     9   32    8 1    
    10   33    8 1    
    11   10    9 ar   
    12   11    9 ar   
    13   12    9 1    
    14   13    9 1    
    15   14   13 1    
    16   15   14 1    
    17   34   14 1    
    18   35   14 1    
    19   16   15 1    
    20   17   15 1    
    21   36   15 1    
    22   21   16 1    
    23   18   17 1    
    24   19   17 1    
    25   37   17 1    
    26   44   18 1    
    27   20   19 1    
    28   21   19 1    
    29   38   19 1    
    30   45   20 1    
    31   22   21 1    
    32   39   21 1    
    33   23   22 1    
    34   31   22 1    
    35   24   23 2    
    36   40   23 1    
    37   25   24 1    
    38   26   25 ar   
    39   31   25 ar   
    40   27   26 1    
    41   28   26 ar   
    42   41   27 1    
    43   42   27 1    
    44   29   28 ar   
    45   30   29 ar   
    46   43   29 1    
    47   31   30 ar   
@<TRIPOS>SUBSTRUCTURE
     1 ACP801      1 GROUP   
@<TRIPOS>SET

