#    Name: 2ow9_SP6_2_INTS_M
#    Modification time : Mon Mar 24 17:55:21 2014

@<TRIPOS>MOLECULE
2ow9_SP6_2_INTS_M
   72     0     6     0     0
SMALL
NO_CHARGES


@<TRIPOS>ATOM
      1 CA         96.1790  -25.4900   25.7095 C.3       2 GLC5        0.0000 
      2 CA         97.0450  -23.6290   26.4310 C.3       6 GLL5        0.0000 
      3 CA         95.3130  -27.3510   24.9880 C.3       4 GLP5        0.0000 
      4 CA         98.5880  -25.1595   26.3425 C.3       2 GLC5        0.0000 
      5 CA        100.1310  -26.6900   26.2540 C.3       4 GLP5        0.0000 
      6 CA         92.2765  -22.0715   26.6365 C.3       2 GLC5        0.0000 
      7 CA         92.4060  -22.8950   25.0620 C.3       6 GLL5        0.0000 
      8 CA         92.1470  -21.2480   28.2110 C.3       4 GLP5        0.0000 
      9 CA         93.3205  -24.8705   24.5485 C.3       2 GLC5        0.0000 
     10 CA         94.2350  -26.8460   24.0350 C.3       4 GLP5        0.0000 
     11 CA         98.5800  -19.9045   27.9395 C.3       2 GLC5        0.0000 
     12 CA         97.8220  -20.8700   29.6880 C.3       6 GLL5        0.0000 
     13 CA         99.3380  -18.9390   26.1910 C.3       4 GLP5        0.0000 
     14 CA         94.2080  -21.5770   28.1825 C.3       2 GLC5        0.0000 
     15 CA         96.2690  -21.9060   28.1540 C.3       6 GLL5        0.0000 
     16 N          88.8520  -23.8820   25.3915 N.am      1 SEC2        0.0000 
     17 N          89.7140  -22.9690   24.7110 N.am      5 SEL2        0.0000 
     18 N          87.9900  -24.7950   26.0720 N.am      3 SEP2        0.0000 
     19 CA         89.6570  -19.9805   22.0765 C.3       2 GLC5        0.0000 
     20 CA         88.3270  -21.0720   23.2160 C.3       6 GLL5        0.0000 
     21 CA         90.9870  -18.8890   20.9370 C.3       4 GLP5        0.0000 
     22 CA         87.4455  -21.5160   21.3105 C.3       2 GLC5        0.0000 
     23 CA         86.5640  -21.9600   19.4050 C.3       4 GLP5        0.0000 
     24 CA         85.0270  -21.7845   24.2625 C.3       2 GLC5        0.0000 
     25 CA         86.4780  -20.2370   24.6980 C.3       6 GLL5        0.0000 
     26 CA         83.5760  -23.3320   23.8270 C.3       4 GLP5        0.0000 
     27 CA         90.2485  -18.5880   24.4740 C.3       2 GLC5        0.0000 
     28 CA         88.7440  -19.5850   25.2340 C.3       6 GLL5        0.0000 
     29 CA         91.7530  -17.5910   23.7140 C.3       4 GLP5        0.0000 
     30 CA         88.6510  -17.5395   27.7710 C.3       2 GLC5        0.0000 
     31 CA         88.2850  -18.8660   26.3370 C.3       6 GLL5        0.0000 
     32 CA         89.0170  -16.2130   29.2050 C.3       4 GLP5        0.0000 
     33 CA         87.3740  -18.3830   28.6165 C.3       2 GLC5        0.0000 
     34 CA         86.9180  -18.8250   26.6120 C.3       6 GLL5        0.0000 
     35 CA         87.8300  -17.9410   30.6210 C.3       4 GLP5        0.0000 
     36 CA         86.4250  -20.7825   27.3135 C.3       2 GLC5        0.0000 
     37 CA         85.9320  -22.7400   28.0150 C.3       4 GLP5        0.0000 
     38 CA         91.8620  -20.1500   21.9735 C.3       2 GLC5        0.0000 
     39 CA         92.7370  -21.4110   23.0100 C.3       6 GLL5        0.0000 
     40 N          98.8120  -21.1965   23.7220 N.am      1 SEC2        0.0000 
     41 N          97.6340  -22.0490   24.2160 N.am      5 SEL2        0.0000 
     42 N          99.9900  -20.3440   23.2280 N.am      3 SEP2        0.0000 
     43 N          94.0750  -25.4630   26.8530 N.am      1 SEC2        0.0000 
     44 N          94.3040  -23.9960   26.7310 N.am      5 SEL2        0.0000 
     45 N          93.8460  -26.9300   26.9750 N.am      3 SEP2        0.0000 
     46 CA         94.5365  -19.9860   29.1330 C.3       2 GLC5        0.0000 
     47 CA         96.5210  -21.0180   29.2020 C.3       6 GLL5        0.0000 
     48 CA         92.5520  -18.9540   29.0640 C.3       4 GLP5        0.0000 
     49 CA         92.6380  -20.6657   25.0962 C.3       2 GLC5        0.0000 
     50 CA         91.7510  -22.2360   24.0930 C.3       6 GLL5        0.0000 
     51 CA         93.0320  -19.5080   26.6410 C.3       4 GLP5        0.0000 
     52 CA        100.7275  -22.1325   28.0083 C.3       2 GLC5        0.0000 
     53 CA         98.6000  -22.5010   28.0740 C.3       6 GLL5        0.0000 
     54 CA        102.7260  -22.2070   27.4180 C.3       4 GLP5        0.0000 
     55 CA         87.1110  -18.1152   24.3992 C.3       2 GLC5        0.0000 
     56 CA         87.8460  -20.2780   24.4150 C.3       6 GLL5        0.0000 
     57 CA         87.0600  -15.9730   24.2420 C.3       4 GLP5        0.0000 
     58 CA         99.0380  -21.2673   26.8619 C.3       2 GLC5        0.0000 
     59 CA         97.3030  -22.6570   27.5770 C.3       6 GLL5        0.0000 
     60 CA        100.0600  -20.1770   25.6360 C.3       4 GLP5        0.0000 
     61 CA         86.7635  -17.5708   25.2235 C.3       2 GLC5        0.0000 
     62 CA         86.4040  -21.5504   25.8821 C.3       2 GLC5        0.0000 
     63 CA         86.0160  -19.5120   25.7980 C.3       6 GLL5        0.0000 
     64 CA         86.2190  -23.2160   26.5870 C.3       4 GLP5        0.0000 
     65 CA         90.3227  -19.5003   26.8143 C.3       2 GLC5        0.0000 
     66 CA         92.1310  -19.7750   27.8430 C.3       4 GLP5        0.0000 
     67 CA         88.4343  -17.4763   25.3732 C.3       2 GLC5        0.0000 
     68 CA         88.3540  -15.7270   24.9610 C.3       4 GLP5        0.0000 
     69 CA         93.8950  -20.6753   25.1917 C.3       2 GLC5        0.0000 
     70 CA         94.0870  -21.9810   23.8900 C.3       6 GLL5        0.0000 
     71 CA         95.3495  -20.1233   24.1487 C.3       2 GLC5        0.0000 
     72 CA         95.9410  -18.4040   24.5550 C.3       4 GLP5        0.0000 
@<TRIPOS>BOND
@<TRIPOS>SUBSTRUCTURE
     1 SEC2       16 GROUP        1 X    SEC  0     ROOT SEC X 2
     2 GLC5        1 GROUP        1 X    GLC  0     **** GLC X 6
     3 SEP2       18 GROUP        1 Y    SEP  0     ROOT SEP Y 9
     4 GLP5        3 GROUP        1 Y    GLP  0     **** GLP Y 13
     5 SEL2       17 GROUP        1 Z    SEL  0     ROOT SEL Z 16
     6 GLL5        2 GROUP        1 Z    GLL  0     **** GLL Z 20
@<TRIPOS>SET

