#    Name: 2ow9_SP6_2_ligand
#    Modification time : Mon Mar 24 17:55:21 2014

@<TRIPOS>MOLECULE
2ow9_SP6_2_ligand
   44    47     1     0     0
SMALL
NO_CHARGES


@<TRIPOS>ATOM
      1 N1         93.7530  -22.7460   24.9350 N.am      1 SP6501      0.0000 
      2 C4         97.0450  -23.6290   26.4310 C.3       1 SP6501      0.0000 
      3 C5         94.6590  -23.2910   25.7610 C.2       1 SP6501      0.0000 
      4 C6         92.4060  -22.8950   25.0620 C.2       1 SP6501      0.0000 
      5 C7         90.4110  -22.2190   24.0330 C.2       1 SP6501      0.0000 
      6 C8         91.7510  -22.2360   24.0930 C.2       1 SP6501      0.0000 
      7 C10        97.8220  -20.8700   29.6880 C.ar      1 SP6501      0.0000 
      8 C13        98.8580  -21.6150   29.1230 C.ar      1 SP6501      0.0000 
      9 C15        98.6000  -22.5010   28.0740 C.ar      1 SP6501      0.0000 
     10 C17        96.2690  -21.9060   28.1540 C.ar      1 SP6501      0.0000 
     11 C20        87.8460  -20.2780   24.4150 C.ar      1 SP6501      0.0000 
     12 C21        97.3030  -22.6570   27.5770 C.ar      1 SP6501      0.0000 
     13 O3         89.7140  -22.9690   24.7110 O.2       1 SP6501      0.0000 
     14 O4         89.7530  -21.2160   23.2100 O.3       1 SP6501      0.0000 
     15 C11        88.3270  -21.0720   23.2160 C.3       1 SP6501      0.0000 
     16 C16        86.4780  -20.2370   24.6980 C.ar      1 SP6501      0.0000 
     17 C18        86.0160  -19.5120   25.7980 C.ar      1 SP6501      0.0000 
     18 C14        88.7440  -19.5850   25.2340 C.ar      1 SP6501      0.0000 
     19 C12        88.2850  -18.8660   26.3370 C.ar      1 SP6501      0.0000 
     20 C9         86.9180  -18.8250   26.6120 C.ar      1 SP6501      0.0000 
     21 C3         94.0870  -21.9810   23.8900 C.2       1 SP6501      0.0000 
     22 S1         92.7370  -21.4110   23.0100 S.3       1 SP6501      0.0000 
     23 C2         95.4290  -21.7040   23.5950 C.2       1 SP6501      0.0000 
     24 C1         96.4180  -22.2530   24.4280 C.2       1 SP6501      0.0000 
     25 O1         97.6340  -22.0490   24.2160 O.2       1 SP6501      0.0000 
     26 O2         94.3040  -23.9960   26.7310 O.2       1 SP6501      0.0000 
     27 N6         96.0360  -23.0550   25.5270 N.am      1 SP6501      0.0000 
     28 C19        96.5210  -21.0180   29.2020 C.ar      1 SP6501      0.0000 
     29 H          96.6968  -24.5726   26.8480 H         1 SP6501      0.0000 
     30 H          97.9821  -23.8005   25.9037 H         1 SP6501      0.0000 
     31 H          91.9782  -23.4194   25.7746 H         1 SP6501      0.0000 
     32 H          98.0139  -20.2188   30.4541 H         1 SP6501      0.0000 
     33 H          99.8173  -21.5117   29.4804 H         1 SP6501      0.0000 
     34 H          99.3727  -23.0445   27.6628 H         1 SP6501      0.0000 
     35 H          95.3058  -22.0131   27.7963 H         1 SP6501      0.0000 
     36 H          87.9731  -20.5578   22.3040 H         1 SP6501      0.0000 
     37 H          87.8256  -22.0567   23.2375 H         1 SP6501      0.0000 
     38 H          85.8149  -20.7391   24.0980 H         1 SP6501      0.0000 
     39 H          85.0111  -19.4842   26.0084 H         1 SP6501      0.0000 
     40 H          89.7506  -19.6074   25.0190 H         1 SP6501      0.0000 
     41 H          88.9469  -18.3711   26.9415 H         1 SP6501      0.0000 
     42 H          86.5732  -18.2866   27.4176 H         1 SP6501      0.0000 
     43 H          95.6798  -21.1252   22.8048 H         1 SP6501      0.0000 
     44 H          95.7541  -20.4769   29.6130 H         1 SP6501      0.0000 
@<TRIPOS>BOND
     1    3    1 am   
     2    4    1 1    
     3   21    1 1    
     4   12    2 1    
     5   27    2 1    
     6   29    2 1    
     7   30    2 1    
     8   26    3 2    
     9   27    3 am   
    10    6    4 2    
    11   31    4 1    
    12    6    5 1    
    13   13    5 2    
    14   14    5 1    
    15   22    6 1    
    16    8    7 ar   
    17   28    7 ar   
    18   32    7 1    
    19    9    8 ar   
    20   33    8 1    
    21   12    9 ar   
    22   34    9 1    
    23   12   10 ar   
    24   28   10 ar   
    25   35   10 1    
    26   15   11 1    
    27   16   11 ar   
    28   18   11 ar   
    29   15   14 1    
    30   36   15 1    
    31   37   15 1    
    32   17   16 ar   
    33   38   16 1    
    34   20   17 ar   
    35   39   17 1    
    36   19   18 ar   
    37   40   18 1    
    38   20   19 ar   
    39   41   19 1    
    40   42   20 1    
    41   22   21 1    
    42   23   21 2    
    43   24   23 1    
    44   43   23 1    
    45   25   24 2    
    46   27   24 am   
    47   44   28 1    
@<TRIPOS>SUBSTRUCTURE
     1 SP6501      1 GROUP   
@<TRIPOS>SET

