#    Name: 3rvf_034_1_INTS_M
#    Modification time : Tue Mar 25 12:03:02 2014

@<TRIPOS>MOLECULE
3rvf_034_1_INTS_M
   99     0     9     0     0
SMALL
NO_CHARGES


@<TRIPOS>ATOM
      1 CA         -4.3085   19.0815   56.5130 C.3       3 GLC5        0.0000 
      2 CA         -3.2100   20.7620   56.8800 C.3       9 GLL5        0.0000 
      3 CA         -5.4070   17.4010   56.1460 C.3       6 GLP5        0.0000 
      4 CA         -1.7920   20.5260   57.9060 C.3       3 GLC5        0.0000 
      5 CA         -0.3740   20.2900   58.9320 C.3       6 GLP5        0.0000 
      6 CA         -5.8890   21.0725   55.8360 C.3       3 GLC5        0.0000 
      7 CA         -3.9650   21.9030   56.2020 C.3       9 GLL5        0.0000 
      8 CA         -7.8130   20.2420   55.4700 C.3       6 GLP5        0.0000 
      9 CA         -3.9105   24.2235   58.0870 C.3       3 GLC5        0.0000 
     10 CA         -4.6540   22.8220   57.1960 C.3       9 GLL5        0.0000 
     11 CA         -3.1670   25.6250   58.9780 C.3       6 GLP5        0.0000 
     12 CA         -6.4645   21.8540   56.9010 C.3       3 GLC5        0.0000 
     13 CA         -8.2750   20.8860   56.6060 C.3       6 GLP5        0.0000 
     14 CA         -6.0415   23.7115   58.1555 C.3       3 GLC5        0.0000 
     15 CA         -7.4290   24.6010   59.1150 C.3       6 GLP5        0.0000 
     16 CA         -5.7810   24.0030   56.1100 C.3       3 GLC5        0.0000 
     17 CA         -6.9080   25.1840   55.0240 C.3       6 GLP5        0.0000 
     18 CA         -3.4425   27.8840   52.4050 C.3       3 GLC5        0.0000 
     19 CA         -2.1020   26.8040   53.7870 C.3       9 GLL5        0.0000 
     20 CA         -4.7830   28.9640   51.0230 C.3       6 GLP5        0.0000 
     21 CA         -2.5420   27.9490   55.0915 C.3       3 GLC5        0.0000 
     22 CA         -2.9820   29.0940   56.3960 C.3       6 GLP5        0.0000 
     23 CA         -2.9435   25.6905   52.2075 C.3       3 GLC5        0.0000 
     24 CA         -3.7850   24.5770   50.6280 C.3       6 GLP5        0.0000 
     25 CA         -3.9240   27.0415   54.2485 C.3       3 GLC5        0.0000 
     26 CA         -5.7460   27.2790   54.7100 C.3       6 GLP5        0.0000 
     27 N          -3.9525   23.7835   52.9480 N.am      1 SEC2        0.0000 
     28 N          -3.4150   22.8920   54.0960 N.am      7 SEL2        0.0000 
     29 N          -4.4900   24.6750   51.8000 N.am      4 SEP2        0.0000 
     30 N          -3.5215   24.1470   52.5870 N.am      1 SEC2        0.0000 
     31 N          -2.5530   23.6190   53.3740 N.am      7 SEL2        0.0000 
     32 CA          2.6580   21.1505   53.5955 C.3       3 GLC5        0.0000 
     33 CA          1.0860   22.4120   53.9070 C.3       9 GLL5        0.0000 
     34 CA          4.2300   19.8890   53.2840 C.3       6 GLP5        0.0000 
     35 CA          0.6690   20.6060   52.7895 C.3       3 GLC5        0.0000 
     36 CA          0.2520   18.8000   51.6720 C.3       6 GLP5        0.0000 
     37 CA         -0.6065   21.9225   57.8105 C.3       3 GLC5        0.0000 
     38 CA         -0.8390   23.5550   56.6890 C.3       9 GLL5        0.0000 
     39 CA         -1.3670   25.5165   58.2745 C.3       3 GLC5        0.0000 
     40 CA          0.4330   25.4080   57.5710 C.3       9 GLL5        0.0000 
     41 CA         -1.4550   27.8310   57.3165 C.3       3 GLC5        0.0000 
     42 CA          0.0720   26.5680   58.2370 C.3       9 GLL5        0.0000 
     43 CA         -0.1495   28.6605   60.1080 C.3       3 GLC5        0.0000 
     44 CA          0.8980   27.0940   59.2260 C.3       9 GLL5        0.0000 
     45 CA         -1.1970   30.2270   60.9900 C.3       6 GLP5        0.0000 
     46 CA          4.4260   24.6910   58.9670 C.3       3 GLC5        0.0000 
     47 CA          2.4500   25.3000   58.8780 C.3       9 GLL5        0.0000 
     48 CA          6.4020   24.0820   59.0560 C.3       6 GLP5        0.0000 
     49 CA          1.8415   22.7965   58.3085 C.3       3 GLC5        0.0000 
     50 CA          1.6220   24.7740   57.8930 C.3       9 GLL5        0.0000 
     51 CA          2.0610   20.8190   58.7240 C.3       6 GLP5        0.0000 
     52 CA          5.0635   25.1145   60.2415 C.3       3 GLC5        0.0000 
     53 CA          3.7250   26.1470   61.4270 C.3       9 GLL5        0.0000 
     54 CA          3.1700   25.1825   63.4930 C.3       3 GLC5        0.0000 
     55 CA          4.5370   26.6320   62.4480 C.3       9 GLL5        0.0000 
     56 CA          1.8030   23.7330   64.5380 C.3       6 GLP5        0.0000 
     57 CA          2.9705   28.1275   64.0925 C.3       3 GLC5        0.0000 
     58 CA          4.5970   27.9980   62.6860 C.3       9 GLL5        0.0000 
     59 CA          1.3440   28.2570   65.4990 C.3       6 GLP5        0.0000 
     60 CA          4.5845   31.2370   60.7665 C.3       3 GLC5        0.0000 
     61 CA          4.0960   30.1860   62.3580 C.3       9 GLL5        0.0000 
     62 CA          5.0730   32.2880   59.1750 C.3       6 GLP5        0.0000 
     63 CA          1.3480   29.8235   60.5970 C.3       3 GLC5        0.0000 
     64 CA          3.0370   28.4040   60.8870 C.3       9 GLL5        0.0000 
     65 CA         -0.3410   31.2430   60.3070 C.3       6 GLP5        0.0000 
     66 NZ          6.0105   33.3770   62.8465 N.4       2 LYC4        0.0000 
     67 NZ          5.2920   32.4330   63.9250 N.4       8 LYL4        0.0000 
     68 NZ          6.7290   34.3210   61.7680 N.4       5 LYP4        0.0000 
     69 CA          2.9710   23.7470   51.7390 C.3       3 GLC5        0.0000 
     70 CA          2.0050   24.9420   53.2790 C.3       9 GLL5        0.0000 
     71 CA          3.9370   22.5520   50.1990 C.3       6 GLP5        0.0000 
     72 CA         -3.3738   20.6657   54.6185 C.3       3 GLC5        0.0000 
     73 CA         -3.1600   19.9990   52.6960 C.3       6 GLP5        0.0000 
     74 CA         -4.2259   21.8791   58.7557 C.3       3 GLC5        0.0000 
     75 CA         -4.3310   21.6810   60.6430 C.3       6 GLP5        0.0000 
     76 CA         -2.2317   24.5505   57.5410 C.3       3 GLC5        0.0000 
     77 CA         -1.1300   26.6510   59.4462 C.3       3 GLC5        0.0000 
     78 CA         -2.7450   26.4710   60.1610 C.3       6 GLP5        0.0000 
     79 CA          1.2014   25.3676   60.7654 C.3       3 GLC5        0.0000 
     80 CA          0.4280   24.6940   62.3980 C.3       6 GLP5        0.0000 
     81 CA          1.8888   25.6407   61.7127 C.3       3 GLC5        0.0000 
     82 CA          2.9740   27.0280   60.6280 C.3       9 GLL5        0.0000 
     83 CA          4.7675   24.6988   62.7142 C.3       3 GLC5        0.0000 
     84 CA          5.4040   23.0080   63.4910 C.3       6 GLP5        0.0000 
     85 CA          5.7870   27.1292   61.0353 C.3       3 GLC5        0.0000 
     86 CA          7.4430   27.8690   60.1330 C.3       6 GLP5        0.0000 
     87 CA          4.4915   27.1725   64.6710 C.3       3 GLC5        0.0000 
     88 CA          4.4160   27.0300   66.7750 C.3       6 GLP5        0.0000 
     89 CA          5.8350   28.1502   61.2165 C.3       3 GLC5        0.0000 
     90 CA          3.1674   30.2080   63.8635 C.3       3 GLC5        0.0000 
     91 CA          2.1340   30.9210   65.3290 C.3       6 GLP5        0.0000 
     92 CA         -0.3747   28.3238   54.2797 C.3       3 GLC5        0.0000 
     93 CA          0.6070   26.9040   53.2170 C.3       9 GLL5        0.0000 
     94 CA         -0.8150   30.1380   55.1630 C.3       6 GLP5        0.0000 
     95 CA          1.9230   28.3702   52.7512 C.3       3 GLC5        0.0000 
     96 CA          2.6140   30.1330   52.3610 C.3       6 GLP5        0.0000 
     97 CA          3.3700   26.6992   54.2332 C.3       3 GLC5        0.0000 
     98 CA          1.8570   26.3110   53.0660 C.3       9 GLL5        0.0000 
     99 CA          4.8090   27.7720   55.2940 C.3       6 GLP5        0.0000 
@<TRIPOS>BOND
@<TRIPOS>SUBSTRUCTURE
     1 SEC2       27 GROUP        1 X    SEC  0     ROOT SEC X 2
     2 LYC4       66 GROUP        1 X    LYC  0     **** LYC X 4
     3 GLC5        1 GROUP        1 X    GLC  0     **** GLC X 6
     4 SEP2       29 GROUP        1 Y    SEP  0     ROOT SEP Y 9
     5 LYP4       68 GROUP        1 Y    LYP  0     **** LYP Y 11
     6 GLP5        3 GROUP        1 Y    GLP  0     **** GLP Y 13
     7 SEL2       28 GROUP        1 Z    SEL  0     ROOT SEL Z 16
     8 LYL4       67 GROUP        1 Z    LYL  0     **** LYL Z 18
     9 GLL5        2 GROUP        1 Z    GLL  0     **** GLL Z 20
@<TRIPOS>SET

