#    Name: 3rvf_034_1_ligand
#    Modification time : Tue Mar 25 12:03:03 2014

@<TRIPOS>MOLECULE
3rvf_034_1_ligand
   57    61     1     0     0
SMALL
NO_CHARGES


@<TRIPOS>ATOM
      1 C1         -3.2100   20.7620   56.8800 C.3       1 034473      0.0000 
      2 C2         -3.9650   21.9030   56.2020 C.3       1 034473      0.0000 
      3 C3         -4.6540   22.8220   57.1960 C.3       1 034473      0.0000 
      4 CL3        -2.1020   26.8040   53.7870 Cl        1 034473      0.0000 
      5 C4         -3.0420   22.7020   55.3770 C.2       1 034473      0.0000 
      6 O5         -3.4150   22.8920   54.0960 O.3       1 034473      0.0000 
      7 N6         -2.5530   23.6190   53.3740 N.2       1 034473      0.0000 
      8 CL6         1.0860   22.4120   53.9070 Cl        1 034473      0.0000 
      9 C7         -1.5150   23.9640   54.1700 C.2       1 034473      0.0000 
     10 C8         -1.7540   23.3970   55.5190 C.2       1 034473      0.0000 
     11 C9         -0.8390   23.5550   56.6890 C.3       1 034473      0.0000 
     12 O10        -0.3740   24.8930   56.6040 O.3       1 034473      0.0000 
     13 C11         0.4330   25.4080   57.5710 C.ar      1 034473      0.0000 
     14 C12         0.0720   26.5680   58.2370 C.ar      1 034473      0.0000 
     15 C13         0.8980   27.0940   59.2260 C.ar      1 034473      0.0000 
     16 C14         2.1010   26.4710   59.5490 C.ar      1 034473      0.0000 
     17 C15         2.4500   25.3000   58.8780 C.ar      1 034473      0.0000 
     18 C16         1.6220   24.7740   57.8930 C.ar      1 034473      0.0000 
     19 C17         2.9740   27.0280   60.6280 C.ar      1 034473      0.0000 
     20 C18         3.7250   26.1470   61.4270 C.ar      1 034473      0.0000 
     21 C19         4.5370   26.6320   62.4480 C.ar      1 034473      0.0000 
     22 C20         4.5970   27.9980   62.6860 C.ar      1 034473      0.0000 
     23 N21         5.2710   28.7520   63.5780 N.pl3     1 034473      0.0000 
     24 C22         4.9930   30.0640   63.4060 C.2       1 034473      0.0000 
     25 C23         4.0960   30.1860   62.3580 C.2       1 034473      0.0000 
     26 C24         3.8570   28.8650   61.9140 C.ar      1 034473      0.0000 
     27 C25         3.0370   28.4040   60.8870 C.ar      1 034473      0.0000 
     28 C26         5.5660   31.1600   64.2330 C.2       1 034473      0.0000 
     29 O27         5.2920   32.4330   63.9250 O.co2     1 034473      0.0000 
     30 O28         6.2730   30.8810   65.2000 O.co2     1 034473      0.0000 
     31 C29        -0.3310   24.7670   53.7780 C.ar      1 034473      0.0000 
     32 C30        -0.4760   26.1150   53.5760 C.ar      1 034473      0.0000 
     33 C32         0.6070   26.9040   53.2170 C.ar      1 034473      0.0000 
     34 C33         1.8570   26.3110   53.0660 C.ar      1 034473      0.0000 
     35 C34         2.0050   24.9420   53.2790 C.ar      1 034473      0.0000 
     36 C35         0.9050   24.1740   53.6390 C.ar      1 034473      0.0000 
     37 H          -4.7286   21.4696   55.5556 H         1 034473      0.0000 
     38 H          -0.0331   22.8404   56.6023 H         1 034473      0.0000 
     39 H          -1.3976   23.3778   57.5969 H         1 034473      0.0000 
     40 H          -0.8105   27.0451   58.0014 H         1 034473      0.0000 
     41 H           0.6172   27.9526   59.7243 H         1 034473      0.0000 
     42 H           3.3324   24.8200   59.1161 H         1 034473      0.0000 
     43 H           1.8952   23.9101   57.4022 H         1 034473      0.0000 
     44 H           3.6690   25.1339   61.2495 H         1 034473      0.0000 
     45 H           5.0872   25.9823   63.0202 H         1 034473      0.0000 
     46 H           5.8808   28.3985   64.2600 H         1 034473      0.0000 
     47 H           3.7224   30.9586   62.0094 H         1 034473      0.0000 
     48 H           2.4872   29.0568   60.3277 H         1 034473      0.0000 
     49 H           0.4906   27.9085   53.0648 H         1 034473      0.0000 
     50 H           2.6683   26.8801   52.7984 H         1 034473      0.0000 
     51 H           2.9275   24.5029   53.1694 H         1 034473      0.0000 
     52 H          -2.7649   20.1637   56.2138 H         1 034473      0.0000 
     53 H          -2.4959   21.1013   57.4923 H         1 034473      0.0000 
     54 H          -3.8183   20.1884   57.4286 H         1 034473      0.0000 
     55 H          -4.0010   23.2484   57.8220 H         1 034473      0.0000 
     56 H          -5.1468   23.5618   56.7380 H         1 034473      0.0000 
     57 H          -5.3195   22.3299   57.7572 H         1 034473      0.0000 
@<TRIPOS>BOND
     1    2    1 1    
     2   52    1 1    
     3   53    1 1    
     4   54    1 1    
     5    3    2 1    
     6    5    2 1    
     7   37    2 1    
     8   55    3 1    
     9   56    3 1    
    10   57    3 1    
    11   32    4 1    
    12    6    5 1    
    13   10    5 2    
    14    7    6 1    
    15    9    7 2    
    16   36    8 1    
    17   10    9 1    
    18   31    9 1    
    19   11   10 1    
    20   12   11 1    
    21   38   11 1    
    22   39   11 1    
    23   13   12 1    
    24   14   13 ar   
    25   18   13 ar   
    26   15   14 ar   
    27   40   14 1    
    28   16   15 ar   
    29   41   15 1    
    30   17   16 ar   
    31   19   16 1    
    32   18   17 ar   
    33   42   17 1    
    34   43   18 1    
    35   20   19 ar   
    36   27   19 ar   
    37   21   20 ar   
    38   44   20 1    
    39   22   21 ar   
    40   45   21 1    
    41   23   22 1    
    42   26   22 ar   
    43   24   23 1    
    44   46   23 1    
    45   25   24 2    
    46   28   24 1    
    47   26   25 1    
    48   47   25 1    
    49   27   26 ar   
    50   48   27 1    
    51   29   28 ar   
    52   30   28 ar   
    53   32   31 ar   
    54   36   31 ar   
    55   33   32 ar   
    56   34   33 ar   
    57   49   33 1    
    58   35   34 ar   
    59   50   34 1    
    60   36   35 ar   
    61   51   35 1    
@<TRIPOS>SUBSTRUCTURE
     1 034473      1 GROUP   
@<TRIPOS>SET

