#    Name: 2r5t_ANP_1_INTS_M
#    Modification time : Mon Mar 24 23:14:10 2014

@<TRIPOS>MOLECULE
2r5t_ANP_1_INTS_M
   77     0    15     0     0
SMALL
NO_CHARGES


@<TRIPOS>ATOM
      1 NZ         25.3200   34.1260   66.6140 N.4       3 LYC4        0.0000 
      2 NZ         25.6890   35.9420   66.4390 N.4      13 LYL4        0.0000 
      3 NZ         24.9510   32.3100   66.7890 N.4       8 LYP4        0.0000 
      4 NZ         26.0970   33.1265   66.4855 N.4       3 LYC4        0.0000 
      5 NZ         27.2430   33.9430   66.1820 N.4      13 LYL4        0.0000 
      6 Zn         27.7470   33.7290   65.1950 Zn        4 ZIC7        0.0000 
      7 Zn         27.2430   33.9430   66.1820 Zn       14 ZIL7        0.0000 
      8 Zn         28.2510   33.5150   64.2080 Zn        9 ZIP7        0.0000 
      9 N          26.0970   33.1265   66.4855 N.am      2 SEC2        0.0000 
     10 N          27.2430   33.9430   66.1820 N.am     12 SEL2        0.0000 
     11 N          24.9510   32.3100   66.7890 N.am      7 SEP2        0.0000 
     12 N          27.9380   32.8075   67.0770 N.am      2 SEC2        0.0000 
     13 N          28.6330   31.6720   67.9720 N.am      7 SEP2        0.0000 
     14 NZ         25.8860   33.6370   67.6330 N.4       3 LYC4        0.0000 
     15 NZ         26.8210   34.9640   68.4770 N.4      13 LYL4        0.0000 
     16 Zn         28.1820   34.5980   64.2015 Zn        4 ZIC7        0.0000 
     17 Zn         28.1130   35.6810   64.1950 Zn       14 ZIL7        0.0000 
     18 N          27.9725   36.4270   63.0670 N.am      2 SEC2        0.0000 
     19 N          28.1130   35.6810   64.1950 N.am     12 SEL2        0.0000 
     20 N          27.8320   37.1730   61.9390 N.am      7 SEP2        0.0000 
     21 NZ         30.4475   38.2905   65.1825 N.4       3 LYC4        0.0000 
     22 NZ         29.2710   37.8630   64.9560 N.4      13 LYL4        0.0000 
     23 NZ         31.6240   38.7180   65.4090 N.4       8 LYP4        0.0000 
     24 N          28.5830   38.7485   64.0740 N.am      2 SEC2        0.0000 
     25 N          29.2710   37.8630   64.9560 N.am     12 SEL2        0.0000 
     26 N          27.8950   39.6340   63.1920 N.am      7 SEP2        0.0000 
     27 N          30.4475   38.2905   65.1825 N.am      2 SEC2        0.0000 
     28 N          31.6240   38.7180   65.4090 N.am      7 SEP2        0.0000 
     29 N          30.9865   33.3180   68.7165 N.am      2 SEC2        0.0000 
     30 N          30.8980   34.2940   67.5620 N.am     12 SEL2        0.0000 
     31 N          31.0750   32.3420   69.8710 N.am      7 SEP2        0.0000 
     32 Zn         29.1230   33.2940   64.8170 Zn        4 ZIC7        0.0000 
     33 Zn         29.9950   33.0730   65.4260 Zn       14 ZIL7        0.0000 
     34 N          31.0105   37.1660   65.4060 N.am      2 SEC2        0.0000 
     35 N          30.3970   35.6140   65.4030 N.am     12 SEL2        0.0000 
     36 CA         31.3170   35.0570   62.9920 C.3       5 GLC5        0.0000 
     37 CA         32.5500   33.7970   64.1210 C.3      15 GLL5        0.0000 
     38 CA         30.0840   36.3170   61.8630 C.3      10 GLP5        0.0000 
     39 CA         33.9135   35.2155   64.5480 C.3       5 GLC5        0.0000 
     40 CA         35.2770   36.6340   64.9750 C.3      10 GLP5        0.0000 
     41 CA         34.5360   32.8145   62.2965 C.3       5 GLC5        0.0000 
     42 CA         33.4460   32.5790   63.9560 C.3      15 GLL5        0.0000 
     43 CA         35.6260   33.0500   60.6370 C.3      10 GLP5        0.0000 
     44 CA         33.4675   31.2420   67.9010 C.3       5 GLC5        0.0000 
     45 CA         33.6920   31.1750   65.8480 C.3      15 GLL5        0.0000 
     46 CA         33.2430   31.3090   69.9540 C.3      10 GLP5        0.0000 
     47 O          32.6520   29.3180   66.5805 O.2       1 ALC1        0.0000 
     48 O          33.9280   29.8120   66.1090 O.2      11 ALL1        0.0000 
     49 O          31.3760   28.8240   67.0520 O.2       6 ALP1        0.0000 
     50 CA         36.7750   31.9030   64.6380 C.3       5 GLC5        0.0000 
     51 CA         35.0180   31.8050   65.5120 C.3      15 GLL5        0.0000 
     52 CA         38.5320   32.0010   63.7640 C.3      10 GLP5        0.0000 
     53 CA         35.0255   32.2230   69.1405 C.3       5 GLC5        0.0000 
     54 CA         36.8080   33.1370   68.3270 C.3      15 GLL5        0.0000 
     55 CA         38.4315   31.9765   70.7760 C.3       5 GLC5        0.0000 
     56 CA         37.9330   33.1590   69.1380 C.3      15 GLL5        0.0000 
     57 CA         38.9300   30.7940   72.4140 C.3      10 GLP5        0.0000 
     58 O          39.2060   34.1470   70.9365 O.2       1 ALC1        0.0000 
     59 O          38.0260   34.0430   70.2100 O.2      11 ALL1        0.0000 
     60 O          40.3860   34.2510   71.6630 O.2       6 ALP1        0.0000 
     61 N          40.0400   31.6875   69.7435 N.am      2 SEC2        0.0000 
     62 N          38.9240   32.3050   68.8500 N.am     12 SEL2        0.0000 
     63 N          41.1560   31.0700   70.6370 N.am      7 SEP2        0.0000 
     64 CA         38.6405   31.7455   65.7815 C.3       5 GLC5        0.0000 
     65 CA         38.7490   31.4900   67.7990 C.3      15 GLL5        0.0000 
     66 CA         39.5730   33.5645   68.0085 C.3       5 GLC5        0.0000 
     67 CA         40.3970   35.6390   68.2180 C.3      10 GLP5        0.0000 
     68 CA         39.0235   30.5720   69.6285 C.3       5 GLC5        0.0000 
     69 CA         39.2980   29.6540   71.4580 C.3      10 GLP5        0.0000 
     70 CA         37.5515   30.3105   68.6010 C.3       5 GLC5        0.0000 
     71 CA         36.3540   29.1310   69.4030 C.3      10 GLP5        0.0000 
     72 CA         37.6500   32.1280   65.5200 C.3       5 GLC5        0.0000 
     73 CA         36.7680   32.2550   67.2760 C.3      15 GLL5        0.0000 
     74 CA         37.2120   34.3110   66.5703 C.3       5 GLC5        0.0000 
     75 CA         37.6360   35.9260   65.3390 C.3      10 GLP5        0.0000 
     76 CA         38.8837   34.3935   68.4753 C.3       5 GLC5        0.0000 
     77 CA         36.7116   30.9162   68.7036 C.3       5 GLC5        0.0000 
@<TRIPOS>BOND
@<TRIPOS>SUBSTRUCTURE
     1 ALC1       47 GROUP        1 X    ALC  0     ROOT ALC X 1
     2 SEC2        9 GROUP        1 X    SEC  0     **** SEC X 2
     3 LYC4        1 GROUP        1 X    LYC  0     **** LYC X 4
     4 ZIC7        6 GROUP        1 X    ZIC  0     **** ZIC X 5
     5 GLC5       36 GROUP        1 X    GLC  0     **** GLC X 6
     6 ALP1       49 GROUP        1 Y    ALP  0     ROOT ALP Y 8
     7 SEP2       11 GROUP        1 Y    SEP  0     **** SEP Y 9
     8 LYP4        3 GROUP        1 Y    LYP  0     **** LYP Y 11
     9 ZIP7        8 GROUP        1 Y    ZIP  0     **** ZIP Y 12
    10 GLP5       38 GROUP        1 Y    GLP  0     **** GLP Y 13
    11 ALL1       48 GROUP        1 Z    ALL  0     ROOT ALL Z 15
    12 SEL2       10 GROUP        1 Z    SEL  0     **** SEL Z 16
    13 LYL4        2 GROUP        1 Z    LYL  0     **** LYL Z 18
    14 ZIL7        7 GROUP        1 Z    ZIL  0     **** ZIL Z 19
    15 GLL5       37 GROUP        1 Z    GLL  0     **** GLL Z 20
@<TRIPOS>SET

