#    Name: 2r5t_ANP_1_ligand
#    Modification time : Mon Mar 24 23:14:10 2014

@<TRIPOS>MOLECULE
2r5t_ANP_1_ligand
   43    45     1     0     0
SMALL
NO_CHARGES


@<TRIPOS>ATOM
      1 PG         26.8660   35.1680   66.9800 P.3       1 ANP500      0.0000 
      2 O1G        25.6890   35.9420   66.4390 O.co2     1 ANP500      0.0000 
      3 O2G        27.2430   33.9430   66.1820 O.co2     1 ANP500      0.0000 
      4 O3G        26.8210   34.9640   68.4770 O.co2     1 ANP500      0.0000 
      5 PB         28.9730   36.4000   65.2050 P.3       1 ANP500      0.0000 
      6 O1B        28.1130   35.6810   64.1950 O.co2     1 ANP500      0.0000 
      7 O2B        29.2710   37.8630   64.9560 O.co2     1 ANP500      0.0000 
      8 N3B        28.2430   36.2540   66.8010 N.4       1 ANP500      0.0000 
      9 PA         30.8110   34.1700   66.0560 P.3       1 ANP500      0.0000 
     10 O1A        30.8980   34.2940   67.5620 O.co2     1 ANP500      0.0000 
     11 O2A        29.9950   33.0730   65.4260 O.co2     1 ANP500      0.0000 
     12 O3A        30.3970   35.6140   65.4030 O.3       1 ANP500      0.0000 
     13 O5'        32.3470   34.0970   65.5000 O.3       1 ANP500      0.0000 
     14 C5'        32.5500   33.7970   64.1210 C.3       1 ANP500      0.0000 
     15 C4'        33.4460   32.5790   63.9560 C.3       1 ANP500      0.0000 
     16 O4'        34.7270   32.8110   64.5470 O.3       1 ANP500      0.0000 
     17 C3'        32.8660   31.3600   64.6120 C.3       1 ANP500      0.0000 
     18 O3'        33.1060   30.2800   63.7260 O.3       1 ANP500      0.0000 
     19 C2'        33.6920   31.1750   65.8480 C.3       1 ANP500      0.0000 
     20 O2'        33.9280   29.8120   66.1090 O.3       1 ANP500      0.0000 
     21 C1'        35.0180   31.8050   65.5120 C.3       1 ANP500      0.0000 
     22 N9         35.5620   32.4730   66.6750 N.pl3     1 ANP500      0.0000 
     23 C8         34.9310   33.4660   67.3630 C.2       1 ANP500      0.0000 
     24 N7         35.6620   33.8870   68.3720 N.2       1 ANP500      0.0000 
     25 C5         36.8080   33.1370   68.3270 C.ar      1 ANP500      0.0000 
     26 C6         37.9330   33.1590   69.1380 C.ar      1 ANP500      0.0000 
     27 N6         38.0260   34.0430   70.2100 N.pl3     1 ANP500      0.0000 
     28 N1         38.9240   32.3050   68.8500 N.ar      1 ANP500      0.0000 
     29 C2         38.7490   31.4900   67.7990 C.ar      1 ANP500      0.0000 
     30 N3         37.7200   31.3850   66.9540 N.ar      1 ANP500      0.0000 
     31 C4         36.7680   32.2550   67.2760 C.ar      1 ANP500      0.0000 
     32 H          33.0240   34.6375   63.5888 H         1 ANP500      0.0000 
     33 H          31.5980   33.5859   63.6077 H         1 ANP500      0.0000 
     34 H          33.5561   32.3740   62.8956 H         1 ANP500      0.0000 
     35 H          31.8747   31.5161   64.8454 H         1 ANP500      0.0000 
     36 H          33.2624   31.6992   66.6509 H         1 ANP500      0.0000 
     37 H          35.6703   31.0766   65.1299 H         1 ANP500      0.0000 
     38 H          34.0377   33.8079   67.1143 H         1 ANP500      0.0000 
     39 H          37.2535   34.6655   70.3353 H         1 ANP500      0.0000 
     40 H          38.8573   33.9791   70.7622 H         1 ANP500      0.0000 
     41 H          39.5961   30.7919   67.6016 H         1 ANP500      0.0000 
     42 H          33.4044   29.5264   64.3116 H         1 ANP500      0.0000 
     43 H          33.0652   29.4660   66.4775 H         1 ANP500      0.0000 
@<TRIPOS>BOND
     1    2    1 ar   
     2    3    1 ar   
     3    4    1 ar   
     4    8    1 1    
     5    6    5 ar   
     6    7    5 ar   
     7    8    5 1    
     8   12    5 1    
     9   10    9 ar   
    10   11    9 ar   
    11   12    9 1    
    12   13    9 1    
    13   14   13 1    
    14   15   14 1    
    15   32   14 1    
    16   33   14 1    
    17   16   15 1    
    18   17   15 1    
    19   34   15 1    
    20   21   16 1    
    21   18   17 1    
    22   19   17 1    
    23   35   17 1    
    24   42   18 1    
    25   20   19 1    
    26   21   19 1    
    27   36   19 1    
    28   43   20 1    
    29   22   21 1    
    30   37   21 1    
    31   23   22 1    
    32   31   22 1    
    33   24   23 2    
    34   38   23 1    
    35   25   24 1    
    36   26   25 ar   
    37   31   25 ar   
    38   27   26 1    
    39   28   26 ar   
    40   39   27 1    
    41   40   27 1    
    42   29   28 ar   
    43   30   29 ar   
    44   41   29 1    
    45   31   30 ar   
@<TRIPOS>SUBSTRUCTURE
     1 ANP500      1 GROUP   
@<TRIPOS>SET

