#    Name: 3fco_IIG_2_INTS_M
#    Modification time : Tue Mar 25 03:39:39 2014

@<TRIPOS>MOLECULE
3fco_IIG_2_INTS_M
   71     0     6     0     0
SMALL
NO_CHARGES


@<TRIPOS>ATOM
      1 CA         30.5865   34.6060   22.8125 C.3       2 GLC5        0.0000 
      2 CA         32.6350   34.0540   22.1770 C.3       6 GLL5        0.0000 
      3 CA         28.5380   35.1580   23.4480 C.3       4 GLP5        0.0000 
      4 CA         36.1935   36.3035   21.4515 C.3       2 GLC5        0.0000 
      5 CA         34.9070   34.5580   21.4460 C.3       6 GLL5        0.0000 
      6 CA         37.4800   38.0490   21.4570 C.3       4 GLP5        0.0000 
      7 CA         36.8805   30.5540   23.2365 C.3       2 GLC5        0.0000 
      8 CA         36.3960   32.1410   24.6060 C.3       6 GLL5        0.0000 
      9 CA         37.3650   28.9670   21.8670 C.3       4 GLP5        0.0000 
     10 CA         38.0555   32.7145   24.1700 C.3       2 GLC5        0.0000 
     11 CA         39.7150   33.2880   23.7340 C.3       4 GLP5        0.0000 
     12 CA         33.5310   37.0170   17.2985 C.3       2 GLC5        0.0000 
     13 CA         31.9120   36.8210   18.6310 C.3       6 GLL5        0.0000 
     14 CA         35.1500   37.2130   15.9660 C.3       4 GLP5        0.0000 
     15 CA         35.4200   38.7260   21.5835 C.3       2 GLC5        0.0000 
     16 CA         33.3600   39.4030   21.7100 C.3       6 GLL5        0.0000 
     17 CA         33.7460   39.6895   25.0200 C.3       2 GLC5        0.0000 
     18 CA         33.0960   40.6000   23.3390 C.3       6 GLL5        0.0000 
     19 CA         34.3960   38.7790   26.7010 C.3       4 GLP5        0.0000 
     20 CA         35.6660   42.1455   23.0800 C.3       2 GLC5        0.0000 
     21 CA         33.5320   41.9200   22.6770 C.3       6 GLL5        0.0000 
     22 CA         37.8000   42.3710   23.4830 C.3       4 GLP5        0.0000 
     23 CA         29.9940   40.5230   22.8225 C.3       2 GLC5        0.0000 
     24 CA         32.0860   39.8470   22.5040 C.3       6 GLL5        0.0000 
     25 CA         27.9020   41.1990   23.1410 C.3       4 GLP5        0.0000 
     26 CA         30.9070   37.9760   24.7785 C.3       2 GLC5        0.0000 
     27 CA         31.5870   38.4070   22.7680 C.3       6 GLL5        0.0000 
     28 CA         30.2270   37.5450   26.7890 C.3       4 GLP5        0.0000 
     29 CA         29.8755   36.3855   22.4770 C.3       2 GLC5        0.0000 
     30 CA         31.2130   37.6130   21.5060 C.3       6 GLL5        0.0000 
     31 CA         32.7740   39.9990   19.0660 C.3       2 GLC5        0.0000 
     32 CA         33.0720   38.5470   20.4770 C.3       6 GLL5        0.0000 
     33 CA         32.4760   41.4510   17.6550 C.3       4 GLP5        0.0000 
     34 CA         32.0310   34.4675   16.9350 C.3       2 GLC5        0.0000 
     35 CA         30.8250   35.8570   18.1560 C.3       6 GLL5        0.0000 
     36 CA         33.2370   33.0780   15.7140 C.3       4 GLP5        0.0000 
     37 CA         30.5115   36.4165   16.2015 C.3       2 GLC5        0.0000 
     38 CA         30.1980   36.9760   14.2470 C.3       4 GLP5        0.0000 
     39 CA         29.0760   35.1190   17.5860 C.3       2 GLC5        0.0000 
     40 CA         27.3270   34.3810   17.0160 C.3       4 GLP5        0.0000 
     41 CA         30.7885   33.9045   18.8855 C.3       2 GLC5        0.0000 
     42 CA         30.7520   31.9520   19.6150 C.3       4 GLP5        0.0000 
     43 N          33.0480   34.3880   17.5275 N.am      1 SEC2        0.0000 
     44 N          33.0200   34.3160   18.9700 N.am      5 SEL2        0.0000 
     45 N          33.0760   34.4600   16.0850 N.am      3 SEP2        0.0000 
     46 N          34.0645   33.1325   18.7765 N.am      1 SEC2        0.0000 
     47 N          35.1090   31.9490   18.5830 N.am      3 SEP2        0.0000 
     48 CA         31.6200   32.8830   24.5350 C.3       2 GLC5        0.0000 
     49 CA         33.1570   33.5100   23.3600 C.3       6 GLL5        0.0000 
     50 CA         30.0830   32.2560   25.7100 C.3       4 GLP5        0.0000 
     51 CA         37.7170   34.6015   27.1515 C.3       2 GLC5        0.0000 
     52 CA         35.9740   33.4300   26.7640 C.3       6 GLL5        0.0000 
     53 CA         39.4600   35.7730   27.5390 C.3       4 GLP5        0.0000 
     54 CA         35.4615   31.7075   27.5115 C.3       2 GLC5        0.0000 
     55 CA         34.9490   29.9850   28.2590 C.3       4 GLP5        0.0000 
     56 CA         38.0335   34.0705   24.4715 C.3       2 GLC5        0.0000 
     57 CA         36.3520   34.8530   25.2090 C.3       6 GLL5        0.0000 
     58 CA         37.9060   35.3130   26.3740 C.3       2 GLC5        0.0000 
     59 CA         32.6065   33.5670   26.5560 C.3       2 GLC5        0.0000 
     60 CA         34.3120   34.7260   26.0940 C.3       6 GLL5        0.0000 
     61 CA         30.9010   32.4080   27.0180 C.3       4 GLP5        0.0000 
     62 CA         35.3483   31.2540   26.4918 C.3       2 GLC5        0.0000 
     63 CA         35.0990   32.9050   24.8430 C.3       6 GLL5        0.0000 
     64 CA         31.1873   38.5830   17.4008 C.3       2 GLC5        0.0000 
     65 CA         31.1870   40.1560   16.1140 C.3       4 GLP5        0.0000 
     66 CA         33.6200   43.5170   24.3255 C.3       2 GLC5        0.0000 
     67 CA         34.1800   45.1070   25.3730 C.3       4 GLP5        0.0000 
     68 CA         35.5768   36.2106   25.4186 C.3       2 GLC5        0.0000 
     69 CA         36.0530   37.8320   25.0490 C.3       4 GLP5        0.0000 
     70 CA         34.5690   34.8847   27.6585 C.3       2 GLC5        0.0000 
     71 CA         34.1320   35.5360   29.1400 C.3       4 GLP5        0.0000 
@<TRIPOS>BOND
@<TRIPOS>SUBSTRUCTURE
     1 SEC2       43 GROUP        1 X    SEC  0     ROOT SEC X 2
     2 GLC5        1 GROUP        1 X    GLC  0     **** GLC X 6
     3 SEP2       45 GROUP        1 Y    SEP  0     ROOT SEP Y 9
     4 GLP5        3 GROUP        1 Y    GLP  0     **** GLP Y 13
     5 SEL2       44 GROUP        1 Z    SEL  0     ROOT SEL Z 16
     6 GLL5        2 GROUP        1 Z    GLL  0     **** GLL Z 20
@<TRIPOS>SET

