#    Name: 3fco_IIG_2_ligand
#    Modification time : Tue Mar 25 03:39:39 2014

@<TRIPOS>MOLECULE
3fco_IIG_2_ligand
   57    60     1     0     0
SMALL
NO_CHARGES


@<TRIPOS>ATOM
      1 N1         32.5050   36.3390   19.8640 N.am      1 IIG293      0.0000 
      2 C4         32.6350   34.0540   22.1770 C.ar      1 IIG293      0.0000 
      3 C5         33.5370   34.6000   21.2320 C.ar      1 IIG293      0.0000 
      4 C6         34.9070   34.5580   21.4460 C.ar      1 IIG293      0.0000 
      5 C7         35.4110   34.0210   22.6220 C.ar      1 IIG293      0.0000 
      6 C8         35.0990   32.9050   24.8430 C.3       1 IIG293      0.0000 
      7 C10        36.3960   32.1410   24.6060 C.3       1 IIG293      0.0000 
      8 C13        31.9120   36.8210   18.6310 C.3       1 IIG293      0.0000 
      9 C15        30.4630   37.1990   18.7440 C.3       1 IIG293      0.0000 
     10 C17        33.3600   39.4030   21.7100 C.3       1 IIG293      0.0000 
     11 C20        33.0960   40.6000   23.3390 C.3       1 IIG293      0.0000 
     12 C21        33.5320   41.9200   22.6770 C.3       1 IIG293      0.0000 
     13 C22        32.5880   41.9340   23.8790 C.3       1 IIG293      0.0000 
     14 C1         32.0860   39.8470   22.5040 C.3       1 IIG293      0.0000 
     15 C18        31.5870   38.4070   22.7680 C.3       1 IIG293      0.0000 
     16 C19        31.2130   37.6130   21.5060 C.3       1 IIG293      0.0000 
     17 O3         31.5660   40.4760   21.3820 O.3       1 IIG293      0.0000 
     18 C16        33.0720   38.5470   20.4770 C.3       1 IIG293      0.0000 
     19 C12        32.5610   37.2320   20.9750 C.3       1 IIG293      0.0000 
     20 C14        30.8250   35.8570   18.1560 C.3       1 IIG293      0.0000 
     21 C11        33.0150   35.1190   19.9110 C.2       1 IIG293      0.0000 
     22 O2         33.0200   34.3160   18.9700 O.2       1 IIG293      0.0000 
     23 C3         33.1570   33.5100   23.3600 C.ar      1 IIG293      0.0000 
     24 C2         34.5410   33.4920   23.5650 C.ar      1 IIG293      0.0000 
     25 C9         35.4260   34.0520   25.7560 C.3       1 IIG293      0.0000 
     26 F2         35.9740   33.4300   26.7640 F         1 IIG293      0.0000 
     27 F3         36.3520   34.8530   25.2090 F         1 IIG293      0.0000 
     28 F1         34.3120   34.7260   26.0940 F         1 IIG293      0.0000 
     29 O1         34.1040   32.0760   25.4530 O.3       1 IIG293      0.0000 
     30 H          31.6404   34.0589   21.9980 H         1 IIG293      0.0000 
     31 H          35.5509   34.9258   20.7313 H         1 IIG293      0.0000 
     32 H          36.4237   34.0150   22.7940 H         1 IIG293      0.0000 
     33 H          32.2778   37.2189   17.8871 H         1 IIG293      0.0000 
     34 H          30.2493   37.7879   18.0282 H         1 IIG293      0.0000 
     35 H          30.1862   37.0629   19.6438 H         1 IIG293      0.0000 
     36 H          34.0128   38.8454   22.3989 H         1 IIG293      0.0000 
     37 H          33.9052   40.3100   21.4072 H         1 IIG293      0.0000 
     38 H          33.7777   40.2994   23.8636 H         1 IIG293      0.0000 
     39 H          33.0061   42.0283   21.9014 H         1 IIG293      0.0000 
     40 H          34.3985   42.1163   22.9939 H         1 IIG293      0.0000 
     41 H          33.1021   42.1487   24.6435 H         1 IIG293      0.0000 
     42 H          31.7098   42.0607   23.5510 H         1 IIG293      0.0000 
     43 H          30.7080   38.4568   23.4325 H         1 IIG293      0.0000 
     44 H          32.3720   37.8588   23.3156 H         1 IIG293      0.0000 
     45 H          30.7103   38.2495   20.8314 H         1 IIG293      0.0000 
     46 H          30.6638   36.7565   21.7846 H         1 IIG293      0.0000 
     47 H          33.9835   38.4098   19.9230 H         1 IIG293      0.0000 
     48 H          32.3264   39.0358   19.8755 H         1 IIG293      0.0000 
     49 H          33.1782   36.9097   21.7601 H         1 IIG293      0.0000 
     50 H          30.7151   35.2024   18.8297 H         1 IIG293      0.0000 
     51 H          30.7782   35.9273   17.2140 H         1 IIG293      0.0000 
     52 H          32.5265   33.1281   24.0696 H         1 IIG293      0.0000 
     53 H          37.1086   32.7288   24.2229 H         1 IIG293      0.0000 
     54 H          36.7594   31.7543   25.4536 H         1 IIG293      0.0000 
     55 H          36.2684   31.3814   23.9683 H         1 IIG293      0.0000 
     56 H          32.3320   40.9893   20.9949 H         1 IIG293      0.0000 
     57 H          33.8639   33.0069   25.1774 H         1 IIG293      0.0000 
@<TRIPOS>BOND
     1    8    1 1    
     2   19    1 1    
     3   21    1 am   
     4    3    2 ar   
     5   23    2 ar   
     6   30    2 1    
     7    4    3 ar   
     8   21    3 1    
     9    5    4 ar   
    10   31    4 1    
    11   24    5 ar   
    12   32    5 1    
    13    7    6 1    
    14   24    6 1    
    15   25    6 1    
    16   29    6 1    
    17   53    7 1    
    18   54    7 1    
    19   55    7 1    
    20    9    8 1    
    21   20    8 1    
    22   33    8 1    
    23   20    9 1    
    24   34    9 1    
    25   35    9 1    
    26   14   10 1    
    27   18   10 1    
    28   36   10 1    
    29   37   10 1    
    30   12   11 1    
    31   13   11 1    
    32   14   11 1    
    33   38   11 1    
    34   13   12 1    
    35   39   12 1    
    36   40   12 1    
    37   41   13 1    
    38   42   13 1    
    39   15   14 1    
    40   17   14 1    
    41   16   15 1    
    42   43   15 1    
    43   44   15 1    
    44   19   16 1    
    45   45   16 1    
    46   46   16 1    
    47   56   17 1    
    48   19   18 1    
    49   47   18 1    
    50   48   18 1    
    51   49   19 1    
    52   50   20 1    
    53   51   20 1    
    54   22   21 2    
    55   24   23 ar   
    56   52   23 1    
    57   26   25 1    
    58   27   25 1    
    59   28   25 1    
    60   57   29 1    
@<TRIPOS>SUBSTRUCTURE
     1 IIG293      1 GROUP   
@<TRIPOS>SET

