#    Name: 2bjk_NAD_1_INTS_M
#    Modification time : Mon Mar 24 21:06:10 2014

@<TRIPOS>MOLECULE
2bjk_NAD_1_INTS_M
  114     0     9     0     0
SMALL
NO_CHARGES


@<TRIPOS>ATOM
      1 N          11.4810   35.2665   94.2085 N.am      2 SEC2        0.0000 
      2 N          10.4630   34.3670   93.9330 N.am      8 SEL2        0.0000 
      3 N          12.4990   36.1660   94.4840 N.am      5 SEP2        0.0000 
      4 N          10.0315   35.5740   94.2640 N.am      2 SEC2        0.0000 
      5 N           9.6000   36.7810   94.5950 N.am      5 SEP2        0.0000 
      6 CA         13.5535   31.3065   91.9670 C.3       3 GLC5        0.0000 
      7 CA         11.7430   31.6770   93.2040 C.3       9 GLL5        0.0000 
      8 CA         15.3640   30.9360   90.7300 C.3       6 GLP5        0.0000 
      9 CA         12.9930   33.0885   93.8580 C.3       3 GLC5        0.0000 
     10 CA         14.2430   34.5000   94.5120 C.3       6 GLP5        0.0000 
     11 CA         11.5360   28.2940   90.7735 C.3       3 GLC5        0.0000 
     12 CA         10.9530   29.3210   92.3420 C.3       9 GLL5        0.0000 
     13 CA         12.1190   27.2670   89.2050 C.3       6 GLP5        0.0000 
     14 N          10.4555   26.8245   92.2535 N.am      2 SEC2        0.0000 
     15 N          11.4450   28.0010   92.5750 N.am      8 SEL2        0.0000 
     16 N           9.4660   25.6480   91.9320 N.am      5 SEP2        0.0000 
     17 O          12.7195   28.3830   92.2415 O.2       1 ALC1        0.0000 
     18 O          11.4450   28.0010   92.5750 O.2       7 ALL1        0.0000 
     19 O          13.9940   28.7650   91.9080 O.2       4 ALP1        0.0000 
     20 N           9.0855   26.9725   91.9960 N.am      2 SEC2        0.0000 
     21 N           8.7050   28.2970   92.0600 N.am      8 SEL2        0.0000 
     22 O           8.4940   28.1550   90.7790 O.2       1 ALC1        0.0000 
     23 O           8.7050   28.2970   92.0600 O.2       7 ALL1        0.0000 
     24 O           8.2830   28.0130   89.4980 O.2       4 ALP1        0.0000 
     25 CA         10.6505   28.6600   95.1545 C.3       3 GLC5        0.0000 
     26 CA          9.4020   29.3430   94.1360 C.3       9 GLL5        0.0000 
     27 CA         11.8990   27.9770   96.1730 C.3       6 GLP5        0.0000 
     28 CA          4.9125   28.5530   98.6550 C.3       3 GLC5        0.0000 
     29 CA          5.9330   30.1540   97.4630 C.3       9 GLL5        0.0000 
     30 CA          3.8920   26.9520   99.8470 C.3       6 GLP5        0.0000 
     31 CA          9.3390   27.6595   98.4320 C.3       3 GLC5        0.0000 
     32 CA          7.6560   28.6530   98.0520 C.3       9 GLL5        0.0000 
     33 CA         11.0220   26.6660   98.8120 C.3       6 GLP5        0.0000 
     34 CA          7.5630   26.6790   97.7740 C.3       3 GLC5        0.0000 
     35 CA          7.4700   24.7050   97.4960 C.3       6 GLP5        0.0000 
     36 CA          6.4240   27.4310   99.0955 C.3       3 GLC5        0.0000 
     37 CA          5.1920   26.2090  100.1390 C.3       6 GLP5        0.0000 
     38 CA          8.4820   27.8340   99.9485 C.3       3 GLC5        0.0000 
     39 CA          9.3080   27.0150  101.8450 C.3       6 GLP5        0.0000 
     40 CA          8.2120   30.7340   97.7400 C.3       3 GLC5        0.0000 
     41 CA          8.7680   32.8150   97.4280 C.3       6 GLP5        0.0000 
     42 CA          9.0760   29.6795   99.0380 C.3       3 GLC5        0.0000 
     43 CA         10.4960   30.7060  100.0240 C.3       6 GLP5        0.0000 
     44 CA          9.8220   28.7770   96.0910 C.3       3 GLC5        0.0000 
     45 CA          7.7450   29.5770   96.0090 C.3       9 GLL5        0.0000 
     46 N          12.1060   35.2595   93.1140 N.am      2 SEC2        0.0000 
     47 N          11.7130   34.3530   91.7440 N.am      8 SEL2        0.0000 
     48 N          11.7705   34.4065   88.1070 N.am      2 SEC2        0.0000 
     49 N          11.4320   34.9220   89.3260 N.am      8 SEL2        0.0000 
     50 N          12.1090   33.8910   86.8880 N.am      5 SEP2        0.0000 
     51 CA         15.0490   34.1680   90.6205 C.3       3 GLC5        0.0000 
     52 CA         13.9940   36.1100   90.1990 C.3       9 GLL5        0.0000 
     53 CA         16.1040   32.2260   91.0420 C.3       6 GLP5        0.0000 
     54 CA         14.7270   37.0930   88.7770 C.3       3 GLC5        0.0000 
     55 CA         15.4600   38.0760   87.3550 C.3       6 GLP5        0.0000 
     56 CA         14.1805   35.6455   93.0230 C.3       3 GLC5        0.0000 
     57 CA         14.1180   36.7910   91.5340 C.3       9 GLL5        0.0000 
     58 CA         15.2875   37.5975   89.9005 C.3       3 GLC5        0.0000 
     59 CA         16.4570   38.4040   88.2670 C.3       6 GLP5        0.0000 
     60 O          13.8745   40.3355   92.3520 O.2       1 ALC1        0.0000 
     61 O          13.8240   39.0180   92.5160 O.2       7 ALL1        0.0000 
     62 O          13.9250   41.6530   92.1880 O.2       4 ALP1        0.0000 
     63 O          16.2665   40.7830   91.8750 O.2       1 ALC1        0.0000 
     64 O          16.5180   39.5200   92.1100 O.2       7 ALL1        0.0000 
     65 O          16.0150   42.0460   91.6400 O.2       4 ALP1        0.0000 
     66 O          15.2215   40.5865   92.1490 O.2       1 ALC1        0.0000 
     67 CA         15.1665   35.8400   93.6065 C.3       3 GLC5        0.0000 
     68 CA         16.0900   37.1800   92.7010 C.3       9 GLL5        0.0000 
     69 CA         19.0355   38.1695   93.0440 C.3       3 GLC5        0.0000 
     70 CA         18.2320   36.9120   93.8050 C.3       9 GLL5        0.0000 
     71 CA         19.8390   39.4270   92.2830 C.3       6 GLP5        0.0000 
     72 O          18.8995   38.3645   96.0775 O.2       1 ALC1        0.0000 
     73 O          19.9690   37.5280   96.0220 O.2       7 ALL1        0.0000 
     74 O          17.8300   39.2010   96.1330 O.2       4 ALP1        0.0000 
     75 O          20.6300   38.0475   97.3890 O.2       1 ALC1        0.0000 
     76 O          21.2910   38.5670   98.7560 O.2       4 ALP1        0.0000 
     77 CA         18.3570   33.6060   91.5560 C.3       3 GLC5        0.0000 
     78 CA         19.2640   35.5010   91.6840 C.3       9 GLL5        0.0000 
     79 CA         17.4500   31.7110   91.4280 C.3       6 GLP5        0.0000 
     80 CA         17.0335   34.0760   91.3585 C.3       3 GLC5        0.0000 
     81 CA         17.9630   35.9260   91.6750 C.3       9 GLL5        0.0000 
     82 CA         11.9002   31.3878   95.1300 C.3       3 GLC5        0.0000 
     83 CA         12.1950   31.8270   96.9100 C.3       6 GLP5        0.0000 
     84 CA         11.5547   28.8738   94.5460 C.3       3 GLC5        0.0000 
     85 CA         11.4680   30.2200   93.4960 C.3       9 GLL5        0.0000 
     86 CA          7.8830   28.2058   93.6595 C.3       3 GLC5        0.0000 
     87 CA          9.4300   29.3620   92.6060 C.3       9 GLL5        0.0000 
     88 CA          6.3500   27.0590   93.9480 C.3       6 GLP5        0.0000 
     89 CA          9.8309   27.2051   93.2720 C.3       3 GLC5        0.0000 
     90 CA          9.8650   25.0680   93.2390 C.3       6 GLP5        0.0000 
     91 CA          6.7545   28.5027   95.0237 C.3       3 GLC5        0.0000 
     92 CA          4.7080   29.1610   96.2912 C.3       3 GLC5        0.0000 
     93 CA          6.5730   30.3160   96.1900 C.3       9 GLL5        0.0000 
     94 CA          3.1630   28.0870   95.7560 C.3       6 GLP5        0.0000 
     95 CA          7.8835   31.3605   96.9229 C.3       3 GLC5        0.0000 
     96 CA         13.0940   37.5147   93.0940 C.3       3 GLC5        0.0000 
     97 CA         11.9140   37.4840   94.6960 C.3       6 GLP5        0.0000 
     98 CA         15.8552   38.9963   90.1762 C.3       3 GLC5        0.0000 
     99 CA         14.4300   38.3000   91.4500 C.3       9 GLL5        0.0000 
    100 CA         16.5180   39.6910   88.7910 C.3       6 GLP5        0.0000 
    101 CA         16.1063   39.3702   93.5370 C.3       3 GLC5        0.0000 
    102 CA         15.9550   38.3030   91.6730 C.3       9 GLL5        0.0000 
    103 CA         16.1900   40.9990   94.8870 C.3       6 GLP5        0.0000 
    104 CA         17.9307   38.5842   92.2350 C.3       3 GLC5        0.0000 
    105 CA         18.7927   35.0585   94.2798 C.3       3 GLC5        0.0000 
    106 CA         18.6980   33.4270   94.7210 C.3       6 GLP5        0.0000 
    107 CA         20.6435   37.4420   92.9660 C.3       3 GLC5        0.0000 
    108 CA         19.5430   36.4680   93.8720 C.3       9 GLL5        0.0000 
    109 CA         21.4790   38.7650   92.6030 C.3       6 GLP5        0.0000 
    110 CA         20.5887   34.2157   91.9260 C.3       3 GLC5        0.0000 
    111 CA         20.0730   35.7700   92.7860 C.3       9 GLL5        0.0000 
    112 CA         21.5090   32.7960   91.6170 C.3       6 GLP5        0.0000 
    113 CA         19.2263   37.5703   91.9812 C.3       3 GLC5        0.0000 
    114 CA         18.7569   34.6039   93.3380 C.3       3 GLC5        0.0000 
@<TRIPOS>BOND
@<TRIPOS>SUBSTRUCTURE
     1 ALC1       17 GROUP        1 X    ALC  0     ROOT ALC X 1
     2 SEC2        1 GROUP        1 X    SEC  0     **** SEC X 2
     3 GLC5        6 GROUP        1 X    GLC  0     **** GLC X 6
     4 ALP1       19 GROUP        1 Y    ALP  0     ROOT ALP Y 8
     5 SEP2        3 GROUP        1 Y    SEP  0     **** SEP Y 9
     6 GLP5        8 GROUP        1 Y    GLP  0     **** GLP Y 13
     7 ALL1       18 GROUP        1 Z    ALL  0     ROOT ALL Z 15
     8 SEL2        2 GROUP        1 Z    SEL  0     **** SEL Z 16
     9 GLL5        7 GROUP        1 Z    GLL  0     **** GLL Z 20
@<TRIPOS>SET

