#    Name: 2bjk_NAD_1_ligand
#    Modification time : Mon Mar 24 21:06:10 2014

@<TRIPOS>MOLECULE
2bjk_NAD_1_ligand
   70    74     1     0     0
SMALL
NO_CHARGES


@<TRIPOS>ATOM
      1 PA         10.4250   33.8470   92.5550 P.3       1 NAD1517     0.0000 
      2 O1A        10.4630   34.3670   93.9330 O.co2     1 NAD1517     0.0000 
      3 O2A         9.1950   34.2080   91.8010 O.co2     1 NAD1517     0.0000 
      4 O5B        10.5550   32.2650   92.6140 O.3       1 NAD1517     0.0000 
      5 C5B        11.7430   31.6770   93.2040 C.3       1 NAD1517     0.0000 
      6 C4B        11.4680   30.2200   93.4960 C.3       1 NAD1517     0.0000 
      7 O4B        10.4420   30.1840   94.5240 O.3       1 NAD1517     0.0000 
      8 C3B        10.9530   29.3210   92.3420 C.3       1 NAD1517     0.0000 
      9 O3B        11.4450   28.0010   92.5750 O.3       1 NAD1517     0.0000 
     10 C2B         9.4300   29.3620   92.6060 C.3       1 NAD1517     0.0000 
     11 O2B         8.7050   28.2970   92.0600 O.3       1 NAD1517     0.0000 
     12 C1B         9.4020   29.3430   94.1360 C.3       1 NAD1517     0.0000 
     13 N9A         8.1800   29.8880   94.7430 N.pl3     1 NAD1517     0.0000 
     14 C8A         7.2610   30.7780   94.2470 C.2       1 NAD1517     0.0000 
     15 N7A         6.2800   31.0620   95.0700 N.2       1 NAD1517     0.0000 
     16 C5A         6.5730   30.3160   96.1900 C.ar      1 NAD1517     0.0000 
     17 C6A         5.9330   30.1540   97.4630 C.ar      1 NAD1517     0.0000 
     18 N6A         4.8120   30.7750   97.8200 N.pl3     1 NAD1517     0.0000 
     19 N1A         6.5120   29.3050   98.3750 N.ar      1 NAD1517     0.0000 
     20 C2A         7.6560   28.6530   98.0520 C.ar      1 NAD1517     0.0000 
     21 N3A         8.3430   28.7250   96.8990 N.ar      1 NAD1517     0.0000 
     22 C4A         7.7450   29.5770   96.0090 C.ar      1 NAD1517     0.0000 
     23 O3         11.7130   34.3530   91.7440 O.3       1 NAD1517     0.0000 
     24 PN         12.2530   34.1150   90.2720 P.3       1 NAD1517     0.0000 
     25 O1N        11.4320   34.9220   89.3260 O.co2     1 NAD1517     0.0000 
     26 O2N        12.4000   32.6490   90.0800 O.co2     1 NAD1517     0.0000 
     27 O5D        13.7500   34.6910   90.3930 O.3       1 NAD1517     0.0000 
     28 C5D        13.9940   36.1100   90.1990 C.3       1 NAD1517     0.0000 
     29 C4D        14.1180   36.7910   91.5340 C.3       1 NAD1517     0.0000 
     30 O4D        15.2270   36.1850   92.2640 O.3       1 NAD1517     0.0000 
     31 C3D        14.4300   38.3000   91.4500 C.3       1 NAD1517     0.0000 
     32 O3D        13.8240   39.0180   92.5160 O.3       1 NAD1517     0.0000 
     33 C2D        15.9550   38.3030   91.6730 C.3       1 NAD1517     0.0000 
     34 O2D        16.5180   39.5200   92.1100 O.3       1 NAD1517     0.0000 
     35 C1D        16.0900   37.1800   92.7010 C.3       1 NAD1517     0.0000 
     36 N1N        17.4810   36.6350   92.7230 N.pl3     1 NAD1517     0.0000 
     37 C2N        18.2320   36.9120   93.8050 C.ar      1 NAD1517     0.0000 
     38 C3N        19.5430   36.4680   93.8720 C.ar      1 NAD1517     0.0000 
     39 C7N        20.4130   36.7180   95.0710 C.2       1 NAD1517     0.0000 
     40 O7N        21.5110   36.1510   95.1180 O.2       1 NAD1517     0.0000 
     41 N7N        19.9690   37.5280   96.0220 N.am      1 NAD1517     0.0000 
     42 C4N        20.0730   35.7700   92.7860 C.ar      1 NAD1517     0.0000 
     43 C5N        19.2640   35.5010   91.6840 C.ar      1 NAD1517     0.0000 
     44 C6N        17.9630   35.9260   91.6750 C.ar      1 NAD1517     0.0000 
     45 H          12.0054   32.1760   94.1375 H         1 NAD1517     0.0000 
     46 H          12.5922   31.7417   92.5229 H         1 NAD1517     0.0000 
     47 H          12.3665   29.7577   93.9057 H         1 NAD1517     0.0000 
     48 H          11.1710   29.7480   91.4513 H         1 NAD1517     0.0000 
     49 H           9.0918   30.3390   92.3092 H         1 NAD1517     0.0000 
     50 H           9.5812   28.3421   94.4673 H         1 NAD1517     0.0000 
     51 H           7.3594   31.1648   93.3212 H         1 NAD1517     0.0000 
     52 H           4.3889   31.3543   97.1233 H         1 NAD1517     0.0000 
     53 H           4.4935   30.6065   98.7528 H         1 NAD1517     0.0000 
     54 H           8.0642   27.9921   98.8228 H         1 NAD1517     0.0000 
     55 H          13.1722   36.5735   89.6425 H         1 NAD1517     0.0000 
     56 H          14.9184   36.2720   89.6340 H         1 NAD1517     0.0000 
     57 H          13.2108   36.6664   92.0988 H         1 NAD1517     0.0000 
     58 H          14.2329   38.6418   90.4971 H         1 NAD1517     0.0000 
     59 H          16.3943   37.9164   90.7559 H         1 NAD1517     0.0000 
     60 H          15.8229   37.5612   93.6529 H         1 NAD1517     0.0000 
     61 H          17.8459   37.4568   94.5984 H         1 NAD1517     0.0000 
     62 H          19.0644   37.9273   95.8730 H         1 NAD1517     0.0000 
     63 H          20.5789   37.6664   96.8023 H         1 NAD1517     0.0000 
     64 H          21.0475   35.4588   92.7999 H         1 NAD1517     0.0000 
     65 H          19.6543   34.9829   90.8836 H         1 NAD1517     0.0000 
     66 H          17.3548   35.7027   90.8664 H         1 NAD1517     0.0000 
     67 H          12.4277   28.0563   92.3985 H         1 NAD1517     0.0000 
     68 H           8.7351   28.4435   91.0713 H         1 NAD1517     0.0000 
     69 H          13.9227   39.9817   92.2679 H         1 NAD1517     0.0000 
     70 H          16.0121   40.2298   91.6198 H         1 NAD1517     0.0000 
@<TRIPOS>BOND
     1    2    1 ar   
     2    3    1 ar   
     3    4    1 1    
     4   23    1 1    
     5    5    4 1    
     6    6    5 1    
     7   45    5 1    
     8   46    5 1    
     9    7    6 1    
    10    8    6 1    
    11   47    6 1    
    12   12    7 1    
    13    9    8 1    
    14   10    8 1    
    15   48    8 1    
    16   67    9 1    
    17   11   10 1    
    18   12   10 1    
    19   49   10 1    
    20   68   11 1    
    21   13   12 1    
    22   50   12 1    
    23   14   13 1    
    24   22   13 1    
    25   15   14 2    
    26   51   14 1    
    27   16   15 1    
    28   17   16 ar   
    29   22   16 ar   
    30   18   17 1    
    31   19   17 ar   
    32   52   18 1    
    33   53   18 1    
    34   20   19 ar   
    35   21   20 ar   
    36   54   20 1    
    37   22   21 ar   
    38   24   23 1    
    39   25   24 ar   
    40   26   24 ar   
    41   27   24 1    
    42   28   27 1    
    43   29   28 1    
    44   55   28 1    
    45   56   28 1    
    46   30   29 1    
    47   31   29 1    
    48   57   29 1    
    49   35   30 1    
    50   32   31 1    
    51   33   31 1    
    52   58   31 1    
    53   69   32 1    
    54   34   33 1    
    55   35   33 1    
    56   59   33 1    
    57   70   34 1    
    58   36   35 1    
    59   60   35 1    
    60   37   36 ar   
    61   44   36 ar   
    62   38   37 ar   
    63   61   37 1    
    64   39   38 1    
    65   42   38 ar   
    66   40   39 2    
    67   41   39 am   
    68   62   41 1    
    69   63   41 1    
    70   43   42 ar   
    71   64   42 1    
    72   44   43 ar   
    73   65   43 1    
    74   66   44 1    
@<TRIPOS>SUBSTRUCTURE
     1 NAD1517     1 GROUP   
@<TRIPOS>SET

