#    Name: 2GQA_1_CAVITY_N1_6.mol2
#    Modification time : Mon Mar 10 15:12:04 2014

@<TRIPOS>MOLECULE
2GQA_1_CAVITY_N1_6.mol2
  115     0     6     0     0
SMALL
NO_CHARGES


@<TRIPOS>ATOM
      1 O          -3.1674  -15.3653   -4.7113 O.2       2 ALA2        0.0000 
      2 CA         -2.1409  -16.2523   -4.0713 C.3       5 GLY6        0.0000 
      3 O          -2.7339  -15.8414   -6.0661 O.2       2 ALA2        0.0000 
      4 CA         -1.7075  -16.7283   -5.4261 C.3       5 GLY6        0.0000 
      5 CA         -2.3005  -16.3174   -7.4210 C.3       5 GLY6        0.0000 
      6 N          -1.2741  -17.2044   -6.7809 N.2       2 ALA2        0.0000 
      7 O          -2.1631  -14.2533   -4.7808 O.2       2 ALA2        0.0000 
      8 CA         -1.7297  -14.7293   -6.1356 C.3       5 GLY6        0.0000 
      9 CA         -0.7032  -15.6163   -5.4956 C.3       5 GLY6        0.0000 
     10 N          -0.2698  -16.0923   -6.8504 N.2       2 ALA2        0.0000 
     11 CA         -1.1589  -13.1412   -4.8503 C.3       5 GLY6        0.0000 
     12 CA         -0.7254  -13.6173   -6.2051 C.3       5 GLY6        0.0000 
     13 N           0.3010  -14.5042   -5.5650 N.2       2 ALA2        0.0000 
     14 CA         -2.9148   -9.2380   -0.1405 C.3       5 GLY6        0.0000 
     15 CA         -3.5078   -8.8271   -2.1354 C.3       5 GLY6        0.0000 
     16 O          -1.1811  -11.1422   -5.5598 O.2       2 ALA2        0.0000 
     17 O          -0.1546  -12.0292   -4.9197 O.2       2 ALA2        0.0000 
     18 CA          0.8718  -12.9162   -4.2797 C.3       5 GLY6        0.0000 
     19 O           0.2788  -12.5052   -6.2745 O.2       2 ALA2        0.0000 
     20 O           1.3053  -13.3922   -5.6345 O.2       2 ALA2        0.0000 
     21 CZ         -3.8039   -6.2869    1.8596 C.ar      4 PHE5        0.0000 
     22 CZ         -3.3704   -6.7629    0.5048 C.ar      4 PHE5        0.0000 
     23 CA         -2.3440   -7.6499    1.1448 C.3       5 GLY6        0.0000 
     24 CZ         -2.9370   -7.2390   -0.8500 C.ar      4 PHE5        0.0000 
     25 CA         -1.9105   -8.1260   -0.2100 C.3       5 GLY6        0.0000 
     26 CZ         -3.5300   -6.8281   -2.8449 C.ar      4 PHE5        0.0000 
     27 O          -2.5036   -7.7150   -2.2048 O.2       2 ALA2        0.0000 
     28 CA         -1.4771   -8.6020   -1.5648 C.3       5 GLY6        0.0000 
     29 O          -3.0966   -7.3041   -4.1997 O.2       2 ALA2        0.0000 
     30 O          -2.0701   -8.1911   -3.5597 O.2       2 ALA2        0.0000 
     31 O          -1.0437   -9.0781   -2.9196 O.2       2 ALA2        0.0000 
     32 O          -2.6632   -7.7801   -5.5545 O.2       2 ALA2        0.0000 
     33 O          -1.6367   -8.6671   -4.9145 O.2       2 ALA2        0.0000 
     34 O          -0.6103   -9.5541   -4.2744 O.2       2 ALA2        0.0000 
     35 O          -1.2033   -9.1432   -6.2693 O.2       2 ALA2        0.0000 
     36 CA         -0.1768  -10.0301   -5.6292 C.3       5 GLY6        0.0000 
     37 O           0.8496  -10.9171   -4.9892 O.2       2 ALA2        0.0000 
     38 O           1.2831  -11.3932   -6.3440 O.2       2 ALA2        0.0000 
     39 CA          2.3095  -12.2802   -5.7040 C.3       5 GLY6        0.0000 
     40 CZ         -6.7458   -1.5618    2.5796 C.ar      4 PHE5        0.0000 
     41 CZ         -7.3389   -1.1509    0.5848 C.ar      4 PHE5        0.0000 
     42 CZ         -6.3124   -2.0379    1.2248 C.ar      4 PHE5        0.0000 
     43 O          -6.9054   -1.6269   -0.7701 O.2       2 ALA2        0.0000 
     44 CZ         -5.8790   -2.5139   -0.1300 C.ar      4 PHE5        0.0000 
     45 CZ         -4.8525   -3.4009    0.5100 C.ar      4 PHE5        0.0000 
     46 CZ         -3.8261   -4.2879    1.1501 C.ar      4 PHE5        0.0000 
     47 N          -2.7996   -5.1748    1.7901 N.2       2 ALA2        0.0000 
     48 CZ         -3.3926   -4.7639   -0.2047 C.ar      4 PHE5        0.0000 
     49 CA         -2.3662   -5.6509    0.4353 C.3       5 GLY6        0.0000 
     50 CA         -1.3397   -6.5379    1.0754 C.3       5 GLY6        0.0000 
     51 CZ         -2.9592   -5.2400   -1.5595 C.ar      4 PHE5        0.0000 
     52 CA         -1.9327   -6.1269   -0.9195 C.3       5 GLY6        0.0000 
     53 O          -3.5522   -4.8290   -3.5544 O.2       2 ALA2        0.0000 
     54 CZ         -2.5258   -5.7160   -2.9144 C.ar      4 PHE5        0.0000 
     55 CA         -1.4993   -6.6030   -2.2743 C.3       5 GLY6        0.0000 
     56 CA         -0.4729   -7.4900   -1.6343 C.3       5 GLY6        0.0000 
     57 NZ         -2.0923   -6.1921   -4.2692 N.2       3 LYS4        0.0000 
     58 DU         -1.0659   -7.0790   -3.6291 H         6 CUB7        0.0000 
     59 CA         -0.0394   -7.9660   -2.9891 C.3       5 GLY6        0.0000 
     60 N          -1.6589   -6.6681   -5.6240 N.2       2 ALA2        0.0000 
     61 N          -0.6325   -7.5551   -4.9839 N.2       2 ALA2        0.0000 
     62 CA          0.3940   -8.4421   -4.3439 C.3       5 GLY6        0.0000 
     63 N          -0.1990   -8.0311   -6.3387 N.2       2 ALA2        0.0000 
     64 O           0.8274   -8.9181   -5.6987 O.2       2 ALA2        0.0000 
     65 CZ         -5.7416   -0.4498    2.5102 C.ar      4 PHE5        0.0000 
     66 CZ         -6.3346   -0.0388    0.5153 C.ar      4 PHE5        0.0000 
     67 CZ         -5.3082   -0.9258    1.1553 C.ar      4 PHE5        0.0000 
     68 CZ         -4.2817   -1.8128    1.7954 C.ar      4 PHE5        0.0000 
     69 OG         -5.9012   -0.5149   -0.8395 O.2       1 SER1        0.0000 
     70 DU         -4.8747   -1.4019   -0.1995 H         6 CUB7        0.0000 
     71 CA         -3.8483   -2.2888    0.4406 C.3       5 GLY6        0.0000 
     72 O          -2.8218   -3.1758    1.0806 O.2       2 ALA2        0.0000 
     73 O          -5.4678   -0.9909   -2.1943 O.2       2 ALA2        0.0000 
     74 O          -4.4413   -1.8779   -1.5543 O.2       2 ALA2        0.0000 
     75 CZ         -3.4148   -2.7649   -0.9142 C.ar      4 PHE5        0.0000 
     76 CZ         -2.3884   -3.6519   -0.2742 C.ar      4 PHE5        0.0000 
     77 CA         -1.3619   -4.5388    0.3659 C.3       5 GLY6        0.0000 
     78 O          -5.0343   -1.4670   -3.5491 O.2       2 ALA2        0.0000 
     79 O          -4.0079   -2.3540   -2.9091 O.2       2 ALA2        0.0000 
     80 O          -2.9814   -3.2409   -2.2691 O.2       2 ALA2        0.0000 
     81 DU         -1.9550   -4.1279   -1.6290 H         6 CUB7        0.0000 
     82 CA         -0.9285   -5.0149   -0.9890 C.3       5 GLY6        0.0000 
     83 NZ         -2.5480   -3.7170   -3.6239 N.2       3 LYS4        0.0000 
     84 NZ         -1.5215   -4.6040   -2.9838 N.2       3 LYS4        0.0000 
     85 N          -0.4951   -5.4909   -2.3438 N.2       2 ALA2        0.0000 
     86 NZ         -1.0881   -5.0800   -4.3386 N.2       3 LYS4        0.0000 
     87 DU         -0.0616   -5.9670   -3.6986 H         6 CUB7        0.0000 
     88 CA          0.9648   -6.8540   -3.0585 C.3       5 GLY6        0.0000 
     89 N          -0.6547   -5.5561   -5.6934 N.2       2 ALA2        0.0000 
     90 O           0.3718   -6.4430   -5.0534 O.2       2 ALA2        0.0000 
     91 CA          1.3983   -7.3300   -4.4134 C.3       5 GLY6        0.0000 
     92 N           0.8052   -6.9191   -6.4082 N.2       2 ALA2        0.0000 
     93 CA          1.8317   -7.8061   -5.7682 C.3       5 GLY6        0.0000 
     94 OG         -4.3039    0.1862    1.0859 O.2       1 SER1        0.0000 
     95 OG         -3.8705   -0.2898   -0.2689 O.2       1 SER1        0.0000 
     96 OG         -2.8440   -1.1768    0.3711 O.2       1 SER1        0.0000 
     97 OG         -3.4370   -0.7659   -1.6237 O.2       1 SER1        0.0000 
     98 DU         -2.4106   -1.6528   -0.9837 H         6 CUB7        0.0000 
     99 O          -1.3841   -2.5398   -0.3437 O.2       2 ALA2        0.0000 
    100 OG         -4.0301   -0.3549   -3.6186 O.2       1 SER1        0.0000 
    101 NZ         -3.0036   -1.2419   -2.9786 N.2       3 LYS4        0.0000 
    102 O          -1.9772   -2.1289   -2.3385 O.2       2 ALA2        0.0000 
    103 N          -0.9507   -3.0159   -1.6985 N.2       2 ALA2        0.0000 
    104 O          -1.5437   -2.6049   -3.6933 O.2       2 ALA2        0.0000 
    105 N          -0.5173   -3.4919   -3.0533 N.2       2 ALA2        0.0000 
    106 O          -0.0838   -3.9680   -4.4081 O.2       2 ALA2        0.0000 
    107 O           0.9426   -4.8549   -3.7681 O.2       2 ALA2        0.0000 
    108 OG         -2.8662    0.8222   -0.3384 O.2       1 SER1        0.0000 
    109 OG         -2.4328    0.3462   -1.6932 O.2       1 SER1        0.0000 
    110 OG         -1.4063   -0.5408   -1.0532 O.2       1 SER1        0.0000 
    111 OG         -0.3799   -1.4278   -0.4131 O.2       1 SER1        0.0000 
    112 O          -1.9994   -0.1299   -3.0480 O.2       2 ALA2        0.0000 
    113 O          -0.9729   -1.0168   -2.4080 O.2       2 ALA2        0.0000 
    114 O           0.4870   -2.3799   -3.1227 O.2       2 ALA2        0.0000 
    115 N          -0.4021    0.5713   -1.1226 N.2       2 ALA2        0.0000 
@<TRIPOS>BOND
@<TRIPOS>SUBSTRUCTURE
     1 SER1       69 GROUP   
     2 ALA2        1 GROUP   
     3 LYS4       57 GROUP   
     4 PHE5       21 GROUP   
     5 GLY6        2 GROUP   
     6 CUB7       58 GROUP   
@<TRIPOS>SET

