#    Name: 2gqa_FMN_1_INTS_M
#    Modification time : Tue Mar 25 14:56:33 2014

@<TRIPOS>MOLECULE
2gqa_FMN_1_INTS_M
   90     0    12     0     0
SMALL
NO_CHARGES


@<TRIPOS>ATOM
      1 N           3.3755   -0.0115   -2.9775 N.am      2 SEC2        0.0000 
      2 N           2.2360   -0.7240   -3.3660 N.am     10 SEL2        0.0000 
      3 N           4.5150    0.7010   -2.5890 N.am      6 SEP2        0.0000 
      4 N           2.4265   -1.8665   -4.1460 N.am      2 SEC2        0.0000 
      5 N           2.6170   -3.0090   -4.9260 N.am      6 SEP2        0.0000 
      6 O           2.4710    0.2430   -0.9260 O.2       1 ALC1        0.0000 
      7 O           1.4150   -0.6690   -1.2240 O.2       9 ALL1        0.0000 
      8 O           3.5270    1.1550   -0.6280 O.2       5 ALP1        0.0000 
      9 N          -0.3380   -0.3905    1.7925 N.am      2 SEC2        0.0000 
     10 N           0.6000   -0.5900    0.8660 N.am     10 SEL2        0.0000 
     11 N          -1.2760   -0.1910    2.7190 N.am      6 SEP2        0.0000 
     12 N           1.7400    0.0215    1.7540 N.am      2 SEC2        0.0000 
     13 N           2.8800    0.6330    2.6420 N.am      6 SEP2        0.0000 
     14 N          -0.8415   -2.7710    1.6105 N.am      2 SEC2        0.0000 
     15 N          -1.3670   -2.5910    0.2730 N.am     10 SEL2        0.0000 
     16 N          -0.3160   -2.9510    2.9480 N.am      6 SEP2        0.0000 
     17 CA         -1.9100   -2.5505    1.7510 C.3       4 GLC5        0.0000 
     18 CA         -1.8320   -3.8850    0.0840 C.3      12 GLL5        0.0000 
     19 CA         -1.9880   -1.2160    3.4180 C.3       8 GLP5        0.0000 
     20 CA         -1.7175   -3.3660    2.6450 C.3       4 GLC5        0.0000 
     21 CA         -2.4600   -4.5160    1.2680 C.3      12 GLL5        0.0000 
     22 CA         -0.9750   -2.2160    4.0220 C.3       8 GLP5        0.0000 
     23 CA         -0.9340   -5.9935    1.6085 C.3       4 GLC5        0.0000 
     24 CA         -2.8440   -5.9190    1.2230 C.3      12 GLL5        0.0000 
     25 CA          0.9760   -6.0680    1.9940 C.3       8 GLP5        0.0000 
     26 CA         -2.3285   -6.6005    4.1995 C.3       4 GLC5        0.0000 
     27 CA         -3.4850   -6.5900    2.4330 C.3      12 GLL5        0.0000 
     28 CA         -1.1720   -6.6110    5.9660 C.3       8 GLP5        0.0000 
     29 CA         -4.7770   -6.5535    0.9995 C.3       4 GLC5        0.0000 
     30 CA         -6.0690   -6.5170   -0.4340 C.3       8 GLP5        0.0000 
     31 CA         -2.1175   -8.1665    3.1025 C.3       4 GLC5        0.0000 
     32 CA         -0.7500   -9.7430    3.7720 C.3       8 GLP5        0.0000 
     33 CA         -4.2315   -8.1455    3.2000 C.3       4 GLC5        0.0000 
     34 CA         -4.9780   -9.7010    3.9670 C.3       8 GLP5        0.0000 
     35 CA         -4.5210   -5.1350    2.9920 C.3       4 GLC5        0.0000 
     36 CA         -5.5570   -3.6800    3.5510 C.3       8 GLP5        0.0000 
     37 CA         -1.0005   -8.3740    0.2540 C.3       4 GLC5        0.0000 
     38 CA         -2.9200   -8.1830   -0.2530 C.3      12 GLL5        0.0000 
     39 CA          0.9190   -8.5650    0.7610 C.3       8 GLP5        0.0000 
     40 CA         -4.4945   -7.3500   -0.3435 C.3       4 GLC5        0.0000 
     41 CA         -3.1195   -9.7960   -0.8635 C.3       4 GLC5        0.0000 
     42 CA         -3.3190  -11.4090   -1.4740 C.3       8 GLP5        0.0000 
     43 CA          2.6730   -6.3905   -3.0910 C.3       4 GLC5        0.0000 
     44 CA          0.5330   -5.7550   -3.3370 C.3      12 GLL5        0.0000 
     45 CA          4.8130   -7.0260   -2.8450 C.3       8 GLP5        0.0000 
     46 CA          0.8510   -6.2665   -1.3400 C.3       4 GLC5        0.0000 
     47 CA          1.1690   -6.7780    0.6570 C.3       8 GLP5        0.0000 
     48 N           2.2205   -4.1035   -3.9975 N.am      2 SEC2        0.0000 
     49 N           1.8240   -5.1980   -3.0690 N.am     10 SEL2        0.0000 
     50 N           2.7430   -4.9945   -4.4915 N.am      2 SEC2        0.0000 
     51 N           3.6620   -4.7910   -5.9140 N.am      6 SEP2        0.0000 
     52 O           1.9975   -4.6405   -1.8540 O.2       1 ALC1        0.0000 
     53 O           1.8240   -5.1980   -3.0690 O.2       9 ALL1        0.0000 
     54 O           2.1710   -4.0830   -0.6390 O.2       5 ALP1        0.0000 
     55 CA          2.4085   -7.4425   -3.4365 C.3       4 GLC5        0.0000 
     56 CA          0.6780   -6.6360   -4.5760 C.3      12 GLL5        0.0000 
     57 CA          4.1390   -8.2490   -2.2970 C.3       8 GLP5        0.0000 
     58 N           1.8865   -4.4350   -5.3065 N.am      2 SEC2        0.0000 
     59 N           1.1560   -5.8610   -5.6870 N.am     10 SEL2        0.0000 
     60 N           2.4090   -5.3260   -5.8005 N.am      2 SEC2        0.0000 
     61 O           0.1865   -4.9755   -6.1510 O.2       1 ALC1        0.0000 
     62 O           1.1560   -5.8610   -5.6870 O.2       9 ALL1        0.0000 
     63 O          -0.7830   -4.0900   -6.6150 O.2       5 ALP1        0.0000 
     64 CA         -1.3585   -8.4295   -8.1585 C.3       4 GLC5        0.0000 
     65 CA         -0.4520   -8.2930   -6.1100 C.3      12 GLL5        0.0000 
     66 CA         -2.2650   -8.5660  -10.2070 C.3       8 GLP5        0.0000 
     67 CA          0.1780   -9.1155   -7.6285 C.3       4 GLC5        0.0000 
     68 CA          0.8080   -9.9380   -9.1470 C.3       8 GLP5        0.0000 
     69 NZ         -2.3565  -10.7885   -3.8840 N.4       3 LYC4        0.0000 
     70 NZ         -0.9240  -10.6310   -3.9110 N.4      11 LYL4        0.0000 
     71 NZ         -4.5090  -10.5960   -4.9220 N.4       7 LYP4        0.0000 
     72 N          -0.6175  -11.1880   -2.6575 N.am      2 SEC2        0.0000 
     73 N          -0.9240  -10.6310   -3.9110 N.am     10 SEL2        0.0000 
     74 N          -0.3110  -11.7450   -1.4040 N.am      6 SEP2        0.0000 
     75 N          -2.3565  -10.7885   -3.8840 N.am      2 SEC2        0.0000 
     76 N          -3.7890  -10.9460   -3.8570 N.am      6 SEP2        0.0000 
     77 NZ         -2.5710  -10.7645   -6.1975 N.4       3 LYC4        0.0000 
     78 NZ         -1.2310  -11.2550   -6.3300 N.4      11 LYL4        0.0000 
     79 N          -0.7175  -11.6705   -7.5400 N.am      2 SEC2        0.0000 
     80 N          -1.2310  -11.2550   -6.3300 N.am     10 SEL2        0.0000 
     81 N          -0.2040  -12.0860   -8.7500 N.am      6 SEP2        0.0000 
     82 N          -2.5710  -10.7645   -6.1975 N.am      2 SEC2        0.0000 
     83 N          -3.9110  -10.2740   -6.0650 N.am      6 SEP2        0.0000 
     84 N           1.7130  -11.5755   -3.9765 N.am      2 SEC2        0.0000 
     85 N           0.9400  -11.7790   -5.1230 N.am     10 SEL2        0.0000 
     86 N           2.4860  -11.3720   -2.8300 N.am      6 SEP2        0.0000 
     87 CA         -0.5055   -4.3737    1.2820 C.3       4 GLC5        0.0000 
     88 CA          1.1350   -4.5470    1.8880 C.3       8 GLP5        0.0000 
     89 CA         -0.3956   -6.1463   -0.0941 C.3       4 GLC5        0.0000 
     90 CA         -2.0960   -6.0080   -1.1300 C.3      12 GLL5        0.0000 
@<TRIPOS>BOND
@<TRIPOS>SUBSTRUCTURE
     1 ALC1        6 GROUP        1 X    ALC  0     ROOT ALC X 1
     2 SEC2        1 GROUP        1 X    SEC  0     **** SEC X 2
     3 LYC4       69 GROUP        1 X    LYC  0     **** LYC X 4
     4 GLC5       17 GROUP        1 X    GLC  0     **** GLC X 6
     5 ALP1        8 GROUP        1 Y    ALP  0     ROOT ALP Y 8
     6 SEP2        3 GROUP        1 Y    SEP  0     **** SEP Y 9
     7 LYP4       71 GROUP        1 Y    LYP  0     **** LYP Y 11
     8 GLP5       19 GROUP        1 Y    GLP  0     **** GLP Y 13
     9 ALL1        7 GROUP        1 Z    ALL  0     ROOT ALL Z 15
    10 SEL2        2 GROUP        1 Z    SEL  0     **** SEL Z 16
    11 LYL4       70 GROUP        1 Z    LYL  0     **** LYL Z 18
    12 GLL5       18 GROUP        1 Z    GLL  0     **** GLL Z 20
@<TRIPOS>SET

