#    Name: 2gqa_FMN_1_ligand
#    Modification time : Tue Mar 25 14:56:33 2014

@<TRIPOS>MOLECULE
2gqa_FMN_1_ligand
   50    52     1     0     0
SMALL
NO_CHARGES


@<TRIPOS>ATOM
      1 N1          0.7280   -2.3550   -2.8370 N.2       1 FMN1401     0.0000 
      2 C2          1.5040   -1.2090   -2.5560 C.2       1 FMN1401     0.0000 
      3 O2          2.2360   -0.7240   -3.3660 O.2       1 FMN1401     0.0000 
      4 N3          1.4150   -0.6690   -1.2240 N.am      1 FMN1401     0.0000 
      5 C4          0.5440   -1.0590   -0.2510 C.2       1 FMN1401     0.0000 
      6 O4          0.6000   -0.5900    0.8660 O.2       1 FMN1401     0.0000 
      7 C4A        -0.4130   -2.1320   -0.6230 C.2       1 FMN1401     0.0000 
      8 N5         -1.3670   -2.5910    0.2730 N.2       1 FMN1401     0.0000 
      9 C5A        -1.8320   -3.8850    0.0840 C.ar      1 FMN1401     0.0000 
     10 C6         -2.4600   -4.5160    1.2680 C.ar      1 FMN1401     0.0000 
     11 C7         -2.8440   -5.9190    1.2230 C.ar      1 FMN1401     0.0000 
     12 C7M        -3.4850   -6.5900    2.4330 C.3       1 FMN1401     0.0000 
     13 C8         -2.5590   -6.6980    0.0430 C.ar      1 FMN1401     0.0000 
     14 C8M        -2.9200   -8.1830   -0.2530 C.3       1 FMN1401     0.0000 
     15 C9         -2.0960   -6.0080   -1.1300 C.ar      1 FMN1401     0.0000 
     16 C9A        -1.5930   -4.6760   -1.1470 C.ar      1 FMN1401     0.0000 
     17 N10        -0.7690   -4.0040   -2.1370 N.pl3     1 FMN1401     0.0000 
     18 C10        -0.1710   -2.7810   -1.9560 C.2       1 FMN1401     0.0000 
     19 C1'        -0.5660   -4.7060   -3.4680 C.3       1 FMN1401     0.0000 
     20 C2'         0.5330   -5.7550   -3.3370 C.3       1 FMN1401     0.0000 
     21 O2'         1.8240   -5.1980   -3.0690 O.3       1 FMN1401     0.0000 
     22 C3'         0.6780   -6.6360   -4.5760 C.3       1 FMN1401     0.0000 
     23 O3'         1.1560   -5.8610   -5.6870 O.3       1 FMN1401     0.0000 
     24 C4'        -0.6240   -7.3040   -4.9730 C.3       1 FMN1401     0.0000 
     25 O4'        -1.2840   -7.9410   -3.8340 O.3       1 FMN1401     0.0000 
     26 C5'        -0.4520   -8.2930   -6.1100 C.3       1 FMN1401     0.0000 
     27 O5'         0.3640   -9.4490   -5.7150 O.3       1 FMN1401     0.0000 
     28 P          -0.2790  -10.8220   -5.2340 P.3       1 FMN1401     0.0000 
     29 O1P        -0.9240  -10.6310   -3.9110 O.co2     1 FMN1401     0.0000 
     30 O2P        -1.2310  -11.2550   -6.3300 O.co2     1 FMN1401     0.0000 
     31 O3P         0.9400  -11.7790   -5.1230 O.co2     1 FMN1401     0.0000 
     32 H           2.1129    0.1130   -1.0057 H         1 FMN1401     0.0000 
     33 H          -2.6151   -3.9687    2.0921 H         1 FMN1401     0.0000 
     34 H          -2.1337   -6.5305   -2.0410 H         1 FMN1401     0.0000 
     35 H          -0.2797   -3.9791   -4.2221 H         1 FMN1401     0.0000 
     36 H          -1.4903   -5.1906   -3.7677 H         1 FMN1401     0.0000 
     37 H           0.2556   -6.4347   -2.5079 H         1 FMN1401     0.0000 
     38 H           1.3993   -7.4250   -4.3428 H         1 FMN1401     0.0000 
     39 H          -1.2982   -6.4989   -5.3533 H         1 FMN1401     0.0000 
     40 H           0.0122   -7.7691   -6.9606 H         1 FMN1401     0.0000 
     41 H          -1.4502   -8.6231   -6.4390 H         1 FMN1401     0.0000 
     42 H          -2.8859   -6.5632    3.2333 H         1 FMN1401     0.0000 
     43 H          -4.3421   -6.1455    2.6935 H         1 FMN1401     0.0000 
     44 H          -3.6953   -7.5515    2.2564 H         1 FMN1401     0.0000 
     45 H          -2.5971   -8.4711   -1.1545 H         1 FMN1401     0.0000 
     46 H          -2.5133   -8.8046    0.4165 H         1 FMN1401     0.0000 
     47 H          -3.9080   -8.3362   -0.2328 H         1 FMN1401     0.0000 
     48 H           1.7630   -4.8402   -2.1372 H         1 FMN1401     0.0000 
     49 H           0.3987   -5.2517   -5.9223 H         1 FMN1401     0.0000 
     50 H          -1.0651   -8.9131   -3.9186 H         1 FMN1401     0.0000 
@<TRIPOS>BOND
     1    2    1 1    
     2   18    1 2    
     3    3    2 2    
     4    4    2 am   
     5    5    4 am   
     6   32    4 1    
     7    6    5 2    
     8    7    5 1    
     9    8    7 2    
    10   18    7 1    
    11    9    8 1    
    12   10    9 ar   
    13   16    9 ar   
    14   11   10 ar   
    15   33   10 1    
    16   12   11 1    
    17   13   11 ar   
    18   42   12 1    
    19   43   12 1    
    20   44   12 1    
    21   14   13 1    
    22   15   13 ar   
    23   45   14 1    
    24   46   14 1    
    25   47   14 1    
    26   16   15 ar   
    27   34   15 1    
    28   17   16 1    
    29   18   17 1    
    30   19   17 1    
    31   20   19 1    
    32   35   19 1    
    33   36   19 1    
    34   21   20 1    
    35   22   20 1    
    36   37   20 1    
    37   48   21 1    
    38   23   22 1    
    39   24   22 1    
    40   38   22 1    
    41   49   23 1    
    42   25   24 1    
    43   26   24 1    
    44   39   24 1    
    45   50   25 1    
    46   27   26 1    
    47   40   26 1    
    48   41   26 1    
    49   28   27 1    
    50   29   28 ar   
    51   30   28 ar   
    52   31   28 ar   
@<TRIPOS>SUBSTRUCTURE
     1 FMN1401     1 GROUP   
@<TRIPOS>SET

