#    Name: 4iti_1HW_2_INTS_M
#    Modification time : Tue Mar 25 04:34:42 2014

@<TRIPOS>MOLECULE
4iti_1HW_2_INTS_M
   82     0     9     0     0
SMALL
NO_CHARGES


@<TRIPOS>ATOM
      1 CA         13.8955  -12.3535   -1.9550 C.3       3 GLC5        0.0000 
      2 CA         13.0720  -11.5090   -0.2290 C.3       9 GLL5        0.0000 
      3 CA         14.7190  -13.1980   -3.6810 C.3       6 GLP5        0.0000 
      4 CA         13.2235  -10.8150   -3.0675 C.3       3 GLC5        0.0000 
      5 CA         12.5520  -10.4340   -1.1040 C.3       9 GLL5        0.0000 
      6 CA         13.8950  -11.1960   -5.0310 C.3       6 GLP5        0.0000 
      7 CA         12.8845   -8.1025   -3.1380 C.3       3 GLC5        0.0000 
      8 CA         13.3540   -9.3460   -1.4120 C.3       9 GLL5        0.0000 
      9 CA         12.4150   -6.8590   -4.8640 C.3       6 GLP5        0.0000 
     10 CA          4.6705   -8.1955    5.2070 C.3       3 GLC5        0.0000 
     11 CA          6.3630   -8.9420    4.7890 C.3       9 GLL5        0.0000 
     12 CA          2.9780   -7.4490    5.6250 C.3       6 GLP5        0.0000 
     13 CA          4.7125  -11.6545    4.6980 C.3       3 GLC5        0.0000 
     14 CA          4.5770   -9.6750    3.8350 C.3       9 GLL5        0.0000 
     15 CA          4.8480  -13.6340    5.5610 C.3       6 GLP5        0.0000 
     16 CA          5.7030  -13.4510    3.8630 C.3       3 GLC5        0.0000 
     17 CA          6.5580  -13.2680    2.1650 C.3       9 GLL5        0.0000 
     18 CA          4.4905  -13.2810    1.9760 C.3       3 GLC5        0.0000 
     19 CA          2.4230  -13.2940    1.7870 C.3       6 GLP5        0.0000 
     20 N           5.9310   -9.6530   -2.0910 N.am      2 SEC2        0.0000 
     21 N           6.9920   -9.6260   -2.5840 N.am      8 SEL2        0.0000 
     22 N           4.8700   -9.6800   -1.5980 N.am      5 SEP2        0.0000 
     23 CA         10.5055   -7.5895   -4.2990 C.3       3 GLC5        0.0000 
     24 CA          8.5960   -8.3200   -3.7340 C.3       9 GLL5        0.0000 
     25 CA          8.9240   -9.9350   -4.5885 C.3       3 GLC5        0.0000 
     26 CA          9.2520  -11.5500   -5.4430 C.3       6 GLP5        0.0000 
     27 CA          9.1370   -6.3415   -3.5025 C.3       3 GLC5        0.0000 
     28 CA          9.6780   -4.3630   -3.2710 C.3       6 GLP5        0.0000 
     29 CA          9.2690   -7.2380   -1.9985 C.3       3 GLC5        0.0000 
     30 CA          9.9420   -6.1560   -0.2630 C.3       6 GLP5        0.0000 
     31 O           6.8045   -7.4740   -3.7075 O.2       1 ALC1        0.0000 
     32 O           7.5340   -8.0650   -4.6550 O.2       7 ALL1        0.0000 
     33 O           6.0750   -6.8830   -2.7600 O.2       4 ALP1        0.0000 
     34 CA         16.8135   -7.3890   -1.1825 C.3       3 GLC5        0.0000 
     35 CA         14.8850   -7.1140   -1.9300 C.3       9 GLL5        0.0000 
     36 CA         18.7420   -7.6640   -0.4350 C.3       6 GLP5        0.0000 
     37 CA         15.4210   -9.0835   -2.8100 C.3       3 GLC5        0.0000 
     38 CA         15.9570  -11.0530   -3.6900 C.3       6 GLP5        0.0000 
     39 CA         14.8075   -7.3890   -3.6925 C.3       3 GLC5        0.0000 
     40 CA         14.7300   -7.6640   -5.4550 C.3       6 GLP5        0.0000 
     41 CA         13.3820   -6.8450   -0.4185 C.3       3 GLC5        0.0000 
     42 CA         11.8790   -6.5760    1.0930 C.3       6 GLP5        0.0000 
     43 CA         15.7435   -5.5685   -2.3180 C.3       3 GLC5        0.0000 
     44 CA         16.6020   -4.0230   -2.7060 C.3       6 GLP5        0.0000 
     45 CA         13.9183  -10.0852    1.5175 C.3       3 GLC5        0.0000 
     46 CA         14.3630  -11.4020    0.2610 C.3       9 GLL5        0.0000 
     47 CA         14.1190   -8.7150    3.0190 C.3       6 GLP5        0.0000 
     48 CA         15.5720  -11.8285    1.3430 C.3       3 GLC5        0.0000 
     49 CA         16.3940  -12.8090    2.5920 C.3       6 GLP5        0.0000 
     50 CA         15.3535  -10.9505   -1.7980 C.3       3 GLC5        0.0000 
     51 CA         14.9772  -10.1840   -2.4215 C.3       3 GLC5        0.0000 
     52 CA         14.6410   -9.2840   -0.8940 C.3       9 GLL5        0.0000 
     53 CA         16.4195   -8.7205    0.1903 C.3       3 GLC5        0.0000 
     54 CA         17.9500   -7.6520    0.8640 C.3       6 GLP5        0.0000 
     55 CA         14.5040   -9.2520    1.2677 C.3       3 GLC5        0.0000 
     56 CA         15.1370  -10.2940   -0.0730 C.3       9 GLL5        0.0000 
     57 CA          9.4645  -11.5998   -3.4950 C.3       3 GLC5        0.0000 
     58 CA          8.9470  -11.4470   -1.6460 C.3       9 GLL5        0.0000 
     59 CA          7.0220   -8.8665    5.9028 C.3       3 GLC5        0.0000 
     60 CA          5.8690   -9.4580    3.6820 C.3       9 GLL5        0.0000 
     61 CA          7.9280   -8.5330    7.5700 C.3       6 GLP5        0.0000 
     62 CA          5.7415   -8.3998    1.4945 C.3       3 GLC5        0.0000 
     63 CA          5.5190   -7.7600   -0.1930 C.3       6 GLP5        0.0000 
     64 CA          6.3258   -7.2893    3.9049 C.3       3 GLC5        0.0000 
     65 CA          6.0590   -8.6210    2.6820 C.3       9 GLL5        0.0000 
     66 CA          6.5640   -5.6680    4.3510 C.3       6 GLP5        0.0000 
     67 CA          3.9158   -9.4761    3.1528 C.3       3 GLC5        0.0000 
     68 CA          2.5610   -9.5950    2.7970 C.3       6 GLP5        0.0000 
     69 CA          6.4635   -9.0525    0.8257 C.3       3 GLC5        0.0000 
     70 CA          7.1130  -10.8770    2.1770 C.3       9 GLL5        0.0000 
     71 CA          6.7657  -14.4498    2.4992 C.3       3 GLC5        0.0000 
     72 CA          7.1230  -12.2170    1.5460 C.3       9 GLL5        0.0000 
     73 CA          6.6910  -16.1570    3.1430 C.3       6 GLP5        0.0000 
     74 CA          8.0808  -12.9857   -1.5183 C.3       3 GLC5        0.0000 
     75 CA          7.7250  -12.3730    0.3040 C.3       9 GLL5        0.0000 
     76 CA          8.1460  -14.1460   -3.0270 C.3       6 GLP5        0.0000 
     77 CA          6.9097   -9.2040   -0.1095 C.3       3 GLC5        0.0000 
     78 CA          8.3060  -11.2780   -0.3230 C.3       9 GLL5        0.0000 
     79 CA          6.0270  -11.8902   -0.7145 C.3       3 GLC5        0.0000 
     80 CA          4.1890  -11.9940   -1.7300 C.3       6 GLP5        0.0000 
     81 CA          9.1705  -13.0794   -1.9130 C.3       3 GLC5        0.0000 
     82 CA         10.4070  -11.8520   -1.4480 C.3       9 GLL5        0.0000 
@<TRIPOS>BOND
@<TRIPOS>SUBSTRUCTURE
     1 ALC1       31 GROUP        1 X    ALC  0     ROOT ALC X 1
     2 SEC2       20 GROUP        1 X    SEC  0     **** SEC X 2
     3 GLC5        1 GROUP        1 X    GLC  0     **** GLC X 6
     4 ALP1       33 GROUP        1 Y    ALP  0     ROOT ALP Y 8
     5 SEP2       22 GROUP        1 Y    SEP  0     **** SEP Y 9
     6 GLP5        3 GROUP        1 Y    GLP  0     **** GLP Y 13
     7 ALL1       32 GROUP        1 Z    ALL  0     ROOT ALL Z 15
     8 SEL2       21 GROUP        1 Z    SEL  0     **** SEL Z 16
     9 GLL5        2 GROUP        1 Z    GLL  0     **** GLL Z 20
@<TRIPOS>SET

