#    Name: 4iti_1HW_2_ligand
#    Modification time : Tue Mar 25 04:34:42 2014

@<TRIPOS>MOLECULE
4iti_1HW_2_ligand
   49    52     1     0     0
SMALL
NO_CHARGES


@<TRIPOS>ATOM
      1 C1         14.3630  -11.4020    0.2610 C.ar      1 1HW301      0.0000 
      2 C2         13.0720  -11.5090   -0.2290 C.ar      1 1HW301      0.0000 
      3 C3         12.5520  -10.4340   -1.1040 C.ar      1 1HW301      0.0000 
      4 C4         13.3540   -9.3460   -1.4120 C.ar      1 1HW301      0.0000 
      5 C5         14.6410   -9.2840   -0.8940 C.ar      1 1HW301      0.0000 
      6 C10        11.1600  -10.5710   -1.6180 C.2       1 1HW301      0.0000 
      7 C11         8.9470  -11.4470   -1.6460 C.3       1 1HW301      0.0000 
      8 C6         15.1370  -10.2940   -0.0730 C.ar      1 1HW301      0.0000 
      9 C7         12.1990  -12.7010    0.1100 C.3       1 1HW301      0.0000 
     10 C9         10.4070  -11.8520   -1.4480 C.3       1 1HW301      0.0000 
     11 F31         6.3630   -8.9420    4.7890 F         1 1HW301      0.0000 
     12 C28         5.8690   -9.4580    3.6820 C.3       1 1HW301      0.0000 
     13 F29         6.0590   -8.6210    2.6820 F         1 1HW301      0.0000 
     14 F30         4.5770   -9.6750    3.8350 F         1 1HW301      0.0000 
     15 O27         6.5250  -10.6900    3.4000 O.3       1 1HW301      0.0000 
     16 C17         7.1130  -10.8770    2.1770 C.ar      1 1HW301      0.0000 
     17 C16         7.1230  -12.2170    1.5460 C.ar      1 1HW301      0.0000 
     18 F26         6.5580  -13.2680    2.1650 F         1 1HW301      0.0000 
     19 C15         7.7250  -12.3730    0.3040 C.ar      1 1HW301      0.0000 
     20 C18         7.7030   -9.8130    1.5120 C.ar      1 1HW301      0.0000 
     21 C19         8.2950  -10.0180    0.2710 C.ar      1 1HW301      0.0000 
     22 C14         8.3060  -11.2780   -0.3230 C.ar      1 1HW301      0.0000 
     23 C8         10.7130  -12.3760   -0.0510 C.3       1 1HW301      0.0000 
     24 N12         9.1470  -10.1310   -2.2380 N.am      1 1HW301      0.0000 
     25 C20         8.1750   -9.4210   -2.7960 C.2       1 1HW301      0.0000 
     26 O23         6.9920   -9.6260   -2.5840 O.2       1 1HW301      0.0000 
     27 C21         8.5960   -8.3200   -3.7340 C.3       1 1HW301      0.0000 
     28 O22         7.5340   -8.0650   -4.6550 O.3       1 1HW301      0.0000 
     29 N13        10.4750   -9.6790   -2.1690 N.2       1 1HW301      0.0000 
     30 O24        15.4310   -8.2080   -1.1990 O.3       1 1HW301      0.0000 
     31 C25        14.8850   -7.1140   -1.9300 C.3       1 1HW301      0.0000 
     32 H          14.7502  -12.1341    0.8675 H         1 1HW301      0.0000 
     33 H          13.0026   -8.5962   -2.0143 H         1 1HW301      0.0000 
     34 H           8.4813  -12.0929   -2.2705 H         1 1HW301      0.0000 
     35 H          16.1031  -10.2188    0.2970 H         1 1HW301      0.0000 
     36 H          12.3854  -13.0077    1.1428 H         1 1HW301      0.0000 
     37 H          12.4526  -13.5375   -0.5469 H         1 1HW301      0.0000 
     38 H          10.7000  -12.5330   -2.1876 H         1 1HW301      0.0000 
     39 H           7.7406  -13.2945   -0.1492 H         1 1HW301      0.0000 
     40 H           7.7035   -8.8761    1.9333 H         1 1HW301      0.0000 
     41 H           8.7361   -9.2205   -0.2218 H         1 1HW301      0.0000 
     42 H          10.4302  -11.6236    0.6874 H         1 1HW301      0.0000 
     43 H          10.1282  -13.2791    0.1325 H         1 1HW301      0.0000 
     44 H           9.5079   -8.6366   -4.2504 H         1 1HW301      0.0000 
     45 H           8.8336   -7.4321   -3.1393 H         1 1HW301      0.0000 
     46 H          15.5642   -6.3974   -2.0886 H         1 1HW301      0.0000 
     47 H          14.5448   -7.3990   -2.8261 H         1 1HW301      0.0000 
     48 H          14.1189   -6.6900   -1.4470 H         1 1HW301      0.0000 
     49 H           7.1144   -7.2148   -4.3370 H         1 1HW301      0.0000 
@<TRIPOS>BOND
     1    2    1 ar   
     2    8    1 ar   
     3   32    1 1    
     4    3    2 ar   
     5    9    2 1    
     6    4    3 ar   
     7    6    3 1    
     8    5    4 ar   
     9   33    4 1    
    10    8    5 ar   
    11   30    5 1    
    12   10    6 1    
    13   29    6 2    
    14   10    7 1    
    15   22    7 1    
    16   24    7 1    
    17   34    7 1    
    18   35    8 1    
    19   23    9 1    
    20   36    9 1    
    21   37    9 1    
    22   23   10 1    
    23   38   10 1    
    24   12   11 1    
    25   13   12 1    
    26   14   12 1    
    27   15   12 1    
    28   16   15 1    
    29   17   16 ar   
    30   20   16 ar   
    31   18   17 1    
    32   19   17 ar   
    33   22   19 ar   
    34   39   19 1    
    35   21   20 ar   
    36   40   20 1    
    37   22   21 ar   
    38   41   21 1    
    39   42   23 1    
    40   43   23 1    
    41   25   24 am   
    42   29   24 1    
    43   26   25 2    
    44   27   25 1    
    45   28   27 1    
    46   44   27 1    
    47   45   27 1    
    48   49   28 1    
    49   31   30 1    
    50   46   31 1    
    51   47   31 1    
    52   48   31 1    
@<TRIPOS>SUBSTRUCTURE
     1 1HW301      1 GROUP   
@<TRIPOS>SET

