#    Name: 3sb0_I93_1_INTS_M
#    Modification time : Mon Apr  7 22:14:08 2014

@<TRIPOS>MOLECULE
3sb0_I93_1_INTS_M
   53     0     9     0     0
SMALL
NO_CHARGES


@<TRIPOS>ATOM
      1 CA         31.7090   75.4300   58.5715 C.3       3 GLC5        0.0000 
      2 CA         30.9260   75.4860   60.6540 C.3       9 GLL5        0.0000 
      3 CA         32.4920   75.3740   56.4890 C.3       6 GLP5        0.0000 
      4 CA         33.7585   74.2095   65.0255 C.3       3 GLC5        0.0000 
      5 CA         33.8640   74.7240   62.9780 C.3       9 GLL5        0.0000 
      6 CA         33.6530   73.6950   67.0730 C.3       6 GLP5        0.0000 
      7 CA         37.8625   76.2605   62.8565 C.3       3 GLC5        0.0000 
      8 CA         35.8160   75.9680   63.5570 C.3       9 GLL5        0.0000 
      9 CA         39.9090   76.5530   62.1560 C.3       6 GLP5        0.0000 
     10 CA         36.8170   74.1825   64.2450 C.3       3 GLC5        0.0000 
     11 CA         37.8180   72.3970   64.9330 C.3       6 GLP5        0.0000 
     12 N          35.4740   80.0030   59.9445 N.am      1 SEC2        0.0000 
     13 N          35.3740   78.5240   60.6950 N.am      7 SEL2        0.0000 
     14 N          35.5740   81.4820   59.1940 N.am      4 SEP2        0.0000 
     15 N          35.0875   79.0820   59.3950 N.am      1 SEC2        0.0000 
     16 N          34.8010   79.6400   58.0950 N.am      4 SEP2        0.0000 
     17 CA         36.4405   77.4370   64.6075 C.3       3 GLC5        0.0000 
     18 CA         35.9200   78.6940   62.9530 C.3       9 GLL5        0.0000 
     19 CA         36.9610   76.1800   66.2620 C.3       6 GLP5        0.0000 
     20 CA         34.7140   80.2465   62.5255 C.3       3 GLC5        0.0000 
     21 CA         33.5080   81.7990   62.0980 C.3       6 GLP5        0.0000 
     22 Zn         37.8330   80.5825   61.4545 Zn        2 ZIC7        0.0000 
     23 Zn         36.7470   80.5560   61.7230 Zn        8 ZIL7        0.0000 
     24 Zn         38.9190   80.6090   61.1860 Zn        5 ZIP7        0.0000 
     25 N          36.1605   81.0190   60.4585 N.am      1 SEC2        0.0000 
     26 N          36.7470   80.5560   61.7230 N.am      7 SEL2        0.0000 
     27 N          38.7615   79.4295   66.0195 N.am      1 SEC2        0.0000 
     28 N          37.6960   79.7370   65.1020 N.am      7 SEL2        0.0000 
     29 N          39.8270   79.1220   66.9370 N.am      4 SEP2        0.0000 
     30 Zn         38.9775   80.3175   62.3145 Zn        2 ZIC7        0.0000 
     31 Zn         39.0360   80.0260   63.4430 Zn        8 ZIL7        0.0000 
     32 N          40.2390   79.4910   63.9985 N.am      1 SEC2        0.0000 
     33 N          39.0360   80.0260   63.4430 N.am      7 SEL2        0.0000 
     34 N          41.4420   78.9560   64.5540 N.am      4 SEP2        0.0000 
     35 CA         31.4685   79.0325   59.7560 C.3       3 GLC5        0.0000 
     36 CA         32.5670   78.0730   60.3070 C.3       9 GLL5        0.0000 
     37 CA         30.3700   79.9920   59.2050 C.3       6 GLP5        0.0000 
     38 CA         33.0375   79.9360   61.2025 C.3       3 GLC5        0.0000 
     39 CA         30.8722   76.8440   62.2747 C.3       3 GLC5        0.0000 
     40 CA         32.2210   75.6340   61.3950 C.3       9 GLL5        0.0000 
     41 CA         30.1710   78.1280   63.5250 C.3       6 GLP5        0.0000 
     42 CA         32.4080   75.7537   64.0960 C.3       3 GLC5        0.0000 
     43 CA         32.6740   74.6150   62.2560 C.3       9 GLL5        0.0000 
     44 CA         31.5470   76.8380   65.5750 C.3       6 GLP5        0.0000 
     45 CA         31.3644   73.3667   62.0106 C.3       3 GLC5        0.0000 
     46 CA         30.6050   71.6460   62.3810 C.3       6 GLP5        0.0000 
     47 CA         36.0990   76.0528   64.7353 C.3       3 GLC5        0.0000 
     48 CA         34.6580   75.8830   62.8600 C.3       9 GLL5        0.0000 
     49 CA         33.0000   76.6238   64.0060 C.3       3 GLC5        0.0000 
     50 CA         34.7668   74.3601   61.0373 C.3       3 GLC5        0.0000 
     51 CA         35.5700   73.4440   59.3360 C.3       6 GLP5        0.0000 
     52 CA         31.4877   77.7767   62.1638 C.3       3 GLC5        0.0000 
     53 CA         33.0420   76.7780   61.2980 C.3       9 GLL5        0.0000 
@<TRIPOS>BOND
@<TRIPOS>SUBSTRUCTURE
     1 SEC2       12 GROUP        1 X    SEC  0     ROOT SEC X 2
     2 ZIC7       22 GROUP        1 X    ZIC  0     **** ZIC X 5
     3 GLC5        1 GROUP        1 X    GLC  0     **** GLC X 6
     4 SEP2       14 GROUP        1 Y    SEP  0     ROOT SEP Y 9
     5 ZIP7       24 GROUP        1 Y    ZIP  0     **** ZIP Y 12
     6 GLP5        3 GROUP        1 Y    GLP  0     **** GLP Y 13
     7 SEL2       13 GROUP        1 Z    SEL  0     ROOT SEL Z 16
     8 ZIL7       23 GROUP        1 Z    ZIL  0     **** ZIL Z 19
     9 GLL5        2 GROUP        1 Z    GLL  0     **** GLL Z 20
@<TRIPOS>SET

