#    Name: 3sb0_I93_1_ligand
#    Modification time : Mon Apr  7 22:14:08 2014

@<TRIPOS>MOLECULE
3sb0_I93_1_ligand
   24    24     1     0     0
SMALL
NO_CHARGES


@<TRIPOS>ATOM
      1 C01        30.9260   75.4860   60.6540 C.3       1 I93802      0.0000 
      2 C02        32.2210   75.6340   61.3950 C.ar      1 I93802      0.0000 
      3 C03        32.6740   74.6150   62.2560 C.ar      1 I93802      0.0000 
      4 C04        33.8640   74.7240   62.9780 C.ar      1 I93802      0.0000 
      5 C05        34.6580   75.8830   62.8600 C.ar      1 I93802      0.0000 
      6 F06        35.8160   75.9680   63.5570 F         1 I93802      0.0000 
      7 C07        34.2480   76.9360   62.0140 C.ar      1 I93802      0.0000 
      8 C08        35.0950   78.1710   61.8500 C.2       1 I93802      0.0000 
      9 O09        35.3740   78.5240   60.6950 O.2       1 I93802      0.0000 
     10 C10        35.9200   78.6940   62.9530 C.3       1 I93802      0.0000 
     11 C11        36.7470   79.7680   62.8430 C.2       1 I93802      0.0000 
     12 O12        36.7470   80.5560   61.7230 O.2       1 I93802      0.0000 
     13 C13        37.8540   80.0620   63.7940 C.2       1 I93802      0.0000 
     14 O14        37.6960   79.7370   65.1020 O.co2     1 I93802      0.0000 
     15 O15        39.0360   80.0260   63.4430 O.co2     1 I93802      0.0000 
     16 C16        33.0420   76.7780   61.2980 C.ar      1 I93802      0.0000 
     17 CL17       32.5670   78.0730   60.3070 Cl        1 I93802      0.0000 
     18 H          32.0983   73.7540   62.3535 H         1 I93802      0.0000 
     19 H          34.1658   73.9644   63.5958 H         1 I93802      0.0000 
     20 H          36.5127   77.7722   63.3725 H         1 I93802      0.0000 
     21 H          35.1865   78.8430   63.8568 H         1 I93802      0.0000 
     22 H          30.7300   76.2850   60.0854 H         1 I93802      0.0000 
     23 H          30.9334   74.6901   60.0486 H         1 I93802      0.0000 
     24 H          30.1523   75.3730   61.2773 H         1 I93802      0.0000 
@<TRIPOS>BOND
     1    2    1 1    
     2   22    1 1    
     3   23    1 1    
     4   24    1 1    
     5    3    2 ar   
     6   16    2 ar   
     7    4    3 ar   
     8   18    3 1    
     9    5    4 ar   
    10   19    4 1    
    11    6    5 1    
    12    7    5 ar   
    13    8    7 1    
    14   16    7 ar   
    15    9    8 2    
    16   10    8 1    
    17   11   10 1    
    18   20   10 1    
    19   21   10 1    
    20   12   11 2    
    21   13   11 1    
    22   14   13 ar   
    23   15   13 ar   
    24   17   16 1    
@<TRIPOS>SUBSTRUCTURE
     1 I93802      1 GROUP   
@<TRIPOS>SET

