#    Name: 3tsk_QEG_1_INTS_M
#    Modification time : Mon Mar 24 20:53:05 2014

@<TRIPOS>MOLECULE
3tsk_QEG_1_INTS_M
   73     0     9     0     0
SMALL
NO_CHARGES


@<TRIPOS>ATOM
      1 N          10.9700   26.1250    5.2150 N.am      2 SEC2        0.0000 
      2 N           9.7400   26.2240    4.4400 N.am      8 SEL2        0.0000 
      3 N          12.2000   26.0260    5.9900 N.am      5 SEP2        0.0000 
      4 CA          2.8670   20.5810    9.3070 C.3       3 GLC5        0.0000 
      5 CA          2.4460   22.3030    8.4120 C.3       9 GLL5        0.0000 
      6 CA          3.2880   18.8590   10.2020 C.3       6 GLP5        0.0000 
      7 CA          5.8305   20.9065    6.9920 C.3       3 GLC5        0.0000 
      8 CA          4.8770   22.7090    6.7400 C.3       9 GLL5        0.0000 
      9 CA          6.7840   19.1040    7.2440 C.3       6 GLP5        0.0000 
     10 CA         -0.1295   21.9120    5.2495 C.3       3 GLC5        0.0000 
     11 CA          1.0410   22.9600    6.6160 C.3       9 GLL5        0.0000 
     12 CA         -1.3000   20.8640    3.8830 C.3       6 GLP5        0.0000 
     13 CA          0.1240   20.8005    6.3895 C.3       3 GLC5        0.0000 
     14 CA          0.2250   22.4620    7.6840 C.3       9 GLL5        0.0000 
     15 CA          0.0230   19.1390    5.0950 C.3       6 GLP5        0.0000 
     16 CA         -1.2695   21.6405    5.8170 C.3       3 GLC5        0.0000 
     17 CA         -1.2390   22.4170    7.7510 C.3       9 GLL5        0.0000 
     18 CA         -0.9135   20.2120    6.6385 C.3       3 GLC5        0.0000 
     19 CA         -1.8500   21.2850    8.1820 C.3       9 GLL5        0.0000 
     20 CA         -2.0120   20.5925    9.9465 C.3       3 GLC5        0.0000 
     21 CA         -2.1740   19.9000   11.7110 C.3       6 GLP5        0.0000 
     22 CA         -3.4580   24.9875    8.9850 C.3       3 GLC5        0.0000 
     23 CA         -3.3530   23.4680    7.5780 C.3       9 GLL5        0.0000 
     24 CA         -3.5630   26.5070   10.3920 C.3       6 GLP5        0.0000 
     25 CA          1.2890   20.8720   10.4205 C.3       3 GLC5        0.0000 
     26 CA          0.8590   22.0460    8.8030 C.3       9 GLL5        0.0000 
     27 CA          1.7190   19.6980   12.0380 C.3       6 GLP5        0.0000 
     28 O           6.4380   27.4275    4.0115 O.2       1 ALC1        0.0000 
     29 O           7.8800   27.3640    4.8260 O.2       7 ALL1        0.0000 
     30 O           4.9960   27.4910    3.1970 O.2       4 ALP1        0.0000 
     31 CA         10.6335   28.3335    5.1740 C.3       3 GLC5        0.0000 
     32 CA          8.4140   28.5690    5.4320 C.3       9 GLL5        0.0000 
     33 CA         12.8530   28.0980    4.9160 C.3       6 GLP5        0.0000 
     34 CA          9.4435   27.2060    6.8840 C.3       3 GLC5        0.0000 
     35 CA         10.4730   25.8430    8.3360 C.3       6 GLP5        0.0000 
     36 N           5.3920   27.6355    7.2605 N.am      2 SEC2        0.0000 
     37 N           6.6890   28.3540    7.1000 N.am      8 SEL2        0.0000 
     38 N           4.0950   26.9170    7.4210 N.am      5 SEP2        0.0000 
     39 CA         10.7975   29.7175    3.0220 C.3       3 GLC5        0.0000 
     40 CA          9.5000   30.5670    4.1040 C.3       9 GLL5        0.0000 
     41 CA         12.0950   28.8680    1.9400 C.3       6 GLP5        0.0000 
     42 O           9.9155   29.3415    7.3195 O.2       1 ALC1        0.0000 
     43 O           8.4220   29.5400    7.6470 O.2       7 ALL1        0.0000 
     44 O          11.4090   29.1430    6.9920 O.2       4 ALP1        0.0000 
     45 CA          3.1910   24.2600    8.0225 C.3       3 GLC5        0.0000 
     46 CA          2.3880   22.9330    6.8600 C.3       9 GLL5        0.0000 
     47 CA          3.9650   25.9020    8.4090 C.3       6 GLP5        0.0000 
     48 CA          1.5377   23.8948    9.8928 C.3       3 GLC5        0.0000 
     49 CA          1.4230   25.6150   11.1780 C.3       6 GLP5        0.0000 
     50 CA          6.1695   22.8390    3.3347 C.3       3 GLC5        0.0000 
     51 CA          7.6830   23.8750    4.5200 C.3       9 GLL5        0.0000 
     52 CA          5.3460   21.9100    1.8690 C.3       6 GLP5        0.0000 
     53 CA          4.4315   22.7713    3.7105 C.3       3 GLC5        0.0000 
     54 CA          5.1640   24.2160    4.5080 C.3       9 GLL5        0.0000 
     55 CA          4.3340   21.4330    2.6420 C.3       6 GLP5        0.0000 
     56 CA          4.0150   26.1483    5.1250 C.3       3 GLC5        0.0000 
     57 CA          3.5010   28.1870    5.4710 C.3       6 GLP5        0.0000 
     58 CA          4.0455   24.7871    6.9473 C.3       3 GLC5        0.0000 
     59 CA          3.7230   23.2350    6.1920 C.3       9 GLL5        0.0000 
     60 CA         -1.3702   24.3540    9.1015 C.3       3 GLC5        0.0000 
     61 CA         -1.1280   25.7350   10.5920 C.3       6 GLP5        0.0000 
     62 CA         -3.4377   21.9842   10.0237 C.3       3 GLC5        0.0000 
     63 CA         -3.9630   22.3130    7.9830 C.3       9 GLL5        0.0000 
     64 CA         -3.2870   22.2060   11.9180 C.3       6 GLP5        0.0000 
     65 CA         -5.1480   23.6812    6.5998 C.3       3 GLC5        0.0000 
     66 CA         -6.6380   24.4720    5.4190 C.3       6 GLP5        0.0000 
     67 CA          5.6386   24.3569    7.3281 C.3       3 GLC5        0.0000 
     68 CA          5.3710   25.4790    8.8760 C.3       6 GLP5        0.0000 
     69 CA          7.6773   21.8920    6.1494 C.3       3 GLC5        0.0000 
     70 CA          6.1420   22.9080    6.2190 C.3       9 GLL5        0.0000 
     71 CA          8.7870   20.4460    6.7890 C.3       6 GLP5        0.0000 
     72 CA          4.7400   21.5920    4.9518 C.3       3 GLC5        0.0000 
     73 CA          4.2590   20.2440    3.5610 C.3       6 GLP5        0.0000 
@<TRIPOS>BOND
@<TRIPOS>SUBSTRUCTURE
     1 ALC1       28 GROUP        1 X    ALC  0     ROOT ALC X 1
     2 SEC2        1 GROUP        1 X    SEC  0     **** SEC X 2
     3 GLC5        4 GROUP        1 X    GLC  0     **** GLC X 6
     4 ALP1       30 GROUP        1 Y    ALP  0     ROOT ALP Y 8
     5 SEP2        3 GROUP        1 Y    SEP  0     **** SEP Y 9
     6 GLP5        6 GROUP        1 Y    GLP  0     **** GLP Y 13
     7 ALL1       29 GROUP        1 Z    ALL  0     ROOT ALL Z 15
     8 SEL2        2 GROUP        1 Z    SEL  0     **** SEL Z 16
     9 GLL5        5 GROUP        1 Z    GLL  0     **** GLL Z 20
@<TRIPOS>SET

