#    Name: 3tsk_QEG_1_ligand
#    Modification time : Mon Mar 24 20:53:05 2014

@<TRIPOS>MOLECULE
3tsk_QEG_1_ligand
   71    73     1     0     0
SMALL
NO_CHARGES


@<TRIPOS>ATOM
      1 O2          9.7400   26.2240    4.4400 O.2       1 QEG306      0.0000 
      2 S7          2.4460   22.3030    8.4120 S.3       1 QEG306      0.0000 
      3 C11         8.5610   26.3170    4.3850 C.2       1 QEG306      0.0000 
      4 C12         7.7730   25.1900    3.7690 C.3       1 QEG306      0.0000 
      5 C13         7.6830   23.8750    4.5200 C.3       1 QEG306      0.0000 
      6 C14         5.1640   24.2160    4.5080 C.ar      1 QEG306      0.0000 
      7 C15         4.8770   22.7090    6.7400 C.ar      1 QEG306      0.0000 
      8 C16         3.7230   23.2350    6.1920 C.ar      1 QEG306      0.0000 
      9 C17         3.8940   24.0030    5.0500 C.ar      1 QEG306      0.0000 
     10 C18         2.3880   22.9330    6.8600 C.2       1 QEG306      0.0000 
     11 C19         1.0410   22.9600    6.6160 C.2       1 QEG306      0.0000 
     12 C20         0.2250   22.4620    7.6840 C.2       1 QEG306      0.0000 
     13 C21        -1.2390   22.4170    7.7510 C.ar      1 QEG306      0.0000 
     14 C22        -1.8500   21.2850    8.1820 C.ar      1 QEG306      0.0000 
     15 C23        -3.2140   21.2120    8.2760 C.ar      1 QEG306      0.0000 
     16 C24        -3.9630   22.3130    7.9830 C.ar      1 QEG306      0.0000 
     17 C25        -3.3530   23.4680    7.5780 C.ar      1 QEG306      0.0000 
     18 C26        -1.9860   23.5290    7.4710 C.ar      1 QEG306      0.0000 
     19 C27         6.3030   23.6610    5.0810 C.ar      1 QEG306      0.0000 
     20 C28         6.1420   22.9080    6.2190 C.ar      1 QEG306      0.0000 
     21 C29         0.8590   22.0460    8.8030 C.2       1 QEG306      0.0000 
     22 N2          7.8800   27.3640    4.8260 N.am      1 QEG306      0.0000 
     23 C7          8.4140   28.5690    5.4320 C.3       1 QEG306      0.0000 
     24 C6          7.7580   28.8110    6.7840 C.2       1 QEG306      0.0000 
     25 O1          6.6890   28.3540    7.1000 O.2       1 QEG306      0.0000 
     26 C8          8.2420   29.7180    4.4090 C.3       1 QEG306      0.0000 
     27 C9          9.5000   30.5670    4.1040 C.3       1 QEG306      0.0000 
     28 C10         9.5690   31.4830    2.8770 C.2       1 QEG306      0.0000 
     29 O4E         8.8960   31.3830    1.8950 O.2       1 QEG306      0.0000 
     30 N4         10.4770   32.4300    2.9030 N.am      1 QEG306      0.0000 
     31 N1          8.4220   29.5400    7.6470 N.am      1 QEG306      0.0000 
     32 C2          7.8550   29.7800    8.9520 C.3       1 QEG306      0.0000 
     33 C1          6.5850   30.5830    8.9020 C.2       1 QEG306      0.0000 
     34 O9          6.4480   31.5120    8.1780 O.2       1 QEG306      0.0000 
     35 C3          8.8210   30.4380    9.8880 C.3       1 QEG306      0.0000 
     36 C4          8.9700   29.8870   11.2870 C.3       1 QEG306      0.0000 
     37 C5          9.8300   30.4360   12.3560 C.2       1 QEG306      0.0000 
     38 O8E         9.8160   29.8460   13.4300 O.co2     1 QEG306      0.0000 
     39 O8         10.5260   31.4550   12.2140 O.co2     1 QEG306      0.0000 
     40 N9          5.6170   30.1980    9.6890 N.am      1 QEG306      0.0000 
     41 H           8.1868   24.9814    2.7424 H         1 QEG306      0.0000 
     42 H           6.7258   25.5523    3.5668 H         1 QEG306      0.0000 
     43 H           8.4139   23.8767    5.3343 H         1 QEG306      0.0000 
     44 H           7.9334   23.0558    3.8392 H         1 QEG306      0.0000 
     45 H           5.2566   24.8033    3.6567 H         1 QEG306      0.0000 
     46 H           4.7874   22.1163    7.6138 H         1 QEG306      0.0000 
     47 H           3.0702   24.4273    4.5883 H         1 QEG306      0.0000 
     48 H           0.6312   23.2911    5.7786 H         1 QEG306      0.0000 
     49 H          -1.2762   20.4537    8.4474 H         1 QEG306      0.0000 
     50 H          -3.6678   20.3320    8.5657 H         1 QEG306      0.0000 
     51 H          -4.9959   22.2764    8.0667 H         1 QEG306      0.0000 
     52 H          -3.9243   24.3033    7.3500 H         1 QEG306      0.0000 
     53 H          -1.5274   24.4061    7.1819 H         1 QEG306      0.0000 
     54 H           6.9612   22.4903    6.6866 H         1 QEG306      0.0000 
     55 H           0.6709   21.7149    9.5885 H         1 QEG306      0.0000 
     56 H           6.8002   27.3660    4.7463 H         1 QEG306      0.0000 
     57 H           9.4912   28.4359    5.5865 H         1 QEG306      0.0000 
     58 H           7.4409   30.3948    4.7720 H         1 QEG306      0.0000 
     59 H           7.8692   29.2876    3.4565 H         1 QEG306      0.0000 
     60 H          10.3873   29.8607    4.0663 H         1 QEG306      0.0000 
     61 H           9.7198   31.1938    5.0240 H         1 QEG306      0.0000 
     62 H          10.5541   32.9885    2.0771 H         1 QEG306      0.0000 
     63 H          11.0089   32.5066    3.7463 H         1 QEG306      0.0000 
     64 H           9.3408   29.9631    7.4547 H         1 QEG306      0.0000 
     65 H           7.5863   28.7983    9.4164 H         1 QEG306      0.0000 
     66 H           8.5577   31.5336    9.9678 H         1 QEG306      0.0000 
     67 H           9.8417   30.4501    9.4043 H         1 QEG306      0.0000 
     68 H           9.2260   28.7534   11.1717 H         1 QEG306      0.0000 
     69 H           7.8900   29.7810   11.7187 H         1 QEG306      0.0000 
     70 H           5.7978   29.3862   10.2443 H         1 QEG306      0.0000 
     71 H           4.7837   30.7503    9.6642 H         1 QEG306      0.0000 
@<TRIPOS>BOND
     1    3    1 2    
     2   10    2 1    
     3   21    2 1    
     4    4    3 1    
     5   22    3 am   
     6    5    4 1    
     7   41    4 1    
     8   42    4 1    
     9   19    5 1    
    10   43    5 1    
    11   44    5 1    
    12    9    6 ar   
    13   19    6 ar   
    14   45    6 1    
    15    8    7 ar   
    16   20    7 ar   
    17   46    7 1    
    18    9    8 ar   
    19   10    8 1    
    20   47    9 1    
    21   11   10 2    
    22   12   11 1    
    23   48   11 1    
    24   13   12 1    
    25   21   12 2    
    26   14   13 ar   
    27   18   13 ar   
    28   15   14 ar   
    29   49   14 1    
    30   16   15 ar   
    31   50   15 1    
    32   17   16 ar   
    33   51   16 1    
    34   18   17 ar   
    35   52   17 1    
    36   53   18 1    
    37   20   19 ar   
    38   54   20 1    
    39   55   21 1    
    40   23   22 1    
    41   56   22 1    
    42   24   23 1    
    43   26   23 1    
    44   57   23 1    
    45   25   24 2    
    46   31   24 am   
    47   27   26 1    
    48   58   26 1    
    49   59   26 1    
    50   28   27 1    
    51   60   27 1    
    52   61   27 1    
    53   29   28 2    
    54   30   28 am   
    55   62   30 1    
    56   63   30 1    
    57   32   31 1    
    58   64   31 1    
    59   33   32 1    
    60   35   32 1    
    61   65   32 1    
    62   34   33 2    
    63   40   33 am   
    64   36   35 1    
    65   66   35 1    
    66   67   35 1    
    67   37   36 1    
    68   68   36 1    
    69   69   36 1    
    70   38   37 ar   
    71   39   37 ar   
    72   70   40 1    
    73   71   40 1    
@<TRIPOS>SUBSTRUCTURE
     1 QEG306      1 GROUP   
@<TRIPOS>SET

