#    Name: 4jvm_XDI_2_INTS_M
#    Modification time : Tue Mar 25 06:37:14 2014

@<TRIPOS>MOLECULE
4jvm_XDI_2_INTS_M
   56     0     9     0     0
SMALL
NO_CHARGES


@<TRIPOS>ATOM
      1 CA         27.1590    0.5505    3.7325 C.3       3 GLC5        0.0000 
      2 CA         28.1290    1.7980    2.8290 C.3       9 GLL5        0.0000 
      3 CA         26.1890   -0.6970    4.6360 C.3       6 GLP5        0.0000 
      4 CA         26.6150    2.9435    2.9845 C.3       3 GLC5        0.0000 
      5 CA         25.1010    4.0890    3.1400 C.3       6 GLP5        0.0000 
      6 NZ         31.5865    6.5425    6.0275 N.4       2 LYC4        0.0000 
      7 NZ         30.9670    5.4710    7.1330 N.4       8 LYL4        0.0000 
      8 NZ         32.2060    7.6140    4.9220 N.4       5 LYP4        0.0000 
      9 N          31.5865    6.5425    6.0275 N.am      1 SEC2        0.0000 
     10 N          30.9670    5.4710    7.1330 N.am      7 SEL2        0.0000 
     11 N          32.2060    7.6140    4.9220 N.am      4 SEP2        0.0000 
     12 N          30.5735    6.1465    8.2840 N.am      1 SEC2        0.0000 
     13 N          30.1800    6.8220    9.4350 N.am      4 SEP2        0.0000 
     14 CA         29.6680   -0.5285   -3.4585 C.3       3 GLC5        0.0000 
     15 CA         29.6080    1.2920   -2.4900 C.3       9 GLL5        0.0000 
     16 CA         29.7280   -2.3490   -4.4270 C.3       6 GLP5        0.0000 
     17 CA         28.0060    2.7370   -2.9130 C.3       3 GLC5        0.0000 
     18 CA         26.4040    4.1820   -3.3360 C.3       6 GLP5        0.0000 
     19 CA         28.0305    0.4045   -3.1925 C.3       3 GLC5        0.0000 
     20 CA         26.4530   -0.4830   -3.8950 C.3       6 GLP5        0.0000 
     21 CA         31.9035    7.0065   -0.6440 C.3       3 GLC5        0.0000 
     22 CA         32.6230    5.3920   -0.1400 C.3       9 GLL5        0.0000 
     23 CA         31.1840    8.6210   -1.1480 C.3       6 GLP5        0.0000 
     24 CA         34.1120    5.8515    0.9805 C.3       3 GLC5        0.0000 
     25 CA         35.6010    6.3110    2.1010 C.3       6 GLP5        0.0000 
     26 CA         34.1620    4.8870   -1.3215 C.3       3 GLC5        0.0000 
     27 CA         35.7010    4.3820   -2.5030 C.3       6 GLP5        0.0000 
     28 CA         31.3450    7.4120    5.2260 C.3       3 GLC5        0.0000 
     29 CA         29.2560    6.7100    4.8320 C.3       9 GLL5        0.0000 
     30 CA         33.4340    8.1140    5.6200 C.3       6 GLP5        0.0000 
     31 CA         28.6310    7.8150    3.6570 C.3       3 GLC5        0.0000 
     32 CA         28.0060    8.9200    2.4820 C.3       6 GLP5        0.0000 
     33 CA         27.4625    6.9730    5.3815 C.3       3 GLC5        0.0000 
     34 CA         25.6690    7.2360    5.9310 C.3       6 GLP5        0.0000 
     35 CA         32.2470    0.9580    8.0800 C.3       3 GLC5        0.0000 
     36 CA         31.8520    2.9310    8.0370 C.3       9 GLL5        0.0000 
     37 CA         32.6420   -1.0150    8.1230 C.3       6 GLP5        0.0000 
     38 CA         33.4075    3.5710    6.9250 C.3       3 GLC5        0.0000 
     39 CA         34.9630    4.2110    5.8130 C.3       6 GLP5        0.0000 
     40 CA         33.0540    4.1125    8.4305 C.3       3 GLC5        0.0000 
     41 CA         34.2560    5.2940    8.8240 C.3       6 GLP5        0.0000 
     42 CA         29.7610    2.4665    8.0665 C.3       3 GLC5        0.0000 
     43 CA         27.6700    2.0020    8.0960 C.3       6 GLP5        0.0000 
     44 CA         33.6330    2.2700    8.8805 C.3       3 GLC5        0.0000 
     45 CA         35.4140    1.6090    9.7240 C.3       6 GLP5        0.0000 
     46 CA         32.0565    2.2040   -1.9525 C.3       3 GLC5        0.0000 
     47 CA         30.1220    2.1270   -0.8600 C.3       9 GLL5        0.0000 
     48 CA         33.9910    2.2810   -3.0450 C.3       6 GLP5        0.0000 
     49 CA         32.7050    3.0985   -1.4540 C.3       3 GLC5        0.0000 
     50 CA         31.4190    3.9160    0.1370 C.3       9 GLL5        0.0000 
     51 CA         33.2875    3.2455    0.5277 C.3       3 GLC5        0.0000 
     52 CA         34.5540    1.8370    1.0570 C.3       6 GLP5        0.0000 
     53 CA         27.9947    1.0490   -0.6247 C.3       3 GLC5        0.0000 
     54 CA         26.0930    0.1930   -1.0230 C.3       6 GLP5        0.0000 
     55 CA         32.5630    2.3652    1.2652 C.3       3 GLC5        0.0000 
     56 CA         30.1370    2.3380    1.5560 C.3       9 GLL5        0.0000 
@<TRIPOS>BOND
@<TRIPOS>SUBSTRUCTURE
     1 SEC2        9 GROUP        1 X    SEC  0     ROOT SEC X 2
     2 LYC4        6 GROUP        1 X    LYC  0     **** LYC X 4
     3 GLC5        1 GROUP        1 X    GLC  0     **** GLC X 6
     4 SEP2       11 GROUP        1 Y    SEP  0     ROOT SEP Y 9
     5 LYP4        8 GROUP        1 Y    LYP  0     **** LYP Y 11
     6 GLP5        3 GROUP        1 Y    GLP  0     **** GLP Y 13
     7 SEL2       10 GROUP        1 Z    SEL  0     ROOT SEL Z 16
     8 LYL4        7 GROUP        1 Z    LYL  0     **** LYL Z 18
     9 GLL5        2 GROUP        1 Z    GLL  0     **** GLL Z 20
@<TRIPOS>SET

