#    Name: 4jvm_XDI_2_ligand
#    Modification time : Tue Mar 25 06:37:14 2014

@<TRIPOS>MOLECULE
4jvm_XDI_2_ligand
   31    32     1     0     0
SMALL
NO_CHARGES


@<TRIPOS>ATOM
      1 CAA        28.1290    1.7980    2.8290 C.3       1 XDI301      0.0000 
      2 CAB        30.3060    0.4830    3.2400 C.3       1 XDI301      0.0000 
      3 OAC        31.3950    3.7010   -2.2680 O.co2     1 XDI301      0.0000 
      4 OAD        30.9670    5.4710    7.1330 O.co2     1 XDI301      0.0000 
      5 BRAE       29.6080    1.2920   -2.4900 Br        1 XDI301      0.0000 
      6 BRAF       32.6230    5.3920   -0.1400 Br        1 XDI301      0.0000 
      7 BRAG       29.2560    6.7100    4.8320 Br        1 XDI301      0.0000 
      8 BRAH       31.8520    2.9310    8.0370 Br        1 XDI301      0.0000 
      9 CAI        29.6710    1.6830    0.4070 C.ar      1 XDI301      0.0000 
     10 CAJ        31.0070    3.4490    1.3910 C.ar      1 XDI301      0.0000 
     11 CAK        29.6410    4.0390    4.0160 C.ar      1 XDI301      0.0000 
     12 CAL        30.7270    2.3070    5.2800 C.ar      1 XDI301      0.0000 
     13 CAM        30.9760    3.2420   -1.0120 C.ar      1 XDI301      0.0000 
     14 CAN        30.6040    4.5410    6.1560 C.ar      1 XDI301      0.0000 
     15 CAO        30.1220    2.1270   -0.8600 C.ar      1 XDI301      0.0000 
     16 CAP        31.4190    3.9160    0.1370 C.ar      1 XDI301      0.0000 
     17 CAQ        29.9360    4.9430    4.9900 C.ar      1 XDI301      0.0000 
     18 CAR        31.0270    3.2280    6.3150 C.ar      1 XDI301      0.0000 
     19 CAS        30.1370    2.3380    1.5560 C.ar      1 XDI301      0.0000 
     20 CAT        30.0680    2.7420    4.1220 C.ar      1 XDI301      0.0000 
     21 CAU        29.6770    1.8450    2.9380 C.3       1 XDI301      0.0000 
     22 H          29.0240    0.9064    0.4752 H         1 XDI301      0.0000 
     23 H          31.3500    3.9335    2.2491 H         1 XDI301      0.0000 
     24 H          29.0886    4.3311    3.1854 H         1 XDI301      0.0000 
     25 H          30.9946    1.3258    5.3851 H         1 XDI301      0.0000 
     26 H          27.8265    1.1852    2.0990 H         1 XDI301      0.0000 
     27 H          27.7067    1.4756    3.6761 H         1 XDI301      0.0000 
     28 H          27.7429    2.6995    2.6337 H         1 XDI301      0.0000 
     29 H          31.3024    0.5398    3.3027 H         1 XDI301      0.0000 
     30 H          29.9788    0.1068    4.1068 H         1 XDI301      0.0000 
     31 H          30.0948   -0.1892    2.5304 H         1 XDI301      0.0000 
@<TRIPOS>BOND
     1   21    1 1    
     2   26    1 1    
     3   27    1 1    
     4   28    1 1    
     5   21    2 1    
     6   29    2 1    
     7   30    2 1    
     8   31    2 1    
     9   13    3 ar   
    10   14    4 ar   
    11   15    5 1    
    12   16    6 1    
    13   17    7 1    
    14   18    8 1    
    15   15    9 ar   
    16   19    9 ar   
    17   22    9 1    
    18   16   10 ar   
    19   19   10 ar   
    20   23   10 1    
    21   17   11 ar   
    22   20   11 ar   
    23   24   11 1    
    24   18   12 ar   
    25   20   12 ar   
    26   25   12 1    
    27   15   13 ar   
    28   16   13 ar   
    29   17   14 ar   
    30   18   14 ar   
    31   21   19 1    
    32   21   20 1    
@<TRIPOS>SUBSTRUCTURE
     1 XDI301      1 GROUP   
@<TRIPOS>SET

