#    Name: 2dpm_SAM_1_INTS_M
#    Modification time : Tue Mar 25 10:12:27 2014

@<TRIPOS>MOLECULE
2dpm_SAM_1_INTS_M
   63     0    12     0     0
SMALL
NO_CHARGES


@<TRIPOS>ATOM
      1 OD1        20.9900   30.1755   58.9545 O.co2     3 ASC3        0.0000 
      2 OD1        19.7690   29.6600   59.1930 O.co2    11 ASL3        0.0000 
      3 OD1        22.2110   30.6910   58.7160 O.co2     7 ASP3        0.0000 
      4 O          18.8725   30.8395   58.8285 O.2       1 ALC1        0.0000 
      5 O          19.7690   29.6600   59.1930 O.2       9 ALL1        0.0000 
      6 O          17.9760   32.0190   58.4640 O.2       5 ALP1        0.0000 
      7 O          20.9900   30.1755   58.9545 O.2       1 ALC1        0.0000 
      8 O          22.2110   30.6910   58.7160 O.2       5 ALP1        0.0000 
      9 N          20.2695   26.9305   61.1250 N.am      2 SEC2        0.0000 
     10 N          19.0200   27.5980   60.5030 N.am     10 SEL2        0.0000 
     11 N          21.5190   26.2630   61.7470 N.am      6 SEP2        0.0000 
     12 N          17.5625   26.1440   57.9695 N.am      2 SEC2        0.0000 
     13 N          18.7290   26.3710   58.7470 N.am     10 SEL2        0.0000 
     14 N          16.3960   25.9170   57.1920 N.am      6 SEP2        0.0000 
     15 CA         22.0930   27.3745   57.1105 C.3       4 GLC5        0.0000 
     16 CA         20.1690   28.5290   57.1570 C.3      12 GLL5        0.0000 
     17 CA         24.0170   26.2200   57.0640 C.3       8 GLP5        0.0000 
     18 CA         23.9370   31.0810   53.4930 C.3       4 GLC5        0.0000 
     19 CA         22.7820   29.9910   54.8290 C.3      12 GLL5        0.0000 
     20 CA         25.0920   32.1710   52.1570 C.3       8 GLP5        0.0000 
     21 CA         21.8410   32.4785   53.7540 C.3       4 GLC5        0.0000 
     22 CA         20.9600   30.4790   53.4820 C.3      12 GLL5        0.0000 
     23 CA         22.7220   34.4780   54.0260 C.3       8 GLP5        0.0000 
     24 CA         22.0110   31.8605   52.4295 C.3       4 GLC5        0.0000 
     25 CA         23.0620   33.2420   51.3770 C.3       8 GLP5        0.0000 
     26 N          18.3915   26.9545   52.7715 N.am      2 SEC2        0.0000 
     27 N          18.2850   28.4380   52.4150 N.am     10 SEL2        0.0000 
     28 N          18.4980   25.4710   53.1280 N.am      6 SEP2        0.0000 
     29 O          16.9775   29.0370   51.4245 O.2       1 ALC1        0.0000 
     30 O          18.2850   28.4380   52.4150 O.2       9 ALL1        0.0000 
     31 O          15.6700   29.6360   50.4340 O.2       5 ALP1        0.0000 
     32 O          17.1420   29.0800   52.5005 O.2       1 ALC1        0.0000 
     33 O          15.9990   29.7220   52.5860 O.2       5 ALP1        0.0000 
     34 O          16.9580   29.3410   50.0670 O.2       1 ALC1        0.0000 
     35 O          18.2460   29.0460   49.7000 O.2       9 ALL1        0.0000 
     36 CA         18.9440   33.0330   51.7145 C.3       4 GLC5        0.0000 
     37 CA         18.6630   31.2080   50.8670 C.3      12 GLL5        0.0000 
     38 CA         19.2250   34.8580   52.5620 C.3       8 GLP5        0.0000 
     39 CA         16.1905   36.4960   47.7115 C.3       4 GLC5        0.0000 
     40 CA         18.0690   35.4280   48.1490 C.3      12 GLL5        0.0000 
     41 CA         14.3120   37.5640   47.2740 C.3       8 GLP5        0.0000 
     42 O          17.8020   37.5615   46.8835 O.2       1 ALC1        0.0000 
     43 O          18.5540   36.1850   47.1160 O.2       9 ALL1        0.0000 
     44 O          17.0500   38.9380   46.6510 O.2       5 ALP1        0.0000 
     45 N          16.0470   36.9615   49.1880 N.am      2 SEC2        0.0000 
     46 N          16.9930   35.8350   48.8600 N.am     10 SEL2        0.0000 
     47 N          15.1010   38.0880   49.5160 N.am      6 SEP2        0.0000 
     48 CA         16.1305   33.7490   48.5005 C.3       4 GLC5        0.0000 
     49 CA         16.5060   35.0970   49.8840 C.3      12 GLL5        0.0000 
     50 CA         15.7550   32.4010   47.1170 C.3       8 GLP5        0.0000 
     51 CA         15.4090   36.3305   48.5790 C.3       4 GLC5        0.0000 
     52 CA         16.4700   36.7895   50.7185 C.3       4 GLC5        0.0000 
     53 CA         16.4340   38.4820   51.5530 C.3       8 GLP5        0.0000 
     54 N          15.6950   32.9090   49.7340 N.am      2 SEC2        0.0000 
     55 N          16.9420   33.9090   50.3780 N.am     10 SEL2        0.0000 
     56 N          14.4480   31.9090   49.0900 N.am      6 SEP2        0.0000 
     57 CA         18.1441   28.3280   56.1540 C.3       4 GLC5        0.0000 
     58 CA         16.4680   27.6190   55.4640 C.3       8 GLP5        0.0000 
     59 CA         19.3115   32.0343   53.8462 C.3       4 GLC5        0.0000 
     60 CA         19.6660   30.4080   52.7930 C.3      12 GLL5        0.0000 
     61 CA         18.3100   33.6250   54.5550 C.3       8 GLP5        0.0000 
     62 CA         16.9828   33.2669   48.0592 C.3       4 GLC5        0.0000 
     63 CA         18.6550   34.1530   48.5630 C.3      12 GLL5        0.0000 
@<TRIPOS>BOND
@<TRIPOS>SUBSTRUCTURE
     1 ALC1        4 GROUP        1 X    ALC  0     ROOT ALC X 1
     2 SEC2        9 GROUP        1 X    SEC  0     **** SEC X 2
     3 ASC3        1 GROUP        1 X    ASC  0     **** ASC X 3
     4 GLC5       15 GROUP        1 X    GLC  0     **** GLC X 6
     5 ALP1        6 GROUP        1 Y    ALP  0     ROOT ALP Y 8
     6 SEP2       11 GROUP        1 Y    SEP  0     **** SEP Y 9
     7 ASP3        3 GROUP        1 Y    ASP  0     **** ASP Y 10
     8 GLP5       17 GROUP        1 Y    GLP  0     **** GLP Y 13
     9 ALL1        5 GROUP        1 Z    ALL  0     ROOT ALL Z 15
    10 SEL2       10 GROUP        1 Z    SEL  0     **** SEL Z 16
    11 ASL3        2 GROUP        1 Z    ASL  0     **** ASL Z 17
    12 GLL5       16 GROUP        1 Z    GLL  0     **** GLL Z 20
@<TRIPOS>SET

