#    Name: 2dpm_SAM_1_ligand
#    Modification time : Tue Mar 25 10:12:28 2014

@<TRIPOS>MOLECULE
2dpm_SAM_1_ligand
   50    52     1     0     0
SMALL
NO_CHARGES


@<TRIPOS>ATOM
      1 N          19.7690   29.6600   59.1930 N.4       1 SAM300      0.0000 
      2 CA         19.1920   28.7030   58.2990 C.3       1 SAM300      0.0000 
      3 C          19.2140   27.4800   59.2220 C.2       1 SAM300      0.0000 
      4 O          19.0200   27.5980   60.5030 O.co2     1 SAM300      0.0000 
      5 OXT        18.7290   26.3710   58.7470 O.co2     1 SAM300      0.0000 
      6 CB         20.1690   28.5290   57.1570 C.3       1 SAM300      0.0000 
      7 CG         19.9600   29.4580   55.9600 C.3       1 SAM300      0.0000 
      8 SD         21.2010   29.1440   54.6740 S.3       1 SAM300      0.0000 
      9 CE         22.7820   29.9910   54.8290 C.3       1 SAM300      0.0000 
     10 C5'        20.9600   30.4790   53.4820 C.3       1 SAM300      0.0000 
     11 C4'        19.6660   30.4080   52.7930 C.3       1 SAM300      0.0000 
     12 O4'        19.6030   31.5260   51.9190 O.3       1 SAM300      0.0000 
     13 C3'        19.4570   29.1430   51.9210 C.3       1 SAM300      0.0000 
     14 O3'        18.2850   28.4380   52.4150 O.3       1 SAM300      0.0000 
     15 C2'        19.2230   29.8000   50.5030 C.3       1 SAM300      0.0000 
     16 O2'        18.2460   29.0460   49.7000 O.3       1 SAM300      0.0000 
     17 C1'        18.6630   31.2080   50.8670 C.3       1 SAM300      0.0000 
     18 N9         18.8360   32.2850   49.8320 N.pl3     1 SAM300      0.0000 
     19 C8         19.8280   32.3370   48.8520 C.2       1 SAM300      0.0000 
     20 N7         19.7770   33.3980   48.0750 N.2       1 SAM300      0.0000 
     21 C5         18.6550   34.1530   48.5630 C.ar      1 SAM300      0.0000 
     22 C6         18.0690   35.4280   48.1490 C.ar      1 SAM300      0.0000 
     23 N6         18.5540   36.1850   47.1160 N.pl3     1 SAM300      0.0000 
     24 N1         16.9930   35.8350   48.8600 N.ar      1 SAM300      0.0000 
     25 C2         16.5060   35.0970   49.8840 C.ar      1 SAM300      0.0000 
     26 N3         16.9420   33.9090   50.3780 N.ar      1 SAM300      0.0000 
     27 C4         18.0590   33.4750   49.6470 C.ar      1 SAM300      0.0000 
     28 H          18.2542   28.9284   58.0139 H         1 SAM300      0.0000 
     29 H          20.1248   27.4782   56.7981 H         1 SAM300      0.0000 
     30 H          21.2028   28.6742   57.5380 H         1 SAM300      0.0000 
     31 H          20.1187   30.4863   56.1851 H         1 SAM300      0.0000 
     32 H          19.0457   29.2877   55.4422 H         1 SAM300      0.0000 
     33 H          21.8239   30.3545   52.8392 H         1 SAM300      0.0000 
     34 H          21.0940   31.3546   54.1068 H         1 SAM300      0.0000 
     35 H          18.8560   30.4555   53.5046 H         1 SAM300      0.0000 
     36 H          20.3339   28.6054   51.9016 H         1 SAM300      0.0000 
     37 H          20.1546   29.9232   50.0436 H         1 SAM300      0.0000 
     38 H          17.7122   31.1241   51.2399 H         1 SAM300      0.0000 
     39 H          20.5091   31.6023   48.7784 H         1 SAM300      0.0000 
     40 H          19.3633   35.8270   46.6503 H         1 SAM300      0.0000 
     41 H          18.0564   37.0295   46.9179 H         1 SAM300      0.0000 
     42 H          15.6219   35.5222   50.3961 H         1 SAM300      0.0000 
     43 H          19.2276   30.4996   59.2383 H         1 SAM300      0.0000 
     44 H          19.8362   29.3041   60.1251 H         1 SAM300      0.0000 
     45 H          20.6923   29.9215   58.9118 H         1 SAM300      0.0000 
     46 H          23.2478   29.7548   55.6818 H         1 SAM300      0.0000 
     47 H          23.4034   29.7574   54.0811 H         1 SAM300      0.0000 
     48 H          22.6732   30.9850   54.8201 H         1 SAM300      0.0000 
     49 H          17.5082   28.8847   51.9710 H         1 SAM300      0.0000 
     50 H          17.3517   29.3435   50.0343 H         1 SAM300      0.0000 
@<TRIPOS>BOND
     1    2    1 1    
     2   43    1 1    
     3   44    1 1    
     4   45    1 1    
     5    3    2 1    
     6    6    2 1    
     7   28    2 1    
     8    4    3 ar   
     9    5    3 ar   
    10    7    6 1    
    11   29    6 1    
    12   30    6 1    
    13    8    7 1    
    14   31    7 1    
    15   32    7 1    
    16    9    8 1    
    17   10    8 1    
    18   46    9 1    
    19   47    9 1    
    20   48    9 1    
    21   11   10 1    
    22   33   10 1    
    23   34   10 1    
    24   12   11 1    
    25   13   11 1    
    26   35   11 1    
    27   17   12 1    
    28   14   13 1    
    29   15   13 1    
    30   36   13 1    
    31   49   14 1    
    32   16   15 1    
    33   17   15 1    
    34   37   15 1    
    35   50   16 1    
    36   18   17 1    
    37   38   17 1    
    38   19   18 1    
    39   27   18 1    
    40   20   19 2    
    41   39   19 1    
    42   21   20 1    
    43   22   21 ar   
    44   27   21 ar   
    45   23   22 1    
    46   24   22 ar   
    47   40   23 1    
    48   41   23 1    
    49   25   24 ar   
    50   26   25 ar   
    51   42   25 1    
    52   27   26 ar   
@<TRIPOS>SUBSTRUCTURE
     1 SAM300      1 GROUP   
@<TRIPOS>SET

