#    Name: 2dsd_AMP_1_ligand
#    Modification time : Tue Mar 25 10:17:29 2014

@<TRIPOS>MOLECULE
2dsd_AMP_1_ligand
   35    37     1     0     0
SMALL
NO_CHARGES


@<TRIPOS>ATOM
      1 P           1.2390   13.4750   63.7000 P.3       1 AMP401      0.0000 
      2 O1P         2.1060   13.9190   62.5560 O.co2     1 AMP401      0.0000 
      3 O2P         0.4660   12.0400   63.4110 O.co2     1 AMP401      0.0000 
      4 O3P         0.0630   14.5530   64.0420 O.co2     1 AMP401      0.0000 
      5 O5'         2.1220   13.3350   65.0530 O.3       1 AMP401      0.0000 
      6 C5'         2.0460   14.3620   66.0380 C.3       1 AMP401      0.0000 
      7 C4'         2.9340   14.1280   67.2570 C.3       1 AMP401      0.0000 
      8 O4'         2.8030   15.2420   68.1820 O.3       1 AMP401      0.0000 
      9 C3'         2.5610   12.8950   68.1030 C.3       1 AMP401      0.0000 
     10 O3'         3.1080   11.6980   67.4620 O.3       1 AMP401      0.0000 
     11 C2'         3.2340   13.2690   69.4590 C.3       1 AMP401      0.0000 
     12 O2'         4.6330   12.9040   69.5320 O.3       1 AMP401      0.0000 
     13 C1'         2.9950   14.7930   69.5310 C.3       1 AMP401      0.0000 
     14 N9          1.7400   15.0860   70.2830 N.pl3     1 AMP401      0.0000 
     15 C8          0.5950   15.6370   69.7900 C.2       1 AMP401      0.0000 
     16 N7         -0.3130   15.7500   70.7690 N.2       1 AMP401      0.0000 
     17 C5          0.2350   15.2680   71.9000 C.ar      1 AMP401      0.0000 
     18 C6         -0.2420   15.1110   73.2340 C.ar      1 AMP401      0.0000 
     19 N6         -1.5020   15.5010   73.5390 N.pl3     1 AMP401      0.0000 
     20 N1          0.5810   14.5500   74.2360 N.ar      1 AMP401      0.0000 
     21 C2          1.9870   14.0880   73.9910 C.ar      1 AMP401      0.0000 
     22 N3          2.4040   14.2850   72.5770 N.ar      1 AMP401      0.0000 
     23 C4          1.5400   14.8460   71.5960 C.ar      1 AMP401      0.0000 
     24 H           1.0016   14.4894   66.4093 H         1 AMP401      0.0000 
     25 H           2.3262   15.3537   65.6103 H         1 AMP401      0.0000 
     26 H           3.9586   14.0303   66.9569 H         1 AMP401      0.0000 
     27 H           1.5254   12.8927   68.2290 H         1 AMP401      0.0000 
     28 H           2.6338   12.8218   70.2318 H         1 AMP401      0.0000 
     29 H           3.8243   15.2508   69.9845 H         1 AMP401      0.0000 
     30 H           0.4684   15.9044   68.8621 H         1 AMP401      0.0000 
     31 H          -2.0267   15.9149   72.7951 H         1 AMP401      0.0000 
     32 H          -1.7963   15.3407   74.4812 H         1 AMP401      0.0000 
     33 H           2.5335   13.7192   74.6557 H         1 AMP401      0.0000 
     34 H           2.9543   11.8354   66.4835 H         1 AMP401      0.0000 
     35 H           4.8166   12.4114   68.6813 H         1 AMP401      0.0000 
@<TRIPOS>BOND
     1    2    1 ar   
     2    3    1 ar   
     3    4    1 ar   
     4    5    1 1    
     5    6    5 1    
     6    7    6 1    
     7   24    6 1    
     8   25    6 1    
     9    8    7 1    
    10    9    7 1    
    11   26    7 1    
    12   13    8 1    
    13   10    9 1    
    14   11    9 1    
    15   27    9 1    
    16   34   10 1    
    17   12   11 1    
    18   13   11 1    
    19   28   11 1    
    20   35   12 1    
    21   14   13 1    
    22   29   13 1    
    23   15   14 1    
    24   23   14 1    
    25   16   15 2    
    26   30   15 1    
    27   17   16 1    
    28   18   17 ar   
    29   23   17 ar   
    30   19   18 1    
    31   20   18 ar   
    32   31   19 1    
    33   32   19 1    
    34   21   20 ar   
    35   22   21 ar   
    36   33   21 1    
    37   23   22 ar   
@<TRIPOS>SUBSTRUCTURE
     1 AMP401      1 GROUP   
@<TRIPOS>SET

