#    Name: 2j6l_NAI_1_INTS_M
#    Modification time : Tue Mar 25 19:20:17 2014

@<TRIPOS>MOLECULE
2j6l_NAI_1_INTS_M
  104     0     9     0     0
SMALL
NO_CHARGES


@<TRIPOS>ATOM
      1 N          56.2160   69.0685   35.1570 N.am      2 SEC2        0.0000 
      2 N          56.4260   69.9930   34.1090 N.am      8 SEL2        0.0000 
      3 N          56.0060   68.1440   36.2050 N.am      5 SEP2        0.0000 
      4 N          56.0870   70.5260   35.3145 N.am      2 SEC2        0.0000 
      5 N          55.7480   71.0590   36.5200 N.am      5 SEP2        0.0000 
      6 CA         57.8310   66.4560   31.3495 C.3       3 GLC5        0.0000 
      7 CA         56.6780   68.1890   31.6590 C.3       9 GLL5        0.0000 
      8 CA         58.9840   64.7230   31.0400 C.3       6 GLP5        0.0000 
      9 CA         54.7725   68.1685   32.3610 C.3       3 GLC5        0.0000 
     10 CA         52.8670   68.1480   33.0630 C.3       6 GLP5        0.0000 
     11 CA         56.2660   67.2225   33.2110 C.3       3 GLC5        0.0000 
     12 CA         55.8540   66.2560   34.7630 C.3       6 GLP5        0.0000 
     13 CA         54.1740   68.0620   31.0595 C.3       3 GLC5        0.0000 
     14 CA         56.0450   68.0990   30.2770 C.3       9 GLL5        0.0000 
     15 CA         52.3030   68.0250   31.8420 C.3       6 GLP5        0.0000 
     16 CA         58.3540   67.8780   27.7215 C.3       3 GLC5        0.0000 
     17 CA         56.9000   68.4910   29.0740 C.3       9 GLL5        0.0000 
     18 CA         59.8080   67.2650   26.3690 C.3       6 GLP5        0.0000 
     19 N          56.1680   68.3515   26.6405 N.am      2 SEC2        0.0000 
     20 N          56.5820   67.7230   27.9120 N.am      8 SEL2        0.0000 
     21 N          55.7540   68.9800   25.3690 N.am      5 SEP2        0.0000 
     22 O          57.0015   66.4845   28.3155 O.2       1 ALC1        0.0000 
     23 O          56.5820   67.7230   27.9120 O.2       7 ALL1        0.0000 
     24 O          57.4210   65.2460   28.7190 O.2       4 ALP1        0.0000 
     25 CA         58.0765   70.0750   27.2350 C.3       3 GLC5        0.0000 
     26 CA         56.5300   69.9380   28.8240 C.3       9 GLL5        0.0000 
     27 CA         59.6230   70.2120   25.6460 C.3       6 GLP5        0.0000 
     28 N          56.2465   69.6855   26.4235 N.am      2 SEC2        0.0000 
     29 N          56.7390   70.3910   27.4780 N.am      8 SEL2        0.0000 
     30 CA         54.1555   68.2555   28.8570 C.3       3 GLC5        0.0000 
     31 CA         55.0380   69.9040   29.1330 C.3       9 GLL5        0.0000 
     32 CA         53.2730   66.6070   28.5810 C.3       6 GLP5        0.0000 
     33 CA         53.6705   68.9645   30.4875 C.3       3 GLC5        0.0000 
     34 CA         50.5850   69.2025   28.4180 C.3       3 GLC5        0.0000 
     35 CA         50.8560   71.1080   29.1490 C.3       9 GLL5        0.0000 
     36 CA         50.3140   67.2970   27.6870 C.3       6 GLP5        0.0000 
     37 CA         50.6905   70.7980   27.4500 C.3       3 GLC5        0.0000 
     38 CA         50.5250   70.4880   25.7510 C.3       6 GLP5        0.0000 
     39 CA         49.3495   72.0735   27.8865 C.3       3 GLC5        0.0000 
     40 CA         47.8430   73.0390   26.6240 C.3       6 GLP5        0.0000 
     41 CA         51.6625   71.3075   31.1110 C.3       3 GLC5        0.0000 
     42 CA         52.4690   71.5070   33.0730 C.3       6 GLP5        0.0000 
     43 CA         49.7990   70.4490   30.5935 C.3       3 GLC5        0.0000 
     44 CA         48.7420   69.7900   32.0380 C.3       6 GLP5        0.0000 
     45 CA         53.3580   72.8195   27.9660 C.3       3 GLC5        0.0000 
     46 CA         53.1400   71.3680   29.4300 C.3       9 GLL5        0.0000 
     47 CA         53.5760   74.2710   26.5020 C.3       6 GLP5        0.0000 
     48 N          60.6805   66.5615   31.2625 N.am      2 SEC2        0.0000 
     49 N          60.0840   67.8330   31.9380 N.am      8 SEL2        0.0000 
     50 N          61.2770   65.2900   30.5870 N.am      5 SEP2        0.0000 
     51 CA         59.8080   65.7220   34.1185 C.3       3 GLC5        0.0000 
     52 CA         60.5450   66.9600   35.6990 C.3       9 GLL5        0.0000 
     53 CA         59.0710   64.4840   32.5380 C.3       6 GLP5        0.0000 
     54 CA         62.2970   67.2075   34.7180 C.3       3 GLC5        0.0000 
     55 CA         64.0490   67.4550   33.7370 C.3       6 GLP5        0.0000 
     56 CA         62.1950   66.2580   36.4815 C.3       3 GLC5        0.0000 
     57 CA         63.8450   65.5560   37.2640 C.3       6 GLP5        0.0000 
     58 CA         57.5775   66.5385   35.6710 C.3       3 GLC5        0.0000 
     59 CA         59.3010   66.8210   36.5790 C.3       9 GLL5        0.0000 
     60 O          59.0125   67.6205   40.1275 O.2       1 ALC1        0.0000 
     61 O          58.6200   67.2200   38.9020 O.2       7 ALL1        0.0000 
     62 O          59.4050   68.0210   41.3530 O.2       4 ALP1        0.0000 
     63 O          59.3470   66.6025   40.3210 O.2       1 ALC1        0.0000 
     64 O          60.0740   65.9850   41.7400 O.2       4 ALP1        0.0000 
     65 CA         57.9890   65.2280   39.8650 C.3       3 GLC5        0.0000 
     66 CA         59.4720   65.0640   38.1970 C.3       9 GLL5        0.0000 
     67 CA         56.5060   65.3920   41.5330 C.3       6 GLP5        0.0000 
     68 O          59.6930   65.2755   40.6330 O.2       1 ALC1        0.0000 
     69 O          59.3120   64.5660   39.5260 O.2       7 ALL1        0.0000 
     70 CA         57.0775   65.5195   36.0255 C.3       3 GLC5        0.0000 
     71 CA         58.3010   64.7830   37.2880 C.3       9 GLL5        0.0000 
     72 CA         55.5360   63.4820   38.3080 C.3       3 GLC5        0.0000 
     73 CA         57.3130   62.5620   37.4930 C.3       9 GLL5        0.0000 
     74 CA         53.7590   64.4020   39.1230 C.3       6 GLP5        0.0000 
     75 CA         58.4805   61.8805   38.4335 C.3       3 GLC5        0.0000 
     76 CA         59.6480   61.1990   39.3740 C.3       6 GLP5        0.0000 
     77 O          54.3340   59.4625   38.4630 O.2       1 ALC1        0.0000 
     78 O          55.4700   60.6340   38.7850 O.2       7 ALL1        0.0000 
     79 O          53.1980   58.2910   38.1410 O.2       4 ALP1        0.0000 
     80 O          55.5365   61.9445   39.4260 O.2       1 ALC1        0.0000 
     81 O          55.6030   63.2550   40.0670 O.2       4 ALP1        0.0000 
     82 CA         59.4220   62.0525   37.7405 C.3       3 GLC5        0.0000 
     83 CA         59.1960   62.9060   36.1070 C.3       9 GLL5        0.0000 
     84 CA         54.8728   67.4510   29.1283 C.3       3 GLC5        0.0000 
     85 CA         55.0260   69.3610   27.1908 C.3       3 GLC5        0.0000 
     86 CA         54.2680   68.8010   25.4030 C.3       6 GLP5        0.0000 
     87 CA         53.0553   74.2315   28.6720 C.3       3 GLC5        0.0000 
     88 CA         52.9610   72.7660   29.9170 C.3       9 GLL5        0.0000 
     89 CA         53.8390   75.4570   27.4260 C.3       6 GLP5        0.0000 
     90 CA         52.5874   71.8470   31.3735 C.3       3 GLC5        0.0000 
     91 CA         57.7092   67.7752   37.4045 C.3       3 GLC5        0.0000 
     92 CA         55.9900   68.8560   37.4860 C.3       6 GLP5        0.0000 
     93 CA         61.0735   65.4995   38.7230 C.3       3 GLC5        0.0000 
     94 CA         59.5560   66.5680   38.0670 C.3       9 GLL5        0.0000 
     95 CA         62.6330   65.1830   39.3140 C.3       6 GLP5        0.0000 
     96 CA         59.2673   63.0613   38.5583 C.3       3 GLC5        0.0000 
     97 CA         56.7377   61.8257   35.6287 C.3       3 GLC5        0.0000 
     98 CA         56.1740   61.7610   33.9190 C.3       6 GLP5        0.0000 
     99 CA         59.1467   63.3572   34.2420 C.3       3 GLC5        0.0000 
    100 CA         59.2490   61.5550   35.7850 C.3       9 GLL5        0.0000 
    101 CA         59.0263   60.4649   37.3725 C.3       3 GLC5        0.0000 
    102 CA         59.5320   59.6700   38.4750 C.3       6 GLP5        0.0000 
    103 CA         57.5789   61.8901   35.0001 C.3       3 GLC5        0.0000 
    104 CA         58.2940   60.7100   36.3260 C.3       9 GLL5        0.0000 
@<TRIPOS>BOND
@<TRIPOS>SUBSTRUCTURE
     1 ALC1       22 GROUP        1 X    ALC  0     ROOT ALC X 1
     2 SEC2        1 GROUP        1 X    SEC  0     **** SEC X 2
     3 GLC5        6 GROUP        1 X    GLC  0     **** GLC X 6
     4 ALP1       24 GROUP        1 Y    ALP  0     ROOT ALP Y 8
     5 SEP2        3 GROUP        1 Y    SEP  0     **** SEP Y 9
     6 GLP5        8 GROUP        1 Y    GLP  0     **** GLP Y 13
     7 ALL1       23 GROUP        1 Z    ALL  0     ROOT ALL Z 15
     8 SEL2        2 GROUP        1 Z    SEL  0     **** SEL Z 16
     9 GLL5        7 GROUP        1 Z    GLL  0     **** GLL Z 20
@<TRIPOS>SET

