#    Name: 2j6l_NAI_1_ligand
#    Modification time : Tue Mar 25 19:20:17 2014

@<TRIPOS>MOLECULE
2j6l_NAI_1_ligand
   71    75     1     0     0
SMALL
NO_CHARGES


@<TRIPOS>ATOM
      1 PA         57.6460   69.9560   33.2690 P.3       1 NAI1501     0.0000 
      2 O1A        56.4260   69.9930   34.1090 O.co2     1 NAI1501     0.0000 
      3 O2A        58.2620   71.3060   33.0830 O.co2     1 NAI1501     0.0000 
      4 O5B        57.2590   69.4920   31.8700 O.3       1 NAI1501     0.0000 
      5 C5B        56.6780   68.1890   31.6590 C.3       1 NAI1501     0.0000 
      6 C4B        56.0450   68.0990   30.2770 C.3       1 NAI1501     0.0000 
      7 O4B        54.9510   69.0230   30.2470 O.3       1 NAI1501     0.0000 
      8 C3B        56.9000   68.4910   29.0740 C.3       1 NAI1501     0.0000 
      9 O3B        56.5820   67.7230   27.9120 O.3       1 NAI1501     0.0000 
     10 C2B        56.5300   69.9380   28.8240 C.3       1 NAI1501     0.0000 
     11 O2B        56.7390   70.3910   27.4780 O.3       1 NAI1501     0.0000 
     12 C1B        55.0380   69.9040   29.1330 C.3       1 NAI1501     0.0000 
     13 N9A        54.4520   71.1980   29.4760 N.pl3     1 NAI1501     0.0000 
     14 C8A        55.0650   72.3000   29.9810 C.2       1 NAI1501     0.0000 
     15 N7A        54.1640   73.2820   30.2360 N.2       1 NAI1501     0.0000 
     16 C5A        52.9610   72.7660   29.9170 C.ar      1 NAI1501     0.0000 
     17 C6A        51.5820   73.2460   29.9190 C.ar      1 NAI1501     0.0000 
     18 N6A        51.3240   74.5130   30.3980 N.pl3     1 NAI1501     0.0000 
     19 N1A        50.6210   72.3790   29.5780 N.ar      1 NAI1501     0.0000 
     20 C2A        50.8560   71.1080   29.1490 C.ar      1 NAI1501     0.0000 
     21 N3A        52.1030   70.5950   29.0600 N.ar      1 NAI1501     0.0000 
     22 C4A        53.1400   71.3680   29.4300 C.ar      1 NAI1501     0.0000 
     23 O3         58.5940   68.7920   33.8330 O.3       1 NAI1501     0.0000 
     24 PN         60.0470   68.2110   33.4540 P.3       1 NAI1501     0.0000 
     25 O1N        60.0840   67.8330   31.9380 O.co2     1 NAI1501     0.0000 
     26 O2N        61.0590   69.2500   33.8830 O.co2     1 NAI1501     0.0000 
     27 O5D        60.2400   66.9200   34.2960 O.3       1 NAI1501     0.0000 
     28 C5D        60.5450   66.9600   35.6990 C.3       1 NAI1501     0.0000 
     29 C4D        59.3010   66.8210   36.5790 C.3       1 NAI1501     0.0000 
     30 O4D        58.5380   65.6690   36.1920 O.3       1 NAI1501     0.0000 
     31 C3D        59.5560   66.5680   38.0670 C.3       1 NAI1501     0.0000 
     32 O3D        58.6200   67.2200   38.9020 O.3       1 NAI1501     0.0000 
     33 C2D        59.4720   65.0640   38.1970 C.3       1 NAI1501     0.0000 
     34 O2D        59.3120   64.5660   39.5260 O.3       1 NAI1501     0.0000 
     35 C1D        58.3010   64.7830   37.2880 C.3       1 NAI1501     0.0000 
     36 N1N        58.2320   63.3720   36.9250 N.pl3     1 NAI1501     0.0000 
     37 C2N        57.3130   62.5620   37.4930 C.2       1 NAI1501     0.0000 
     38 C3N        57.2900   61.2190   37.1840 C.2       1 NAI1501     0.0000 
     39 C7N        56.2500   60.2870   37.7280 C.2       1 NAI1501     0.0000 
     40 O7N        56.1200   59.2140   37.1150 O.2       1 NAI1501     0.0000 
     41 N7N        55.4700   60.6340   38.7850 N.am      1 NAI1501     0.0000 
     42 C4N        58.2940   60.7100   36.3260 C.3       1 NAI1501     0.0000 
     43 C5N        59.2490   61.5550   35.7850 C.2       1 NAI1501     0.0000 
     44 C6N        59.1960   62.9060   36.1070 C.2       1 NAI1501     0.0000 
     45 H          55.8991   67.9749   32.4040 H         1 NAI1501     0.0000 
     46 H          57.4362   67.3975   31.7376 H         1 NAI1501     0.0000 
     47 H          55.6614   67.1011   30.1175 H         1 NAI1501     0.0000 
     48 H          57.9184   68.4486   29.3492 H         1 NAI1501     0.0000 
     49 H          56.9901   70.5410   29.5646 H         1 NAI1501     0.0000 
     50 H          54.5400   69.4596   28.2847 H         1 NAI1501     0.0000 
     51 H          56.0279   72.3749   30.1395 H         1 NAI1501     0.0000 
     52 H          52.1216   75.0516   30.6695 H         1 NAI1501     0.0000 
     53 H          50.3617   74.7830   30.4322 H         1 NAI1501     0.0000 
     54 H          50.0325   70.5063   28.8776 H         1 NAI1501     0.0000 
     55 H          61.0436   67.9098   35.9744 H         1 NAI1501     0.0000 
     56 H          61.2449   66.1493   35.9808 H         1 NAI1501     0.0000 
     57 H          58.6865   67.7022   36.4931 H         1 NAI1501     0.0000 
     58 H          60.5765   66.8530   38.2670 H         1 NAI1501     0.0000 
     59 H          60.3510   64.6615   37.6921 H         1 NAI1501     0.0000 
     60 H          57.4120   65.0951   37.8252 H         1 NAI1501     0.0000 
     61 H          56.6176   62.9391   38.1647 H         1 NAI1501     0.0000 
     62 H          55.6574   61.5261   39.1960 H         1 NAI1501     0.0000 
     63 H          54.7774   59.9666   39.0586 H         1 NAI1501     0.0000 
     64 H          57.7744   60.1237   35.4718 H         1 NAI1501     0.0000 
     65 H          58.8230   59.8342   36.8706 H         1 NAI1501     0.0000 
     66 H          59.9738   61.1969   35.1657 H         1 NAI1501     0.0000 
     67 H          59.9104   63.5430   35.7062 H         1 NAI1501     0.0000 
     68 H          57.2413   66.9711   27.9105 H         1 NAI1501     0.0000 
     69 H          57.5391   70.9889   27.5275 H         1 NAI1501     0.0000 
     70 H          59.1234   67.4303   39.7401 H         1 NAI1501     0.0000 
     71 H          59.6933   65.2773   40.1165 H         1 NAI1501     0.0000 
@<TRIPOS>BOND
     1    2    1 ar   
     2    3    1 ar   
     3    4    1 1    
     4   23    1 1    
     5    5    4 1    
     6    6    5 1    
     7   45    5 1    
     8   46    5 1    
     9    7    6 1    
    10    8    6 1    
    11   47    6 1    
    12   12    7 1    
    13    9    8 1    
    14   10    8 1    
    15   48    8 1    
    16   68    9 1    
    17   11   10 1    
    18   12   10 1    
    19   49   10 1    
    20   69   11 1    
    21   13   12 1    
    22   50   12 1    
    23   14   13 1    
    24   22   13 1    
    25   15   14 2    
    26   51   14 1    
    27   16   15 1    
    28   17   16 ar   
    29   22   16 ar   
    30   18   17 1    
    31   19   17 ar   
    32   52   18 1    
    33   53   18 1    
    34   20   19 ar   
    35   21   20 ar   
    36   54   20 1    
    37   22   21 ar   
    38   24   23 1    
    39   25   24 ar   
    40   26   24 ar   
    41   27   24 1    
    42   28   27 1    
    43   29   28 1    
    44   55   28 1    
    45   56   28 1    
    46   30   29 1    
    47   31   29 1    
    48   57   29 1    
    49   35   30 1    
    50   32   31 1    
    51   33   31 1    
    52   58   31 1    
    53   70   32 1    
    54   34   33 1    
    55   35   33 1    
    56   59   33 1    
    57   71   34 1    
    58   36   35 1    
    59   60   35 1    
    60   37   36 1    
    61   44   36 1    
    62   38   37 2    
    63   61   37 1    
    64   39   38 1    
    65   42   38 1    
    66   40   39 2    
    67   41   39 am   
    68   62   41 1    
    69   63   41 1    
    70   43   42 1    
    71   64   42 1    
    72   65   42 1    
    73   44   43 2    
    74   66   43 1    
    75   67   44 1    
@<TRIPOS>SUBSTRUCTURE
     1 NAI1501     1 GROUP   
@<TRIPOS>SET

