#    Name: 2uz1_TPP_3_INTS_M
#    Modification time : Tue Mar 25 00:31:09 2014

@<TRIPOS>MOLECULE
2uz1_TPP_3_INTS_M
   89     0     9     0     0
SMALL
NO_CHARGES


@<TRIPOS>ATOM
      1 CA         59.0790   11.8565   15.0775 C.3       3 GLC5        0.0000 
      2 CA         57.2890   12.1520   16.0530 C.3       9 GLL5        0.0000 
      3 CA         60.8690   11.5610   14.1020 C.3       6 GLP5        0.0000 
      4 CA         55.5900   13.5915   16.0390 C.3       3 GLC5        0.0000 
      5 CA         53.8910   15.0310   16.0250 C.3       6 GLP5        0.0000 
      6 CA         59.0770   11.2280   17.7700 C.3       3 GLC5        0.0000 
      7 CA         57.3320   10.9050   16.8990 C.3       9 GLL5        0.0000 
      8 CA         60.8220   11.5510   18.6410 C.3       6 GLP5        0.0000 
      9 CA         55.5180    9.8950   16.8805 C.3       3 GLC5        0.0000 
     10 CA         53.7040    8.8850   16.8620 C.3       6 GLP5        0.0000 
     11 CA         55.5280   11.5280   17.8600 C.3       3 GLC5        0.0000 
     12 CA         53.7240   12.1510   18.8210 C.3       6 GLP5        0.0000 
     13 N          58.0755   10.9355   14.2360 N.am      2 SEC2        0.0000 
     14 N          57.0230   12.0590   14.6990 N.am      8 SEL2        0.0000 
     15 N          59.1280    9.8120   13.7730 N.am      5 SEP2        0.0000 
     16 O          56.6405   11.7330   12.1270 O.2       1 ALC1        0.0000 
     17 O          56.7020   13.0670   12.6020 O.2       7 ALL1        0.0000 
     18 O          56.5790   10.3990   11.6520 O.2       4 ALP1        0.0000 
     19 CA         58.5020   15.3865   17.1715 C.3       3 GLC5        0.0000 
     20 CA         57.4540   14.5280   15.8360 C.3       9 GLL5        0.0000 
     21 CA         59.5500   16.2450   18.5070 C.3       6 GLP5        0.0000 
     22 CA         57.8025   17.4230   12.8450 C.3       3 GLC5        0.0000 
     23 CA         57.1740   15.7210   13.6240 C.3       9 GLL5        0.0000 
     24 CA         58.4310   19.1250   12.0660 C.3       6 GLP5        0.0000 
     25 CA         56.2425   17.3120   14.0980 C.3       3 GLC5        0.0000 
     26 CA         55.3110   18.9030   14.5720 C.3       6 GLP5        0.0000 
     27 CA         55.5325   15.3760   14.8245 C.3       3 GLC5        0.0000 
     28 CA         59.3185   13.9955   12.1390 C.3       3 GLC5        0.0000 
     29 CA         58.2790   15.5870   11.3300 C.3       9 GLL5        0.0000 
     30 CA         60.3580   12.4040   12.9480 C.3       6 GLP5        0.0000 
     31 CA         60.4295   13.8890   10.9495 C.3       3 GLC5        0.0000 
     32 CA         59.6950   15.7570   10.5340 C.3       9 GLL5        0.0000 
     33 CA         61.1640   12.0210   11.3650 C.3       6 GLP5        0.0000 
     34 CA         60.2900   16.7620    8.9845 C.3       3 GLC5        0.0000 
     35 CA         60.8850   17.7670    7.4350 C.3       6 GLP5        0.0000 
     36 CA         61.6805   16.2220   14.9790 C.3       3 GLC5        0.0000 
     37 CA         60.0130   16.4710   14.4640 C.3       9 GLL5        0.0000 
     38 CA         63.3480   15.9730   15.4940 C.3       6 GLP5        0.0000 
     39 CA         59.7815   16.3580   16.4855 C.3       3 GLC5        0.0000 
     40 CA         61.1360   14.4445   12.4105 C.3       3 GLC5        0.0000 
     41 CA         61.9140   16.4850   11.8730 C.3       9 GLL5        0.0000 
     42 CA         63.1655   17.7060   12.6020 C.3       3 GLC5        0.0000 
     43 CA         64.4170   18.9270   13.3310 C.3       6 GLP5        0.0000 
     44 CA         60.1725   17.8050   11.9695 C.3       3 GLC5        0.0000 
     45 CA         61.9935   13.6420   11.6275 C.3       3 GLC5        0.0000 
     46 CA         62.8230   15.2630   11.8900 C.3       9 GLL5        0.0000 
     47 CA         63.0855   15.6180   13.6920 C.3       3 GLC5        0.0000 
     48 N          64.3960   17.3605   11.4855 N.am      2 SEC2        0.0000 
     49 N          64.1530   15.7460   12.0520 N.am      8 SEL2        0.0000 
     50 N          64.6390   18.9750   10.9190 N.am      5 SEP2        0.0000 
     51 N          65.6205   12.9935   13.5745 N.am      2 SEC2        0.0000 
     52 N          65.2280   13.4340   12.3040 N.am      8 SEL2        0.0000 
     53 N          66.0130   12.5530   14.8450 N.am      5 SEP2        0.0000 
     54 N          64.6365   12.3595   12.6875 N.am      2 SEC2        0.0000 
     55 N          64.0450   11.2850   13.0710 N.am      5 SEP2        0.0000 
     56 N          67.3055   15.0750   13.4810 N.am      2 SEC2        0.0000 
     57 N          66.6760   15.4300   12.2660 N.am      8 SEL2        0.0000 
     58 N          67.9350   14.7200   14.6960 N.am      5 SEP2        0.0000 
     59 N          64.5005   13.8175    9.1740 N.am      2 SEC2        0.0000 
     60 N          65.4060   14.6690   10.1330 N.am      8 SEL2        0.0000 
     61 N          63.5950   12.9660    8.2150 N.am      5 SEP2        0.0000 
     62 N          67.4810   17.7110    8.9440 N.am      2 SEC2        0.0000 
     63 N          66.3540   17.0430    9.7840 N.am      8 SEL2        0.0000 
     64 N          68.6080   18.3790    8.1040 N.am      5 SEP2        0.0000 
     65 N          65.4965   18.0090   10.3515 N.am      2 SEC2        0.0000 
     66 N          63.9615   14.6585    8.3930 N.am      2 SEC2        0.0000 
     67 N          64.3280   16.3510    8.5710 N.am      8 SEL2        0.0000 
     68 N          64.0335   15.7400    7.3005 N.am      2 SEC2        0.0000 
     69 N          63.7390   15.1290    6.0300 N.am      5 SEP2        0.0000 
     70 N          63.5325   17.6260    8.5700 N.am      2 SEC2        0.0000 
     71 N          62.7370   18.9010    8.5690 N.am      5 SEP2        0.0000 
     72 N          66.2895   14.5930    6.7145 N.am      2 SEC2        0.0000 
     73 N          66.4880   15.2980    8.0170 N.am      8 SEL2        0.0000 
     74 N          66.0910   13.8880    5.4120 N.am      5 SEP2        0.0000 
     75 N          67.3380   14.2655    7.6705 N.am      2 SEC2        0.0000 
     76 N          68.1880   13.2330    7.3240 N.am      5 SEP2        0.0000 
     77 CA         57.2233    9.9907   14.9905 C.3       3 GLC5        0.0000 
     78 CA         57.1360    8.4530   13.5050 C.3       6 GLP5        0.0000 
     79 CA         58.7230   13.1137   13.5655 C.3       3 GLC5        0.0000 
     80 CA         56.9770   13.1950   13.9010 C.3       9 GLL5        0.0000 
     81 CA         55.5810   14.6034   15.5172 C.3       3 GLC5        0.0000 
     82 CA         58.7090   17.3985   11.4990 C.3       3 GLC5        0.0000 
     83 CA         60.8660   15.2287    9.6207 C.3       3 GLC5        0.0000 
     84 CA         61.6670   14.5040    8.0060 C.3       6 GLP5        0.0000 
     85 CA         60.1851   14.3573   13.2141 C.3       3 GLC5        0.0000 
     86 CA         60.4350   16.1500   11.9370 C.3       9 GLL5        0.0000 
     87 CA         59.2216   17.7178   12.7731 C.3       3 GLC5        0.0000 
     88 CA         59.5880   16.1500   13.0560 C.3       9 GLL5        0.0000 
     89 CA         62.0178   15.1890    9.9437 C.3       3 GLC5        0.0000 
@<TRIPOS>BOND
@<TRIPOS>SUBSTRUCTURE
     1 ALC1       16 GROUP        1 X    ALC  0     ROOT ALC X 1
     2 SEC2       13 GROUP        1 X    SEC  0     **** SEC X 2
     3 GLC5        1 GROUP        1 X    GLC  0     **** GLC X 6
     4 ALP1       18 GROUP        1 Y    ALP  0     ROOT ALP Y 8
     5 SEP2       15 GROUP        1 Y    SEP  0     **** SEP Y 9
     6 GLP5        3 GROUP        1 Y    GLP  0     **** GLP Y 13
     7 ALL1       17 GROUP        1 Z    ALL  0     ROOT ALL Z 15
     8 SEL2       14 GROUP        1 Z    SEL  0     **** SEL Z 16
     9 GLL5        2 GROUP        1 Z    GLL  0     **** GLL Z 20
@<TRIPOS>SET

