#    Name: 2uz1_TPP_3_ligand
#    Modification time : Tue Mar 25 00:31:09 2014

@<TRIPOS>MOLECULE
2uz1_TPP_3_ligand
   42    43     1     0     0
SMALL
NO_CHARGES


@<TRIPOS>ATOM
      1 N1'        57.4950   13.3860   16.6180 N.ar      1 TPP1557     0.0000 
      2 C2'        57.2890   12.1520   16.0530 C.ar      1 TPP1557     0.0000 
      3 CM2        57.3320   10.9050   16.8990 C.3       1 TPP1557     0.0000 
      4 N3'        57.0230   12.0590   14.6990 N.ar      1 TPP1557     0.0000 
      5 C4'        56.9770   13.1950   13.9010 C.ar      1 TPP1557     0.0000 
      6 N4'        56.7020   13.0670   12.6020 N.pl3     1 TPP1557     0.0000 
      7 C5'        57.1990   14.4520   14.4650 C.ar      1 TPP1557     0.0000 
      8 C6'        57.4540   14.5280   15.8360 C.ar      1 TPP1557     0.0000 
      9 C7'        57.1740   15.7210   13.6240 C.3       1 TPP1557     0.0000 
     10 N3         58.3210   15.8160   12.6990 N.pl3     1 TPP1557     0.0000 
     11 C2         58.2790   15.5870   11.3300 C.2       1 TPP1557     0.0000 
     12 S1         59.6950   15.7570   10.5340 S.3       1 TPP1557     0.0000 
     13 C5         60.4350   16.1500   11.9370 C.2       1 TPP1557     0.0000 
     14 C4         59.5880   16.1500   13.0560 C.2       1 TPP1557     0.0000 
     15 CM4        60.0130   16.4710   14.4640 C.3       1 TPP1557     0.0000 
     16 C6         61.9140   16.4850   11.8730 C.3       1 TPP1557     0.0000 
     17 C7         62.8230   15.2630   11.8900 C.3       1 TPP1557     0.0000 
     18 O7         64.1530   15.7460   12.0520 O.3       1 TPP1557     0.0000 
     19 PA         65.4110   14.8070   11.7260 P.3       1 TPP1557     0.0000 
     20 O1A        65.2280   13.4340   12.3040 O.co2     1 TPP1557     0.0000 
     21 O2A        66.6760   15.4300   12.2660 O.co2     1 TPP1557     0.0000 
     22 O3A        65.4060   14.6690   10.1330 O.3       1 TPP1557     0.0000 
     23 PB         65.6500   15.9020    9.1060 P.3       1 TPP1557     0.0000 
     24 O1B        66.3540   17.0430    9.7840 O.co2     1 TPP1557     0.0000 
     25 O2B        64.3280   16.3510    8.5710 O.co2     1 TPP1557     0.0000 
     26 O3B        66.4880   15.2980    8.0170 O.co2     1 TPP1557     0.0000 
     27 H          56.9657   12.1997   12.1798 H         1 TPP1557     0.0000 
     28 H          56.2569   13.8498   12.1672 H         1 TPP1557     0.0000 
     29 H          57.6141   15.4545   16.2692 H         1 TPP1557     0.0000 
     30 H          57.1615   16.5890   14.3052 H         1 TPP1557     0.0000 
     31 H          56.2265   15.7447   13.0590 H         1 TPP1557     0.0000 
     32 H          57.5272   15.3403   10.7799 H         1 TPP1557     0.0000 
     33 H          62.1740   17.1353   12.7256 H         1 TPP1557     0.0000 
     34 H          62.1132   17.0654   10.9560 H         1 TPP1557     0.0000 
     35 H          62.6922   14.7328   10.9529 H         1 TPP1557     0.0000 
     36 H          62.5164   14.6265   12.7130 H         1 TPP1557     0.0000 
     37 H          58.2209   10.7870   17.3417 H         1 TPP1557     0.0000 
     38 H          56.6436   10.9242   17.6241 H         1 TPP1557     0.0000 
     39 H          57.1633   10.0821   16.3564 H         1 TPP1557     0.0000 
     40 H          60.9872   16.6902   14.5170 H         1 TPP1557     0.0000 
     41 H          59.5154   17.2564   14.8322 H         1 TPP1557     0.0000 
     42 H          59.8509   15.7040   15.0849 H         1 TPP1557     0.0000 
@<TRIPOS>BOND
     1    2    1 ar   
     2    8    1 ar   
     3    3    2 1    
     4    4    2 ar   
     5   37    3 1    
     6   38    3 1    
     7   39    3 1    
     8    5    4 ar   
     9    6    5 1    
    10    7    5 ar   
    11   27    6 1    
    12   28    6 1    
    13    8    7 ar   
    14    9    7 1    
    15   29    8 1    
    16   10    9 1    
    17   30    9 1    
    18   31    9 1    
    19   11   10 2    
    20   14   10 1    
    21   12   11 1    
    22   32   11 1    
    23   13   12 1    
    24   14   13 2    
    25   16   13 1    
    26   15   14 1    
    27   40   15 1    
    28   41   15 1    
    29   42   15 1    
    30   17   16 1    
    31   33   16 1    
    32   34   16 1    
    33   18   17 1    
    34   35   17 1    
    35   36   17 1    
    36   19   18 1    
    37   20   19 ar   
    38   21   19 ar   
    39   22   19 1    
    40   23   22 1    
    41   24   23 ar   
    42   25   23 ar   
    43   26   23 ar   
@<TRIPOS>SUBSTRUCTURE
     1 TPP1557     1 GROUP   
@<TRIPOS>SET

