#    Name: 3qzh_X69_1_INTS_M
#    Modification time : Tue Mar 25 10:22:39 2014

@<TRIPOS>MOLECULE
3qzh_X69_1_INTS_M
   38     0     9     0     0
SMALL
NO_CHARGES


@<TRIPOS>ATOM
      1 O         -36.4345  -46.9540   23.2355 O.2       1 ALC1        0.0000 
      2 O         -37.4470  -46.2120   24.1030 O.2       7 ALL1        0.0000 
      3 O         -35.4220  -47.6960   22.3680 O.2       4 ALP1        0.0000 
      4 O         -40.0445  -46.4120   19.6740 O.2       1 ALC1        0.0000 
      5 O         -40.0580  -45.8230   20.9460 O.2       7 ALL1        0.0000 
      6 O         -40.0310  -47.0010   18.4020 O.2       4 ALP1        0.0000 
      7 CA        -37.6635  -43.8970   24.5070 C.3       3 GLC5        0.0000 
      8 CA        -39.0560  -45.2550   25.6120 C.3       9 GLL5        0.0000 
      9 CA        -36.2710  -42.5390   23.4020 C.3       6 GLP5        0.0000 
     10 CA        -36.2690  -44.2205   24.1795 C.3       3 GLC5        0.0000 
     11 CA        -36.2670  -45.9020   24.9570 C.3       9 GLL5        0.0000 
     12 CA        -34.4280  -48.5655   24.2670 C.3       3 GLC5        0.0000 
     13 CA        -35.9640  -48.3390   25.6650 C.3       9 GLL5        0.0000 
     14 CA        -32.8920  -48.7920   22.8690 C.3       6 GLP5        0.0000 
     15 CA        -40.0895  -46.6285   27.8985 C.3       3 GLC5        0.0000 
     16 CA        -40.9510  -45.1420   28.1860 C.3       9 GLL5        0.0000 
     17 CA        -39.2280  -48.1150   27.6110 C.3       6 GLP5        0.0000 
     18 CA        -41.2910  -46.1625   29.9830 C.3       3 GLC5        0.0000 
     19 CA        -41.6310  -47.1830   31.7800 C.3       6 GLP5        0.0000 
     20 CA        -42.4790  -46.0885   27.8925 C.3       3 GLC5        0.0000 
     21 CA        -44.0070  -47.0350   27.5990 C.3       6 GLP5        0.0000 
     22 N         -37.4545  -47.4995   20.9020 N.am      2 SEC2        0.0000 
     23 N         -38.4780  -47.1030   21.8540 N.am      8 SEL2        0.0000 
     24 N         -36.4310  -47.8960   19.9500 N.am      5 SEP2        0.0000 
     25 CA        -41.1977  -46.9992   22.7285 C.3       3 GLC5        0.0000 
     26 CA        -40.9710  -45.3320   23.5220 C.3       9 GLL5        0.0000 
     27 CA        -42.0870  -48.4280   22.0590 C.3       6 GLP5        0.0000 
     28 CA        -38.5716  -44.5354   22.6545 C.3       3 GLC5        0.0000 
     29 CA        -38.6640  -45.7750   24.3260 C.3       9 GLL5        0.0000 
     30 CA        -37.6570  -43.3980   21.4470 C.3       6 GLP5        0.0000 
     31 CA        -39.4248  -46.6317   26.5110 C.3       3 GLC5        0.0000 
     32 CA        -42.0872  -46.1208   25.6124 C.3       3 GLC5        0.0000 
     33 CA        -40.3830  -44.7820   25.8530 C.3       9 GLL5        0.0000 
     34 CA        -43.4010  -47.3130   26.2190 C.3       6 GLP5        0.0000 
     35 CA        -34.0890  -46.0228   25.1140 C.3       3 GLC5        0.0000 
     36 CA        -32.0150  -45.6070   24.7460 C.3       6 GLP5        0.0000 
     37 CA        -37.5421  -47.9215   27.4935 C.3       3 GLC5        0.0000 
     38 CA        -35.9580  -46.6370   27.3820 C.3       9 GLL5        0.0000 
@<TRIPOS>BOND
@<TRIPOS>SUBSTRUCTURE
     1 ALC1        1 GROUP        1 X    ALC  0     ROOT ALC X 1
     2 SEC2       22 GROUP        1 X    SEC  0     **** SEC X 2
     3 GLC5        7 GROUP        1 X    GLC  0     **** GLC X 6
     4 ALP1        3 GROUP        1 Y    ALP  0     ROOT ALP Y 8
     5 SEP2       24 GROUP        1 Y    SEP  0     **** SEP Y 9
     6 GLP5        9 GROUP        1 Y    GLP  0     **** GLP Y 13
     7 ALL1        2 GROUP        1 Z    ALL  0     ROOT ALL Z 15
     8 SEL2       23 GROUP        1 Z    SEL  0     **** SEL Z 16
     9 GLL5        8 GROUP        1 Z    GLL  0     **** GLL Z 20
@<TRIPOS>SET

