#    Name: 3qzh_X69_1_ligand
#    Modification time : Tue Mar 25 10:22:39 2014

@<TRIPOS>MOLECULE
3qzh_X69_1_ligand
   36    37     1     0     0
SMALL
NO_CHARGES


@<TRIPOS>ATOM
      1 N01       -37.4470  -46.2120   24.1030 N.pl3     1 X69839      0.0000 
      2 N02       -40.0580  -45.8230   20.9460 N.am      1 X69839      0.0000 
      3 N03       -35.7800  -49.3380   26.5980 N.ar      1 X69839      0.0000 
      4 N04       -42.5640  -44.3960   24.9710 N.pl3     1 X69839      0.0000 
      5 C05       -40.9710  -45.3320   23.5220 C.ar      1 X69839      0.0000 
      6 C06       -39.6460  -45.8090   23.2740 C.ar      1 X69839      0.0000 
      7 C07       -38.6640  -45.7750   24.3260 C.ar      1 X69839      0.0000 
      8 C08       -39.0560  -45.2550   25.6120 C.ar      1 X69839      0.0000 
      9 C09       -40.3830  -44.7820   25.8530 C.ar      1 X69839      0.0000 
     10 C10       -41.3570  -44.8180   24.7950 C.ar      1 X69839      0.0000 
     11 C11       -39.3540  -46.2850   22.0240 C.2       1 X69839      0.0000 
     12 C12       -36.2670  -45.9020   24.9570 C.3       1 X69839      0.0000 
     13 C13       -36.0590  -46.9750   26.0070 C.ar      1 X69839      0.0000 
     14 C14       -35.9640  -48.3390   25.6650 C.ar      1 X69839      0.0000 
     15 C15       -35.6860  -48.9740   27.9230 C.ar      1 X69839      0.0000 
     16 C16       -35.7690  -47.6440   28.3630 C.ar      1 X69839      0.0000 
     17 C17       -35.9580  -46.6370   27.3820 C.ar      1 X69839      0.0000 
     18 C18       -40.9510  -45.1420   28.1860 C.3       1 X69839      0.0000 
     19 O19       -38.4780  -47.1030   21.8540 O.2       1 X69839      0.0000 
     20 O20       -42.8440  -43.5450   25.9250 O.2       1 X69839      0.0000 
     21 O21       -43.5470  -44.7960   24.1780 O.2       1 X69839      0.0000 
     22 O22       -40.7150  -44.2930   27.0880 O.3       1 X69839      0.0000 
     23 H         -37.2148  -46.8335   23.2755 H         1 X69839      0.0000 
     24 H         -39.8237  -46.2267   20.0616 H         1 X69839      0.0000 
     25 H         -40.7452  -45.1221   21.1369 H         1 X69839      0.0000 
     26 H         -41.6625  -45.3610   22.7615 H         1 X69839      0.0000 
     27 H         -38.3642  -45.2260   26.3667 H         1 X69839      0.0000 
     28 H         -36.4103  -44.9385   25.4576 H         1 X69839      0.0000 
     29 H         -35.3659  -45.8311   24.3385 H         1 X69839      0.0000 
     30 H         -36.0382  -48.5935   24.6501 H         1 X69839      0.0000 
     31 H         -35.5451  -49.7214   28.6488 H         1 X69839      0.0000 
     32 H         -35.6979  -47.4062   29.3367 H         1 X69839      0.0000 
     33 H         -36.0223  -45.6562   27.6682 H         1 X69839      0.0000 
     34 H         -40.1506  -45.7012   28.4019 H         1 X69839      0.0000 
     35 H         -41.1797  -44.6264   29.0117 H         1 X69839      0.0000 
     36 H         -41.7096  -45.7703   28.0133 H         1 X69839      0.0000 
@<TRIPOS>BOND
     1    7    1 1    
     2   12    1 1    
     3   23    1 1    
     4   11    2 am   
     5   24    2 1    
     6   25    2 1    
     7   14    3 ar   
     8   15    3 ar   
     9   10    4 1    
    10   20    4 2    
    11   21    4 2    
    12    6    5 ar   
    13   10    5 ar   
    14   26    5 1    
    15    7    6 ar   
    16   11    6 1    
    17    8    7 ar   
    18    9    8 ar   
    19   27    8 1    
    20   10    9 ar   
    21   22    9 1    
    22   19   11 2    
    23   13   12 1    
    24   28   12 1    
    25   29   12 1    
    26   14   13 ar   
    27   17   13 ar   
    28   30   14 1    
    29   16   15 ar   
    30   31   15 1    
    31   17   16 ar   
    32   32   16 1    
    33   33   17 1    
    34   22   18 1    
    35   34   18 1    
    36   35   18 1    
    37   36   18 1    
@<TRIPOS>SUBSTRUCTURE
     1 X69839      1 GROUP   
@<TRIPOS>SET

