#    Name: 4A6L_1_CAVITY_N1_6.mol2
#    Modification time : Tue Mar 11 16:35:13 2014

@<TRIPOS>MOLECULE
4A6L_1_CAVITY_N1_6.mol2
   48     0     4     0     0
SMALL
NO_CHARGES


@<TRIPOS>ATOM
      1 N          -3.8503   62.9134   -6.1778 N.2       2 ALA2        0.0000 
      2 N          -4.7360   62.0506   -7.0270 N.2       2 ALA2        0.0000 
      3 OG         -5.9033   62.9381   -6.7113 O.2       1 SER1        0.0000 
      4 CA         -1.9135   58.6121   -1.1780 C.3       3 GLY6        0.0000 
      5 OG         -3.0808   59.4996   -0.8623 O.2       1 SER1        0.0000 
      6 CA         -2.7992   57.7493   -2.0272 C.3       3 GLY6        0.0000 
      7 DU         -3.9665   58.6368   -1.7115 H         4 CUB7        0.0000 
      8 N          -5.1338   59.5244   -1.3958 N.2       2 ALA2        0.0000 
      9 DU         -3.6849   56.8865   -2.8764 H         4 CUB7        0.0000 
     10 DU         -4.8522   57.7740   -2.5607 H         4 CUB7        0.0000 
     11 CA         -6.0195   58.6616   -2.2450 C.3       3 GLY6        0.0000 
     12 N          -5.7379   56.9112   -3.4099 N.2       2 ALA2        0.0000 
     13 CA         -6.9052   57.7988   -3.0942 C.3       3 GLY6        0.0000 
     14 O          -2.4391   61.1941   -3.2533 O.2       2 ALA2        0.0000 
     15 OG         -3.6064   62.0817   -2.9376 O.2       1 SER1        0.0000 
     16 O          -3.3248   60.3313   -4.1025 O.2       2 ALA2        0.0000 
     17 OG         -4.4921   61.2189   -3.7868 O.2       1 SER1        0.0000 
     18 N          -5.6594   62.1064   -3.4711 N.2       2 ALA2        0.0000 
     19 N          -3.0432   58.5810   -5.2674 N.2       2 ALA2        0.0000 
     20 N          -4.2105   59.4685   -4.9517 N.2       2 ALA2        0.0000 
     21 CA         -5.3778   60.3561   -4.6360 C.3       3 GLY6        0.0000 
     22 CA         -2.7616   56.8306   -6.4323 C.3       3 GLY6        0.0000 
     23 N          -3.9289   57.7182   -6.1166 N.2       2 ALA2        0.0000 
     24 N          -5.0962   58.6057   -5.8009 N.2       2 ALA2        0.0000 
     25 CA         -2.7600   60.3469   -2.0578 C.3       3 GLY6        0.0000 
     26 CA         -2.4784   58.5965   -3.2227 C.3       3 GLY6        0.0000 
     27 CA         -3.6457   59.4841   -2.9070 C.3       3 GLY6        0.0000 
     28 OG         -4.8129   60.3716   -2.5913 O.2       1 SER1        0.0000 
     29 N          -3.3640   57.7337   -4.0719 N.2       2 ALA2        0.0000 
     30 DU         -4.5313   58.6213   -3.7562 H         4 CUB7        0.0000 
     31 CA         -5.6986   59.5088   -3.4405 C.3       3 GLY6        0.0000 
     32 N          -4.2497   56.8709   -4.9211 N.2       2 ALA2        0.0000 
     33 N          -5.4170   57.7585   -4.6054 N.2       2 ALA2        0.0000 
     34 N          -3.2855   62.9289   -4.1331 N.2       2 ALA2        0.0000 
     35 CA         -3.0039   61.1786   -5.2980 C.3       3 GLY6        0.0000 
     36 CA         -4.1712   62.0661   -4.9823 C.3       3 GLY6        0.0000 
     37 CA         -5.3385   62.9537   -4.6666 C.3       3 GLY6        0.0000 
     38 CA         -2.7223   59.4282   -6.4629 C.3       3 GLY6        0.0000 
     39 N          -3.8896   60.3158   -6.1472 N.2       2 ALA2        0.0000 
     40 N          -5.0569   61.2033   -5.8315 N.2       2 ALA2        0.0000 
     41 N          -6.2242   62.0909   -5.5158 N.2       2 ALA2        0.0000 
     42 O          -5.9426   60.3405   -6.6807 O.2       2 ALA2        0.0000 
     43 N          -3.4017   58.6524    0.3332 N.2       2 ALA2        0.0000 
     44 DU         -4.2874   57.7896   -0.5160 H         4 CUB7        0.0000 
     45 DU         -5.1731   56.9268   -1.3652 H         4 CUB7        0.0000 
     46 N          -6.3404   57.8143   -1.0495 N.2       2 ALA2        0.0000 
     47 DU         -6.0588   56.0640   -2.2144 H         4 CUB7        0.0000 
     48 CA         -7.2261   56.9515   -1.8987 C.3       3 GLY6        0.0000 
@<TRIPOS>BOND
@<TRIPOS>SUBSTRUCTURE
     1 SER1        3 GROUP   
     2 ALA2        1 GROUP   
     3 GLY6        4 GROUP   
     4 CUB7        7 GROUP   
@<TRIPOS>SET

