#    Name: 4a6l_P43_1_INTS_M
#    Modification time : Tue Mar 25 05:11:13 2014

@<TRIPOS>MOLECULE
4a6l_P43_1_INTS_M
   92     0    12     0     0
SMALL
NO_CHARGES


@<TRIPOS>ATOM
      1 CA         -6.4000   59.4020   -6.5790 C.3       4 GLC5        0.0000 
      2 CA         -4.6730   60.1830   -5.8050 C.3      12 GLL5        0.0000 
      3 CA         -8.1270   58.6210   -7.3530 C.3       8 GLP5        0.0000 
      4 CA         -2.6690   60.1460   -6.8090 C.3       4 GLC5        0.0000 
      5 CA         -0.6650   60.1090   -7.8130 C.3       8 GLP5        0.0000 
      6 CA         -4.0825   64.3680   -5.6700 C.3       4 GLC5        0.0000 
      7 CA         -4.4620   62.5210   -4.9300 C.3      12 GLL5        0.0000 
      8 CA         -3.7030   66.2150   -6.4100 C.3       8 GLP5        0.0000 
      9 CA         -4.4670   64.1875   -6.8880 C.3       4 GLC5        0.0000 
     10 CA         -5.2310   62.1600   -7.3660 C.3      12 GLL5        0.0000 
     11 CA         -6.6955   62.7485   -8.4125 C.3       4 GLC5        0.0000 
     12 CA         -8.1600   63.3370   -9.4590 C.3       8 GLP5        0.0000 
     13 OD1        -4.7395   62.9990   -9.2525 O.co2     3 ASC3        0.0000 
     14 OD1        -4.5720   61.5100   -8.4650 O.co2    11 ASL3        0.0000 
     15 OD1        -4.9070   64.4880  -10.0400 O.co2     7 ASP3        0.0000 
     16 OD1        -4.4120   62.0680   -9.7630 O.co2     3 ASC3        0.0000 
     17 OD1        -4.2520   62.6260  -11.0610 O.co2     7 ASP3        0.0000 
     18 O          -4.7395   62.9990   -9.2525 O.2       1 ALC1        0.0000 
     19 O          -4.5720   61.5100   -8.4650 O.2       9 ALL1        0.0000 
     20 O          -4.9070   64.4880  -10.0400 O.2       5 ALP1        0.0000 
     21 O          -4.4120   62.0680   -9.7630 O.2       1 ALC1        0.0000 
     22 O          -4.2520   62.6260  -11.0610 O.2       5 ALP1        0.0000 
     23 O          -3.4230   62.5855   -8.2600 O.2       1 ALC1        0.0000 
     24 O          -2.2740   63.6610   -8.0550 O.2       5 ALP1        0.0000 
     25 O          -4.1880   60.1445   -8.6450 O.2       1 ALC1        0.0000 
     26 O          -3.8040   58.7790   -8.8250 O.2       5 ALP1        0.0000 
     27 CA         -6.9660   58.9435   -3.7565 C.3       4 GLC5        0.0000 
     28 CA         -5.5860   57.7600   -3.6330 C.3      12 GLL5        0.0000 
     29 CA         -8.3460   60.1270   -3.8800 C.3       8 GLP5        0.0000 
     30 N          -4.3430   55.0855   -7.5690 N.am      2 SEC2        0.0000 
     31 N          -4.4630   54.0930   -6.3640 N.am     10 SEL2        0.0000 
     32 N          -4.2230   56.0780   -8.7740 N.am      6 SEP2        0.0000 
     33 CA         -6.5640   54.8580   -7.1390 C.3       4 GLC5        0.0000 
     34 CA         -6.5540   54.0650   -5.1590 C.3      12 GLL5        0.0000 
     35 CA         -6.5740   55.6510   -9.1190 C.3       8 GLP5        0.0000 
     36 CA         -7.5445   54.5085   -7.5400 C.3       4 GLC5        0.0000 
     37 CA         -8.5150   53.3660   -5.9610 C.3      12 GLL5        0.0000 
     38 CA        -10.5025   53.8810   -3.7940 C.3       4 GLC5        0.0000 
     39 CA         -8.6190   53.2380   -4.6030 C.3      12 GLL5        0.0000 
     40 CA        -12.3860   54.5240   -2.9850 C.3       8 GLP5        0.0000 
     41 CA         -8.6950   52.8575  -10.2520 C.3       4 GLC5        0.0000 
     42 CA        -10.7080   52.3590  -10.3220 C.3      12 GLL5        0.0000 
     43 CA         -6.6820   53.3560  -10.1820 C.3       8 GLP5        0.0000 
     44 CA         -9.9920   53.8740  -11.7990 C.3       4 GLC5        0.0000 
     45 CA         -9.2760   55.3890  -13.2760 C.3       8 GLP5        0.0000 
     46 CA        -12.8675   54.5230   -6.7280 C.3       4 GLC5        0.0000 
     47 CA        -12.9100   52.7190   -7.1430 C.3      12 GLL5        0.0000 
     48 CA        -12.8250   56.3270   -6.3130 C.3       8 GLP5        0.0000 
     49 CA        -14.4945   52.4935   -6.6185 C.3       4 GLC5        0.0000 
     50 CA        -16.0790   52.2680   -6.0940 C.3       8 GLP5        0.0000 
     51 CA        -13.0295   51.7975   -5.1420 C.3       4 GLC5        0.0000 
     52 CA        -13.1490   50.8760   -3.1410 C.3       8 GLP5        0.0000 
     53 CA        -10.6330   54.5192   -6.8447 C.3       4 GLC5        0.0000 
     54 CA        -10.2070   52.8750   -7.8910 C.3      12 GLL5        0.0000 
     55 CA        -11.4510   56.0480   -6.2310 C.3       8 GLP5        0.0000 
     56 CA         -8.5540   53.8658   -8.7822 C.3       4 GLC5        0.0000 
     57 CA         -9.4230   53.1060   -7.0260 C.3      12 GLL5        0.0000 
     58 CA         -7.2930   54.7410  -10.1060 C.3       8 GLP5        0.0000 
     59 CA         -1.9343   61.2532   -3.0660 C.3       4 GLC5        0.0000 
     60 CA         -4.0660   62.0940   -3.6050 C.3      12 GLL5        0.0000 
     61 CA          0.1470   61.1190   -2.6310 C.3       8 GLP5        0.0000 
     62 CA         -4.8365   63.8403   -3.7077 C.3       4 GLC5        0.0000 
     63 CA         -5.4090   65.3730   -3.1480 C.3       8 GLP5        0.0000 
     64 CA         -6.2328   60.1688   -3.9045 C.3       4 GLC5        0.0000 
     65 CA         -3.9650   60.6810   -3.3970 C.3      12 GLL5        0.0000 
     66 CA         -6.5382   60.5048   -4.8922 C.3       4 GLC5        0.0000 
     67 CA         -2.5945   62.4299   -5.5479 C.3       4 GLC5        0.0000 
     68 CA         -4.7880   61.5820   -6.0040 C.3      12 GLL5        0.0000 
     69 CA         -0.6630   62.9150   -5.9600 C.3       8 GLP5        0.0000 
     70 CA         -1.8525   58.2095   -3.8302 C.3       4 GLC5        0.0000 
     71 CA         -4.1680   58.2980   -4.1550 C.3      12 GLL5        0.0000 
     72 CA          0.0830   58.5220   -2.9490 C.3       8 GLP5        0.0000 
     73 CA         -3.1122   56.6753   -7.0717 C.3       4 GLC5        0.0000 
     74 CA         -3.4080   57.4960   -5.2680 C.3      12 GLL5        0.0000 
     75 CA         -2.9010   56.5790   -9.1160 C.3       8 GLP5        0.0000 
     76 CA        -11.2730   50.5440   -9.2697 C.3       4 GLC5        0.0000 
     77 CA        -11.1420   52.5970   -8.9210 C.3      12 GLL5        0.0000 
     78 CA        -11.6210   48.6100   -8.9180 C.3       8 GLP5        0.0000 
     79 CA        -12.9960   50.7560  -12.6022 C.3       4 GLC5        0.0000 
     80 CA        -11.7140   52.0080  -11.3520 C.3      12 GLL5        0.0000 
     81 CA        -13.5960   49.5440  -14.0840 C.3       8 GLP5        0.0000 
     82 CA        -12.0085   50.2890  -10.0192 C.3       4 GLC5        0.0000 
     83 CA        -13.0780   51.9280  -10.8890 C.3      12 GLL5        0.0000 
     84 CA        -14.9060   52.5772  -10.6230 C.3       4 GLC5        0.0000 
     85 CA        -16.5180   53.1190  -11.0610 C.3       8 GLP5        0.0000 
     86 CA        -12.3208   50.4668   -8.9500 C.3       4 GLC5        0.0000 
     87 CA        -13.5100   52.1430   -9.4810 C.3      12 GLL5        0.0000 
     88 CA        -14.3487   51.1963   -8.1150 C.3       4 GLC5        0.0000 
     89 CA        -12.5310   52.5040   -8.4830 C.3      12 GLL5        0.0000 
     90 CA        -15.6770   50.0690   -7.2480 C.3       8 GLP5        0.0000 
     91 CA        -14.1468   53.9333   -8.3010 C.3       4 GLC5        0.0000 
     92 CA        -15.5730   55.2550   -8.7890 C.3       8 GLP5        0.0000 
@<TRIPOS>BOND
@<TRIPOS>SUBSTRUCTURE
     1 ALC1       18 GROUP        1 X    ALC  0     ROOT ALC X 1
     2 SEC2       30 GROUP        1 X    SEC  0     **** SEC X 2
     3 ASC3       13 GROUP        1 X    ASC  0     **** ASC X 3
     4 GLC5        1 GROUP        1 X    GLC  0     **** GLC X 6
     5 ALP1       20 GROUP        1 Y    ALP  0     ROOT ALP Y 8
     6 SEP2       32 GROUP        1 Y    SEP  0     **** SEP Y 9
     7 ASP3       15 GROUP        1 Y    ASP  0     **** ASP Y 10
     8 GLP5        3 GROUP        1 Y    GLP  0     **** GLP Y 13
     9 ALL1       19 GROUP        1 Z    ALL  0     ROOT ALL Z 15
    10 SEL2       31 GROUP        1 Z    SEL  0     **** SEL Z 16
    11 ASL3       14 GROUP        1 Z    ASL  0     **** ASL Z 17
    12 GLL5        2 GROUP        1 Z    GLL  0     **** GLL Z 20
@<TRIPOS>SET

