#    Name: 4a6l_P43_1_ligand
#    Modification time : Tue Mar 25 05:11:13 2014

@<TRIPOS>MOLECULE
4a6l_P43_1_ligand
   54    57     1     0     0
SMALL
NO_CHARGES


@<TRIPOS>ATOM
      1 C1         -9.4230   53.1060   -7.0260 C.1       1 P431263     0.0000 
      2 C2         -4.0660   62.0940   -3.6050 C.ar      1 P431263     0.0000 
      3 C3         -3.9650   60.6810   -3.3970 C.ar      1 P431263     0.0000 
      4 C4         -4.2740   59.7400   -4.4610 C.ar      1 P431263     0.0000 
      5 C5         -4.6730   60.1830   -5.8050 C.ar      1 P431263     0.0000 
      6 C6         -4.7880   61.5820   -6.0040 C.ar      1 P431263     0.0000 
      7 C7         -4.4620   62.5210   -4.9300 C.ar      1 P431263     0.0000 
      8 C8         -5.2310   62.1600   -7.3660 C.3       1 P431263     0.0000 
      9 N9         -4.5720   61.5100   -8.4650 N.4       1 P431263     0.0000 
     10 C10        -4.1680   58.2980   -4.1550 C.3       1 P431263     0.0000 
     11 C11        -3.4080   57.4960   -5.2680 C.3       1 P431263     0.0000 
     12 C12        -3.2390   56.0470   -4.7870 C.3       1 P431263     0.0000 
     13 N13        -4.6460   55.5340   -4.5640 N.am      1 P431263     0.0000 
     14 C15        -5.5860   57.7600   -3.6330 C.3       1 P431263     0.0000 
     15 C14        -5.4500   56.2240   -3.3570 C.3       1 P431263     0.0000 
     16 C16        -5.1590   54.5850   -5.3760 C.2       1 P431263     0.0000 
     17 O17        -4.4630   54.0930   -6.3640 O.2       1 P431263     0.0000 
     18 C18        -6.5540   54.0650   -5.1590 C.2       1 P431263     0.0000 
     19 O19        -7.2930   53.8650   -6.2900 O.3       1 P431263     0.0000 
     20 C20        -8.5150   53.3660   -5.9610 C.2       1 P431263     0.0000 
     21 C21        -8.6190   53.2380   -4.6030 C.2       1 P431263     0.0000 
     22 C22        -7.2990   53.7050   -4.0540 C.2       1 P431263     0.0000 
     23 C23       -10.2070   52.8750   -7.8910 C.1       1 P431263     0.0000 
     24 C24       -11.1420   52.5970   -8.9210 C.ar      1 P431263     0.0000 
     25 C25       -10.7080   52.3590  -10.3220 C.ar      1 P431263     0.0000 
     26 C26       -11.7140   52.0080  -11.3520 C.ar      1 P431263     0.0000 
     27 C27       -13.0780   51.9280  -10.8890 C.ar      1 P431263     0.0000 
     28 C28       -13.5100   52.1430   -9.4810 C.ar      1 P431263     0.0000 
     29 C29       -12.5310   52.5040   -8.4830 C.ar      1 P431263     0.0000 
     30 F30       -12.9100   52.7190   -7.1430 F         1 P431263     0.0000 
     31 H          -3.8778   62.7459   -2.8902 H         1 P431263     0.0000 
     32 H          -3.6720   60.3191   -2.4901 H         1 P431263     0.0000 
     33 H          -4.8462   59.5210   -6.5151 H         1 P431263     0.0000 
     34 H          -4.5188   63.5276   -5.1323 H         1 P431263     0.0000 
     35 H          -5.0174   63.2416   -7.3478 H         1 P431263     0.0000 
     36 H          -6.3264   62.0498   -7.4278 H         1 P431263     0.0000 
     37 H          -3.4959   58.2368   -3.2219 H         1 P431263     0.0000 
     38 H          -2.4459   57.9460   -5.4183 H         1 P431263     0.0000 
     39 H          -3.9939   57.5171   -6.1663 H         1 P431263     0.0000 
     40 H          -2.6952   56.0413   -3.8694 H         1 P431263     0.0000 
     41 H          -2.7555   55.4770   -5.5480 H         1 P431263     0.0000 
     42 H          -6.3076   57.9256   -4.3979 H         1 P431263     0.0000 
     43 H          -5.8231   58.2685   -2.7283 H         1 P431263     0.0000 
     44 H          -4.8953   56.0674   -2.4554 H         1 P431263     0.0000 
     45 H          -6.4220   55.7791   -3.3075 H         1 P431263     0.0000 
     46 H          -9.3011   52.9435   -4.0699 H         1 P431263     0.0000 
     47 H          -7.1040   53.7189   -3.1654 H         1 P431263     0.0000 
     48 H          -9.7466   52.4353  -10.5656 H         1 P431263     0.0000 
     49 H         -11.4527   51.8458  -12.2745 H         1 P431263     0.0000 
     50 H         -13.8263   51.7051  -11.5745 H         1 P431263     0.0000 
     51 H         -14.4762   52.0334   -9.2476 H         1 P431263     0.0000 
     52 H          -3.5787   61.6148   -8.4169 H         1 P431263     0.0000 
     53 H          -4.7626   60.5285   -8.4844 H         1 P431263     0.0000 
     54 H          -4.8637   61.8827   -9.3459 H         1 P431263     0.0000 
@<TRIPOS>BOND
     1   20    1 1    
     2   23    1 3    
     3    3    2 ar   
     4    7    2 ar   
     5   31    2 1    
     6    4    3 ar   
     7   32    3 1    
     8    5    4 ar   
     9   10    4 1    
    10    6    5 ar   
    11   33    5 1    
    12    7    6 ar   
    13    8    6 1    
    14   34    7 1    
    15    9    8 1    
    16   35    8 1    
    17   36    8 1    
    18   52    9 1    
    19   53    9 1    
    20   54    9 1    
    21   11   10 1    
    22   14   10 1    
    23   37   10 1    
    24   12   11 1    
    25   38   11 1    
    26   39   11 1    
    27   13   12 1    
    28   40   12 1    
    29   41   12 1    
    30   15   13 1    
    31   16   13 am   
    32   15   14 1    
    33   42   14 1    
    34   43   14 1    
    35   44   15 1    
    36   45   15 1    
    37   17   16 2    
    38   18   16 1    
    39   19   18 1    
    40   22   18 2    
    41   20   19 1    
    42   21   20 2    
    43   22   21 1    
    44   46   21 1    
    45   47   22 1    
    46   24   23 1    
    47   25   24 ar   
    48   29   24 ar   
    49   26   25 ar   
    50   48   25 1    
    51   27   26 ar   
    52   49   26 1    
    53   28   27 ar   
    54   50   27 1    
    55   29   28 ar   
    56   51   28 1    
    57   30   29 1    
@<TRIPOS>SUBSTRUCTURE
     1 P431263     1 GROUP   
@<TRIPOS>SET

