#    Name: 3ARX_1_CAVITY_N1_6.mol2
#    Modification time : Tue Mar 11 09:43:41 2014

@<TRIPOS>MOLECULE
3ARX_1_CAVITY_N1_6.mol2
   76     0     6     0     0
SMALL
NO_CHARGES


@<TRIPOS>ATOM
      1 OG         17.1949   -6.9345   28.4281 O.2       1 SER1        0.0000 
      2 CA         15.3900   -7.6475   27.5713 C.3       5 GLY6        0.0000 
      3 NZ         15.3106   -6.4182   26.7154 N.2       3 LYS4        0.0000 
      4 NZ         14.8833   -6.0377   24.6727 N.2       3 LYS4        0.0000 
      5 NZ         14.8040   -4.8084   23.8168 N.2       3 LYS4        0.0000 
      6 CA         14.6147   -8.1157   24.3418 C.3       5 GLY6        0.0000 
      7 O          14.5354   -6.8865   23.4859 O.2       2 ALA2        0.0000 
      8 CA         14.2667   -8.9645   23.1551 C.3       5 GLY6        0.0000 
      9 O          14.1874   -7.7353   22.2991 O.2       2 ALA2        0.0000 
     10 NZ         13.8537   -6.2824   27.0455 N.2       3 LYS4        0.0000 
     11 NZ         13.7744   -5.0531   26.1896 N.2       3 LYS4        0.0000 
     12 CA         13.5851   -8.3605   26.7146 C.3       5 GLY6        0.0000 
     13 CA         13.5057   -7.1312   25.8587 C.3       5 GLY6        0.0000 
     14 NZ         13.4264   -5.9019   25.0028 N.2       3 LYS4        0.0000 
     15 NZ         13.3471   -4.6726   24.1469 N.2       3 LYS4        0.0000 
     16 CA         13.2677   -3.4433   23.2910 C.3       5 GLY6        0.0000 
     17 CA         13.1578   -7.9800   24.6719 C.3       5 GLY6        0.0000 
     18 DU         13.0784   -6.7507   23.8160 H         6 CUB7        0.0000 
     19 O          12.9991   -5.5214   22.9601 O.2       2 ALA2        0.0000 
     20 O          12.9198   -4.2921   22.1042 O.2       2 ALA2        0.0000 
     21 CA         12.8404   -3.0629   21.2483 C.3       5 GLY6        0.0000 
     22 CA         12.8098   -8.8288   23.4851 C.3       5 GLY6        0.0000 
     23 O          12.7305   -7.5995   22.6292 O.2       2 ALA2        0.0000 
     24 O          12.6511   -6.3702   21.7733 O.2       2 ALA2        0.0000 
     25 CA         12.4618   -9.6775   22.2983 C.3       5 GLY6        0.0000 
     26 NZ         12.3825   -8.4483   21.4424 N.2       3 LYS4        0.0000 
     27 NZ         12.1139  -10.5263   21.1115 N.2       3 LYS4        0.0000 
     28 CA         12.4761   -7.3759   28.2315 C.3       5 GLY6        0.0000 
     29 DU         12.3968   -6.1466   27.3756 H         6 CUB7        0.0000 
     30 NZ         12.3175   -4.9173   26.5197 N.2       3 LYS4        0.0000 
     31 NZ         12.2381   -3.6881   25.6637 N.2       3 LYS4        0.0000 
     32 CA         12.1282   -8.2247   27.0447 C.3       5 GLY6        0.0000 
     33 DU         12.0488   -6.9954   26.1888 H         6 CUB7        0.0000 
     34 DU         11.9695   -5.7661   25.3329 H         6 CUB7        0.0000 
     35 DU         11.8902   -4.5368   24.4770 H         6 CUB7        0.0000 
     36 DU         11.8108   -3.3076   23.6210 H         6 CUB7        0.0000 
     37 CA         11.7802   -9.0735   25.8579 C.3       5 GLY6        0.0000 
     38 CA         11.7009   -7.8442   25.0020 C.3       5 GLY6        0.0000 
     39 DU         11.6215   -6.6149   24.1461 H         6 CUB7        0.0000 
     40 O          11.5422   -5.3856   23.2902 O.2       2 ALA2        0.0000 
     41 O          11.4628   -4.1563   22.4342 O.2       2 ALA2        0.0000 
     42 CA         11.3529   -8.6930   23.8152 C.3       5 GLY6        0.0000 
     43 DU         11.2735   -7.4637   22.9593 H         6 CUB7        0.0000 
     44 O          11.1942   -6.2344   22.1034 O.2       2 ALA2        0.0000 
     45 O          11.1149   -5.0051   21.2475 O.2       2 ALA2        0.0000 
     46 CZ         11.0355   -3.7759   20.3915 C.ar      4 PHE5        0.0000 
     47 CA         11.0842  -10.7710   23.4843 C.3       5 GLY6        0.0000 
     48 CA         11.0049   -9.5418   22.6284 C.3       5 GLY6        0.0000 
     49 NZ         10.9256   -8.3125   21.7725 N.2       3 LYS4        0.0000 
     50 NZ         10.8462   -7.0832   20.9166 N.2       3 LYS4        0.0000 
     51 NZ         10.6569  -10.3905   21.4416 N.2       3 LYS4        0.0000 
     52 NZ         10.5776   -9.1613   20.5857 N.2       3 LYS4        0.0000 
     53 NZ         10.4983   -7.9320   19.7298 N.2       3 LYS4        0.0000 
     54 CZ         10.2296  -10.0100   19.3989 C.ar      4 PHE5        0.0000 
     55 OG         10.6712   -8.0889   27.3747 O.2       1 SER1        0.0000 
     56 DU         10.5919   -6.8596   26.5188 H         6 CUB7        0.0000 
     57 CZ         10.5126   -5.6303   25.6629 C.ar      4 PHE5        0.0000 
     58 NZ         10.4332   -4.4011   24.8070 N.2       3 LYS4        0.0000 
     59 O          10.4026  -10.1670   27.0439 O.2       2 ALA2        0.0000 
     60 CA         10.3233   -8.9377   26.1879 C.3       5 GLY6        0.0000 
     61 CZ         10.2439   -7.7084   25.3320 C.ar      4 PHE5        0.0000 
     62 CZ         10.1646   -6.4791   24.4761 C.ar      4 PHE5        0.0000 
     63 O          10.0853   -5.2498   23.6202 O.2       2 ALA2        0.0000 
     64 O           9.9753   -9.7865   25.0012 O.2       2 ALA2        0.0000 
     65 CZ          9.8960   -8.5572   24.1452 C.ar      4 PHE5        0.0000 
     66 CZ          9.8166   -7.3279   23.2893 C.ar      4 PHE5        0.0000 
     67 O           9.6273  -10.6352   23.8144 O.2       2 ALA2        0.0000 
     68 DU          9.5480   -9.4060   22.9585 H         6 CUB7        0.0000 
     69 CZ          9.4687   -8.1767   22.1025 C.ar      4 PHE5        0.0000 
     70 O           9.3893   -6.9474   21.2466 O.2       2 ALA2        0.0000 
     71 NZ          9.2000  -10.2548   21.7717 N.2       3 LYS4        0.0000 
     72 CZ          9.1207   -9.0255   20.9157 C.ar      4 PHE5        0.0000 
     73 CA          9.0413   -7.7962   20.0598 C.3       5 GLY6        0.0000 
     74 CZ          8.7870   -7.5726   25.6621 C.ar      4 PHE5        0.0000 
     75 CZ          8.4390   -8.4214   24.4753 C.ar      4 PHE5        0.0000 
     76 CZ          8.0911   -9.2702   23.2885 C.ar      4 PHE5        0.0000 
@<TRIPOS>BOND
@<TRIPOS>SUBSTRUCTURE
     1 SER1        1 GROUP   
     2 ALA2        7 GROUP   
     3 LYS4        3 GROUP   
     4 PHE5       46 GROUP   
     5 GLY6        2 GROUP   
     6 CUB7       18 GROUP   
@<TRIPOS>SET

