#    Name: 3arx_POY_1_INTS_M
#    Modification time : Mon Mar 24 18:09:06 2014

@<TRIPOS>MOLECULE
3arx_POY_1_INTS_M
   37     0     3     0     0
SMALL
NO_CHARGES


@<TRIPOS>ATOM
      1 CA         21.2140   -8.5515   21.7260 C.3       1 GLC5        0.0000 
      2 CA         19.4970   -9.8800   21.8250 C.3       3 GLL5        0.0000 
      3 CA         22.9310   -7.2230   21.6270 C.3       2 GLP5        0.0000 
      4 CA         19.1025   -9.9805   17.9355 C.3       1 GLC5        0.0000 
      5 CA         18.1300  -11.7040   18.2110 C.3       3 GLL5        0.0000 
      6 CA         20.0750   -8.2570   17.6600 C.3       2 GLP5        0.0000 
      7 CA         16.8890  -13.0230   20.5620 C.3       1 GLC5        0.0000 
      8 CA         17.3990  -13.0380   18.5360 C.3       3 GLL5        0.0000 
      9 CA         16.3790  -13.0080   22.5880 C.3       2 GLP5        0.0000 
     10 CA         17.4205  -15.9905   17.6470 C.3       1 GLC5        0.0000 
     11 CA         17.4380  -14.1100   17.3390 C.3       3 GLL5        0.0000 
     12 CA         17.4030  -17.8710   17.9550 C.3       2 GLP5        0.0000 
     13 CA         16.6905  -16.2820   13.4365 C.3       1 GLC5        0.0000 
     14 CA         16.8370  -15.5300   15.0160 C.3       3 GLL5        0.0000 
     15 CA         16.5440  -17.0340   11.8570 C.3       2 GLP5        0.0000 
     16 CA         16.3800  -17.0655   15.5165 C.3       1 GLC5        0.0000 
     17 CA         15.9230  -18.6010   16.0170 C.3       2 GLP5        0.0000 
     18 CA         18.3155  -15.4045   14.2235 C.3       1 GLC5        0.0000 
     19 CA         19.7940  -15.2790   13.4310 C.3       2 GLP5        0.0000 
     20 CA         22.0805   -9.3655   21.0830 C.3       1 GLC5        0.0000 
     21 CA         21.6680  -10.9920   21.8710 C.3       3 GLL5        0.0000 
     22 CA         22.4930   -7.7390   20.2950 C.3       2 GLP5        0.0000 
     23 CA         16.5250   -9.8925   23.5115 C.3       1 GLC5        0.0000 
     24 CA         16.4580   -8.1840   22.0690 C.3       3 GLL5        0.0000 
     25 CA         16.5920  -11.6010   24.9540 C.3       2 GLP5        0.0000 
     26 CA         17.6960   -7.5525   20.6435 C.3       1 GLC5        0.0000 
     27 CA         18.9340   -6.9210   19.2180 C.3       2 GLP5        0.0000 
     28 CA         15.3455  -10.4315   23.6650 C.3       1 GLC5        0.0000 
     29 CA         15.3960   -8.9200   22.8640 C.3       3 GLL5        0.0000 
     30 CA         15.2950  -11.9430   24.4660 C.3       2 GLP5        0.0000 
     31 CA         14.1500   -9.8905   24.1170 C.3       1 GLC5        0.0000 
     32 CA         13.9460   -8.3970   22.8470 C.3       3 GLL5        0.0000 
     33 CA         14.3540  -11.3840   25.3870 C.3       2 GLP5        0.0000 
     34 CA         16.2787  -14.7800   19.1638 C.3       1 GLC5        0.0000 
     35 CA         15.1390  -15.9860   20.3900 C.3       2 GLP5        0.0000 
     36 CA         18.4720  -13.8175   15.2425 C.3       1 GLC5        0.0000 
     37 CA         19.8180  -13.9310   13.7350 C.3       2 GLP5        0.0000 
@<TRIPOS>BOND
@<TRIPOS>SUBSTRUCTURE
     1 GLC5        1 GROUP        1 X    GLC  0     ROOT GLC X 6
     2 GLP5        3 GROUP        1 Y    GLP  0     ROOT GLP Y 13
     3 GLL5        2 GROUP        1 Z    GLL  0     ROOT GLL Z 20
@<TRIPOS>SET

