#    Name: 3arx_POY_1_ligand
#    Modification time : Mon Mar 24 18:09:06 2014

@<TRIPOS>MOLECULE
3arx_POY_1_ligand
   44    45     1     0     0
SMALL
NO_CHARGES


@<TRIPOS>ATOM
      1 N1         18.6050  -11.0460   19.5070 N.am      1 POY606      0.0000 
      2 C2         17.7710  -10.1930   20.1530 C.2       1 POY606      0.0000 
      3 C3         18.2430   -9.6350   21.3400 C.2       1 POY606      0.0000 
      4 C4         19.4970   -9.8800   21.8250 C.2       1 POY606      0.0000 
      5 N5         20.3340  -10.7510   21.2020 N.am      1 POY606      0.0000 
      6 C6         19.9000  -11.3380   20.0300 C.2       1 POY606      0.0000 
      7 N7         17.7600   -8.7540   22.2020 N.pl3     1 POY606      0.0000 
      8 C8         18.7130   -8.5680   23.2450 C.2       1 POY606      0.0000 
      9 N9         19.7830   -9.2180   23.0080 N.2       1 POY606      0.0000 
     10 C10        18.1300  -11.7040   18.2110 C.3       1 POY606      0.0000 
     11 C11        17.3990  -13.0380   18.5360 C.3       1 POY606      0.0000 
     12 C12        17.4380  -14.1100   17.3390 C.3       1 POY606      0.0000 
     13 C13        16.8140  -13.2980   16.1610 C.3       1 POY606      0.0000 
     14 C14        16.6410  -14.1580   14.9440 C.2       1 POY606      0.0000 
     15 C15        16.8370  -15.5300   15.0160 C.3       1 POY606      0.0000 
     16 O16        16.1210  -13.6430   13.8760 O.2       1 POY606      0.0000 
     17 O17        16.6050  -10.0590   19.7440 O.2       1 POY606      0.0000 
     18 O18        20.6550  -12.1120   19.4180 O.2       1 POY606      0.0000 
     19 C19        21.6680  -10.9920   21.8710 C.3       1 POY606      0.0000 
     20 C20        16.4580   -8.1840   22.0690 C.3       1 POY606      0.0000 
     21 C21        15.3960   -8.9200   22.8640 C.3       1 POY606      0.0000 
     22 C22        13.9460   -8.3970   22.8470 C.3       1 POY606      0.0000 
     23 H          18.4935   -7.9945   24.0152 H         1 POY606      0.0000 
     24 H          18.9791  -11.9192   17.5775 H         1 POY606      0.0000 
     25 H          17.4413  -11.0470   17.6983 H         1 POY606      0.0000 
     26 H          16.3512  -12.8349   18.7609 H         1 POY606      0.0000 
     27 H          17.8590  -13.5033   19.4087 H         1 POY606      0.0000 
     28 H          16.8200  -14.9075   17.5934 H         1 POY606      0.0000 
     29 H          18.4328  -14.3354   17.1335 H         1 POY606      0.0000 
     30 H          17.4746  -12.4593   15.9431 H         1 POY606      0.0000 
     31 H          15.8512  -12.9100   16.4923 H         1 POY606      0.0000 
     32 H          16.1326   -8.1698   21.0054 H         1 POY606      0.0000 
     33 H          16.4491   -7.1217   22.3987 H         1 POY606      0.0000 
     34 H          15.7267   -8.9790   23.9389 H         1 POY606      0.0000 
     35 H          15.3766   -9.9954   22.5303 H         1 POY606      0.0000 
     36 H          17.7678  -15.7577   15.3020 H         1 POY606      0.0000 
     37 H          16.2156  -15.9601   15.6710 H         1 POY606      0.0000 
     38 H          16.6849  -15.9737   14.1328 H         1 POY606      0.0000 
     39 H          22.2277  -11.6438   21.3593 H         1 POY606      0.0000 
     40 H          22.2002  -10.1493   21.9526 H         1 POY606      0.0000 
     41 H          21.5593  -11.3605   22.7942 H         1 POY606      0.0000 
     42 H          13.8830   -7.4653   23.2046 H         1 POY606      0.0000 
     43 H          13.5675   -8.3819   21.9215 H         1 POY606      0.0000 
     44 H          13.3395   -8.9658   23.4025 H         1 POY606      0.0000 
@<TRIPOS>BOND
     1    2    1 am   
     2    6    1 am   
     3   10    1 1    
     4    3    2 1    
     5   17    2 2    
     6    4    3 2    
     7    7    3 1    
     8    5    4 1    
     9    9    4 1    
    10    6    5 am   
    11   19    5 1    
    12   18    6 2    
    13    8    7 1    
    14   20    7 1    
    15    9    8 2    
    16   23    8 1    
    17   11   10 1    
    18   24   10 1    
    19   25   10 1    
    20   12   11 1    
    21   26   11 1    
    22   27   11 1    
    23   13   12 1    
    24   28   12 1    
    25   29   12 1    
    26   14   13 1    
    27   30   13 1    
    28   31   13 1    
    29   15   14 1    
    30   16   14 2    
    31   36   15 1    
    32   37   15 1    
    33   38   15 1    
    34   39   19 1    
    35   40   19 1    
    36   41   19 1    
    37   21   20 1    
    38   32   20 1    
    39   33   20 1    
    40   22   21 1    
    41   34   21 1    
    42   35   21 1    
    43   42   22 1    
    44   43   22 1    
    45   44   22 1    
@<TRIPOS>SUBSTRUCTURE
     1 POY606      1 GROUP   
@<TRIPOS>SET

