#    Name: 1opk_P16_1_INTS_M
#    Modification time : Mon Mar 24 20:23:07 2014

@<TRIPOS>MOLECULE
1opk_P16_1_INTS_M
   84     0     9     0     0
SMALL
NO_CHARGES


@<TRIPOS>ATOM
      1 CA         51.7870   16.4065   15.0165 C.3       3 GLC5        0.0000 
      2 CA         49.8040   15.7040   14.4610 C.3       9 GLL5        0.0000 
      3 CA         53.7700   17.1090   15.5720 C.3       6 GLP5        0.0000 
      4 CA         47.3900   17.4350   14.1710 C.3       3 GLC5        0.0000 
      5 CA         48.5350   15.9740   15.0610 C.3       9 GLL5        0.0000 
      6 CA         46.2450   18.8960   13.2810 C.3       6 GLP5        0.0000 
      7 CA         48.1085   14.7735   17.2685 C.3       3 GLC5        0.0000 
      8 CA         47.6040   14.9030   15.2640 C.3       9 GLL5        0.0000 
      9 CA         48.6130   14.6440   19.2730 C.3       6 GLP5        0.0000 
     10 O          45.4995   14.1300   15.1765 O.2       1 ALC1        0.0000 
     11 O          46.3300   15.0460   15.8740 O.2       7 ALL1        0.0000 
     12 O          44.6690   13.2140   14.4790 O.2       4 ALP1        0.0000 
     13 CA         47.2550   15.3525   17.9770 C.3       3 GLC5        0.0000 
     14 CA         45.8970   16.0610   16.6810 C.3       9 GLL5        0.0000 
     15 CA         44.2835   15.6975   15.4335 C.3       3 GLC5        0.0000 
     16 CA         42.6700   15.3340   14.1860 C.3       6 GLP5        0.0000 
     17 CA         45.1640   17.6970   15.8355 C.3       3 GLC5        0.0000 
     18 CA         44.4310   19.3330   14.9900 C.3       6 GLP5        0.0000 
     19 N          43.6000   14.9755   16.7265 N.am      2 SEC2        0.0000 
     20 N          44.6140   15.9020   17.1770 N.am      8 SEL2        0.0000 
     21 N          42.5860   14.0490   16.2760 N.am      5 SEP2        0.0000 
     22 CA         43.1375   15.1525   18.2975 C.3       3 GLC5        0.0000 
     23 CA         44.1550   16.8600   18.0020 C.3       9 GLL5        0.0000 
     24 CA         42.1200   13.4450   18.5930 C.3       6 GLP5        0.0000 
     25 CA         42.9575   16.6450   16.3700 C.3       3 GLC5        0.0000 
     26 CA         41.7600   16.4300   14.7380 C.3       6 GLP5        0.0000 
     27 CA         42.5680   19.5290   18.9415 C.3       3 GLC5        0.0000 
     28 CA         44.4520   19.0260   19.2590 C.3       9 GLL5        0.0000 
     29 CA         40.6840   20.0320   18.6240 C.3       6 GLP5        0.0000 
     30 CA         42.7245   18.8315   20.6220 C.3       3 GLC5        0.0000 
     31 CA         40.9970   18.6370   21.9850 C.3       6 GLP5        0.0000 
     32 CA         47.1005   19.1200   20.3690 C.3       3 GLC5        0.0000 
     33 CA         45.2430   20.0910   19.5760 C.3       9 GLL5        0.0000 
     34 CA         48.9580   18.1490   21.1620 C.3       6 GLP5        0.0000 
     35 CA         47.4275   16.3680   18.5305 C.3       3 GLC5        0.0000 
     36 CA         46.2420   18.0920   17.7880 C.3       9 GLL5        0.0000 
     37 CA         47.6000   18.1205   19.4750 C.3       3 GLC5        0.0000 
     38 CA         49.8560   19.7240   16.8395 C.3       3 GLC5        0.0000 
     39 CA         48.4070   19.2460   17.4790 C.3       9 GLL5        0.0000 
     40 CA         51.3050   20.2020   16.2000 C.3       6 GLP5        0.0000 
     41 CA         48.6825   18.6975   19.3205 C.3       3 GLC5        0.0000 
     42 CA         42.5960   21.7055   17.2810 C.3       3 GLC5        0.0000 
     43 CA         44.0600   22.6440   18.2990 C.3       9 GLL5        0.0000 
     44 CA         41.1320   20.7670   16.2630 C.3       6 GLP5        0.0000 
     45 CA         44.3730   23.3475   16.6770 C.3       3 GLC5        0.0000 
     46 CA         44.6860   24.0510   15.0550 C.3       6 GLP5        0.0000 
     47 CA         45.3900   23.9555   18.1160 C.3       3 GLC5        0.0000 
     48 CA         46.7200   25.2670   17.9330 C.3       6 GLP5        0.0000 
     49 CA         47.2710   18.8300   21.8580 C.3       3 GLC5        0.0000 
     50 CA         45.5840   19.5110   22.5540 C.3       9 GLL5        0.0000 
     51 CA         45.2565   17.7445   21.8980 C.3       3 GLC5        0.0000 
     52 CA         44.9290   15.9780   21.2420 C.3       6 GLP5        0.0000 
     53 CA         45.9525   18.1165   24.0640 C.3       3 GLC5        0.0000 
     54 CA         46.3210   16.7220   25.5740 C.3       6 GLP5        0.0000 
     55 CA         46.6020   20.4310   23.8865 C.3       3 GLC5        0.0000 
     56 CA         47.6200   21.3510   25.2190 C.3       6 GLP5        0.0000 
     57 CA         43.5270   19.7080   22.5980 C.3       3 GLC5        0.0000 
     58 CA         41.4700   19.9050   22.6420 C.3       6 GLP5        0.0000 
     59 CA         48.8543   14.8883   12.8645 C.3       3 GLC5        0.0000 
     60 CA         50.1470   14.3930   14.0730 C.3       9 GLL5        0.0000 
     61 CA         47.7330   14.7280   11.4620 C.3       6 GLP5        0.0000 
     62 CA         50.0382   15.5670   16.6495 C.3       3 GLC5        0.0000 
     63 CA         50.9070   15.2950   18.5380 C.3       6 GLP5        0.0000 
     64 CA         47.9012   15.0832   13.3122 C.3       3 GLC5        0.0000 
     65 CA         44.8882   17.7683   20.3298 C.3       3 GLC5        0.0000 
     66 CA         45.1600   16.8691   19.6154 C.3       3 GLC5        0.0000 
     67 CA         44.9000   18.7463   16.6231 C.3       3 GLC5        0.0000 
     68 CA         43.1705   20.4920   21.9237 C.3       3 GLC5        0.0000 
     69 CA         44.7990   21.1600   20.4950 C.3       9 GLL5        0.0000 
     70 CA         43.5108   22.4365   24.2907 C.3       3 GLC5        0.0000 
     71 CA         44.0140   23.2320   22.3330 C.3       9 GLL5        0.0000 
     72 CA         42.7430   22.2520   25.9930 C.3       6 GLP5        0.0000 
     73 CA         42.8743   21.2630   22.6152 C.3       3 GLC5        0.0000 
     74 CA         44.5430   22.0100   22.8440 C.3       9 GLL5        0.0000 
     75 CA         44.9691   24.8030   20.6745 C.3       3 GLC5        0.0000 
     76 CA         45.9010   26.5380   19.9460 C.3       6 GLP5        0.0000 
     77 CA         46.1815   21.4275   23.7995 C.3       3 GLC5        0.0000 
     78 CA         42.6521   23.6824   22.5602 C.3       3 GLC5        0.0000 
     79 CA         41.0650   24.6970   22.8830 C.3       6 GLP5        0.0000 
     80 CA         49.4940   13.3207   16.4189 C.3       3 GLC5        0.0000 
     81 CA         47.9620   13.5700   14.8660 C.3       9 GLL5        0.0000 
     82 CA         50.1650   12.9310   18.3180 C.3       6 GLP5        0.0000 
     83 CA         48.2091   13.9069   12.9645 C.3       3 GLC5        0.0000 
     84 CA         49.2210   13.3090   14.2740 C.3       9 GLL5        0.0000 
@<TRIPOS>BOND
@<TRIPOS>SUBSTRUCTURE
     1 ALC1       10 GROUP        1 X    ALC  0     ROOT ALC X 1
     2 SEC2       19 GROUP        1 X    SEC  0     **** SEC X 2
     3 GLC5        1 GROUP        1 X    GLC  0     **** GLC X 6
     4 ALP1       12 GROUP        1 Y    ALP  0     ROOT ALP Y 8
     5 SEP2       21 GROUP        1 Y    SEP  0     **** SEP Y 9
     6 GLP5        3 GROUP        1 Y    GLP  0     **** GLP Y 13
     7 ALL1       11 GROUP        1 Z    ALL  0     ROOT ALL Z 15
     8 SEL2       20 GROUP        1 Z    SEL  0     **** SEL Z 16
     9 GLL5        2 GROUP        1 Z    GLL  0     **** GLL Z 20
@<TRIPOS>SET

