#    Name: 1opk_P16_1_ligand
#    Modification time : Mon Mar 24 20:23:07 2014

@<TRIPOS>MOLECULE
1opk_P16_1_ligand
   45    48     1     0     0
SMALL
NO_CHARGES


@<TRIPOS>ATOM
      1 O1         49.9800   11.0930   14.9440 O.3       1 P162        0.0000 
      2 C2         49.5960   11.8940   13.8620 C.3       1 P162        0.0000 
      3 C3         49.2210   13.3090   14.2740 C.ar      1 P162        0.0000 
      4 C4         50.1470   14.3930   14.0730 C.ar      1 P162        0.0000 
      5 C5         49.8040   15.7040   14.4610 C.ar      1 P162        0.0000 
      6 C6         48.5350   15.9740   15.0610 C.ar      1 P162        0.0000 
      7 C7         47.6040   14.9030   15.2640 C.ar      1 P162        0.0000 
      8 N9         46.3300   15.0460   15.8740 N.pl3     1 P162        0.0000 
      9 C10        45.8970   16.0610   16.6810 C.ar      1 P162        0.0000 
     10 N11        44.6140   15.9020   17.1770 N.ar      1 P162        0.0000 
     11 C12        44.1550   16.8600   18.0020 C.ar      1 P162        0.0000 
     12 C13        44.9250   17.9970   18.3770 C.ar      1 P162        0.0000 
     13 C16        44.4520   19.0260   19.2590 C.2       1 P162        0.0000 
     14 C17        45.2430   20.0910   19.5760 C.2       1 P162        0.0000 
     15 C18        46.6220   20.2330   18.9780 C.2       1 P162        0.0000 
     16 O21        47.4050   21.1590   19.1990 O.2       1 P162        0.0000 
     17 N19        47.0620   19.1770   18.1030 N.am      1 P162        0.0000 
     18 C14        46.2420   18.0920   17.7880 C.ar      1 P162        0.0000 
     19 N15        46.7060   17.1150   16.9680 N.ar      1 P162        0.0000 
     20 C20        48.4070   19.2460   17.4790 C.3       1 P162        0.0000 
     21 C22        44.7990   21.1600   20.4950 C.ar      1 P162        0.0000 
     22 C27        44.2640   22.3890   20.0170 C.ar      1 P162        0.0000 
     23 CL28       44.0600   22.6440   18.2990 Cl        1 P162        0.0000 
     24 C26        43.8570   23.4190   20.9290 C.ar      1 P162        0.0000 
     25 C25        44.0140   23.2320   22.3330 C.ar      1 P162        0.0000 
     26 C24        44.5430   22.0100   22.8440 C.ar      1 P162        0.0000 
     27 C23        44.9430   20.9980   21.9160 C.ar      1 P162        0.0000 
     28 CL29       45.5840   19.5110   22.5540 Cl        1 P162        0.0000 
     29 C8         47.9620   13.5700   14.8660 C.ar      1 P162        0.0000 
     30 H          48.7212   11.4681   13.3192 H         1 P162        0.0000 
     31 H          50.4040   11.9780   13.0995 H         1 P162        0.0000 
     32 H          51.0523   14.1977   13.6467 H         1 P162        0.0000 
     33 H          50.4614   16.4731   14.3160 H         1 P162        0.0000 
     34 H          48.2933   16.9160   15.3417 H         1 P162        0.0000 
     35 H          45.6314   14.2455   15.6631 H         1 P162        0.0000 
     36 H          43.1853   16.7958   18.4064 H         1 P162        0.0000 
     37 H          43.4990   18.9304   19.6409 H         1 P162        0.0000 
     38 H          43.4571   24.2806   20.5695 H         1 P162        0.0000 
     39 H          43.7467   23.9761   22.9767 H         1 P162        0.0000 
     40 H          44.6334   21.8616   23.8340 H         1 P162        0.0000 
     41 H          47.2964   12.8108   15.0153 H         1 P162        0.0000 
     42 H          49.1338   19.2734   18.1653 H         1 P162        0.0000 
     43 H          48.5860   18.4550   16.8939 H         1 P162        0.0000 
     44 H          48.5108   20.0614   16.9094 H         1 P162        0.0000 
     45 H          50.8528   11.4730   15.2503 H         1 P162        0.0000 
@<TRIPOS>BOND
     1    2    1 1    
     2   45    1 1    
     3    3    2 1    
     4   30    2 1    
     5   31    2 1    
     6    4    3 ar   
     7   29    3 ar   
     8    5    4 ar   
     9   32    4 1    
    10    6    5 ar   
    11   33    5 1    
    12    7    6 ar   
    13   34    6 1    
    14    8    7 1    
    15   29    7 ar   
    16    9    8 1    
    17   35    8 1    
    18   10    9 ar   
    19   19    9 ar   
    20   11   10 ar   
    21   12   11 ar   
    22   36   11 1    
    23   13   12 1    
    24   18   12 ar   
    25   14   13 2    
    26   37   13 1    
    27   15   14 1    
    28   21   14 1    
    29   16   15 2    
    30   17   15 am   
    31   18   17 1    
    32   20   17 1    
    33   19   18 ar   
    34   42   20 1    
    35   43   20 1    
    36   44   20 1    
    37   22   21 ar   
    38   27   21 ar   
    39   23   22 1    
    40   24   22 ar   
    41   25   24 ar   
    42   38   24 1    
    43   26   25 ar   
    44   39   25 1    
    45   27   26 ar   
    46   40   26 1    
    47   28   27 1    
    48   41   29 1    
@<TRIPOS>SUBSTRUCTURE
     1 P162        1 GROUP   
@<TRIPOS>SET

