#    Name: 2wqb_QQ1_1_INTS_M
#    Modification time : Tue Mar 25 04:35:21 2014

@<TRIPOS>MOLECULE
2wqb_QQ1_1_INTS_M
   61     0     9     0     0
SMALL
NO_CHARGES


@<TRIPOS>ATOM
      1 CA         36.1970   42.3270   33.2815 C.3       3 GLC5        0.0000 
      2 CA         34.5110   42.7900   34.6760 C.3       9 GLL5        0.0000 
      3 CA         37.8830   41.8640   31.8870 C.3       6 GLP5        0.0000 
      4 CA         34.3165   44.4530   33.2770 C.3       3 GLC5        0.0000 
      5 CA         34.1220   46.1160   31.8780 C.3       6 GLP5        0.0000 
      6 CA         30.6925   41.3180   34.6020 C.3       3 GLC5        0.0000 
      7 CA         32.7440   41.2340   35.0320 C.3       9 GLL5        0.0000 
      8 CA         28.6410   41.4020   34.1720 C.3       6 GLP5        0.0000 
      9 CA         40.4030   44.9755   36.5695 C.3       3 GLC5        0.0000 
     10 CA         39.9340   44.6280   38.6820 C.3       9 GLL5        0.0000 
     11 CA         40.8720   45.3230   34.4570 C.3       6 GLP5        0.0000 
     12 CA         38.3000   45.2325   37.2640 C.3       3 GLC5        0.0000 
     13 CA         36.6660   45.8370   35.8460 C.3       6 GLP5        0.0000 
     14 CA         39.8605   44.9785   40.6370 C.3       3 GLC5        0.0000 
     15 CA         39.7870   45.3290   42.5920 C.3       6 GLP5        0.0000 
     16 CA         39.9820   43.0765   40.2135 C.3       3 GLC5        0.0000 
     17 CA         40.0300   41.5250   41.7450 C.3       6 GLP5        0.0000 
     18 CA         37.4515   46.2040   39.3755 C.3       3 GLC5        0.0000 
     19 CA         37.6820   44.1050   38.8950 C.3       9 GLL5        0.0000 
     20 CA         37.2210   48.3030   39.8560 C.3       6 GLP5        0.0000 
     21 CA         38.7345   44.7170   40.7435 C.3       3 GLC5        0.0000 
     22 CA         39.6420   42.1015   39.7775 C.3       3 GLC5        0.0000 
     23 CA         39.2540   42.6780   37.8100 C.3       9 GLL5        0.0000 
     24 CA         38.6915   39.2535   42.1635 C.3       3 GLC5        0.0000 
     25 CA         38.4270   37.3010   41.5580 C.3       9 GLL5        0.0000 
     26 CA         38.9560   41.2060   42.7690 C.3       6 GLP5        0.0000 
     27 CA         35.6245   37.3605   41.5570 C.3       3 GLC5        0.0000 
     28 CA         37.2910   37.0000   40.6280 C.3       9 GLL5        0.0000 
     29 CA         33.9580   37.7210   42.4860 C.3       6 GLP5        0.0000 
     30 CA         39.9445   39.6535   40.6720 C.3       3 GLC5        0.0000 
     31 CA         39.8590   37.7820   39.5990 C.3       9 GLL5        0.0000 
     32 N          38.8140   46.0320   40.1145 N.am      2 SEC2        0.0000 
     33 N          38.7140   44.9690   39.1170 N.am      8 SEL2        0.0000 
     34 N          38.9140   47.0950   41.1120 N.am      5 SEP2        0.0000 
     35 O          35.7870   45.4530   39.8705 O.2       1 ALC1        0.0000 
     36 O          36.4830   44.4680   39.3400 O.2       7 ALL1        0.0000 
     37 O          35.0910   46.4380   40.4010 O.2       4 ALP1        0.0000 
     38 CA         39.2835   41.6065   34.8390 C.3       3 GLC5        0.0000 
     39 CA         39.4560   41.1800   36.9720 C.3       9 GLL5        0.0000 
     40 CA         39.1110   42.0330   32.7060 C.3       6 GLP5        0.0000 
     41 CA         33.6700   41.9965   33.0763 C.3       3 GLC5        0.0000 
     42 CA         33.4990   41.3530   31.4790 C.3       6 GLP5        0.0000 
     43 CA         33.5665   42.8300   36.3768 C.3       3 GLC5        0.0000 
     44 CA         33.1710   42.4900   34.6710 C.3       9 GLL5        0.0000 
     45 CA         33.2920   43.0200   38.0800 C.3       6 GLP5        0.0000 
     46 CA         35.8205   44.0730   35.3552 C.3       3 GLC5        0.0000 
     47 CA         33.3498   41.0517   33.3500 C.3       3 GLC5        0.0000 
     48 CA         33.2463   41.8852   36.6505 C.3       3 GLC5        0.0000 
     49 CA         34.3640   41.2715   33.3595 C.3       3 GLC5        0.0000 
     50 CA         35.4390   41.8280   35.0530 C.3       9 GLL5        0.0000 
     51 CA         34.2605   42.1050   36.6600 C.3       3 GLC5        0.0000 
     52 CA         37.2407   44.6633   37.1980 C.3       3 GLC5        0.0000 
     53 CA         37.9490   42.8740   38.2050 C.3       9 GLL5        0.0000 
     54 CA         37.7163   42.5673   40.3935 C.3       3 GLC5        0.0000 
     55 CA         37.6170   41.6450   42.2370 C.3       6 GLP5        0.0000 
     56 CA         36.4585   40.4172   33.7957 C.3       3 GLC5        0.0000 
     57 CA         36.0050   39.5310   35.8530 C.3       9 GLL5        0.0000 
     58 CA         37.3000   40.4740   32.0450 C.3       6 GLP5        0.0000 
     59 CA         39.3165   35.9733   42.7777 C.3       3 GLC5        0.0000 
     60 CA         39.7630   37.0380   40.9070 C.3       9 GLL5        0.0000 
     61 CA         39.5380   34.7770   44.3230 C.3       6 GLP5        0.0000 
@<TRIPOS>BOND
@<TRIPOS>SUBSTRUCTURE
     1 ALC1       35 GROUP        1 X    ALC  0     ROOT ALC X 1
     2 SEC2       32 GROUP        1 X    SEC  0     **** SEC X 2
     3 GLC5        1 GROUP        1 X    GLC  0     **** GLC X 6
     4 ALP1       37 GROUP        1 Y    ALP  0     ROOT ALP Y 8
     5 SEP2       34 GROUP        1 Y    SEP  0     **** SEP Y 9
     6 GLP5        3 GROUP        1 Y    GLP  0     **** GLP Y 13
     7 ALL1       36 GROUP        1 Z    ALL  0     ROOT ALL Z 15
     8 SEL2       33 GROUP        1 Z    SEL  0     **** SEL Z 16
     9 GLL5        2 GROUP        1 Z    GLL  0     **** GLL Z 20
@<TRIPOS>SET

