#    Name: 2wqb_QQ1_1_ligand
#    Modification time : Tue Mar 25 04:35:21 2014

@<TRIPOS>MOLECULE
2wqb_QQ1_1_ligand
   50    54     1     0     0
SMALL
NO_CHARGES


@<TRIPOS>ATOM
      1 C1         33.1710   42.4900   34.6710 C.ar      1 QQ12121     0.0000 
      2 C2         34.5110   42.7900   34.6760 C.ar      1 QQ12121     0.0000 
      3 C6         32.7440   41.2340   35.0320 C.ar      1 QQ12121     0.0000 
      4 C3         35.4390   41.8280   35.0530 C.ar      1 QQ12121     0.0000 
      5 C5         33.6570   40.2670   35.4100 C.ar      1 QQ12121     0.0000 
      6 C24        39.9340   44.6280   38.6820 C.ar      1 QQ12121     0.0000 
      7 C10        36.8400   37.5910   36.0250 C.2       1 QQ12121     0.0000 
      8 C4         35.0190   40.5520   35.4270 C.ar      1 QQ12121     0.0000 
      9 C21        37.9490   42.8740   38.2050 C.ar      1 QQ12121     0.0000 
     10 C7         36.0050   39.5310   35.8530 C.2       1 QQ12121     0.0000 
     11 C8         37.1460   39.6760   36.5800 C.2       1 QQ12121     0.0000 
     12 C22        37.6820   44.1050   38.8950 C.ar      1 QQ12121     0.0000 
     13 C26        39.2540   42.6780   37.8100 C.ar      1 QQ12121     0.0000 
     14 C19        37.7570   40.8770   37.1690 C.2       1 QQ12121     0.0000 
     15 C16        38.4270   37.3010   41.5580 C.3       1 QQ12121     0.0000 
     16 C15        39.7630   37.0380   40.9070 C.3       1 QQ12121     0.0000 
     17 C17        37.2910   37.0000   40.6280 C.3       1 QQ12121     0.0000 
     18 C14        39.8590   37.7820   39.5990 C.3       1 QQ12121     0.0000 
     19 C18        37.4570   37.7670   39.3370 C.3       1 QQ12121     0.0000 
     20 C13        38.7410   37.3700   38.6820 C.3       1 QQ12121     0.0000 
     21 C12        38.9070   37.9740   37.3360 C.3       1 QQ12121     0.0000 
     22 N23        38.7140   44.9690   39.1170 N.ar      1 QQ12121     0.0000 
     23 N25        40.2640   43.5060   38.0260 N.ar      1 QQ12121     0.0000 
     24 N11        35.8190   38.1980   35.5130 N.2       1 QQ12121     0.0000 
     25 N20        37.1090   41.8160   37.8160 N.2       1 QQ12121     0.0000 
     26 N9         37.6780   38.4040   36.6840 N.pl3     1 QQ12121     0.0000 
     27 N28        36.4830   44.4680   39.3400 N.pl3     1 QQ12121     0.0000 
     28 S27        39.4560   41.1800   36.9720 S.3       1 QQ12121     0.0000 
     29 H          32.4810   43.2098   34.3952 H         1 QQ12121     0.0000 
     30 H          34.8362   43.7301   34.4003 H         1 QQ12121     0.0000 
     31 H          31.7343   41.0077   35.0219 H         1 QQ12121     0.0000 
     32 H          36.4439   42.0559   35.0572 H         1 QQ12121     0.0000 
     33 H          33.3302   39.3262   35.6821 H         1 QQ12121     0.0000 
     34 H          40.7409   45.3337   38.8811 H         1 QQ12121     0.0000 
     35 H          37.0126   36.5962   35.9491 H         1 QQ12121     0.0000 
     36 H          38.3788   38.3522   41.8691 H         1 QQ12121     0.0000 
     37 H          38.3378   36.6821   42.4597 H         1 QQ12121     0.0000 
     38 H          39.8749   35.9687   40.7267 H         1 QQ12121     0.0000 
     39 H          40.5619   37.3663   41.5721 H         1 QQ12121     0.0000 
     40 H          36.3466   37.2826   41.0958 H         1 QQ12121     0.0000 
     41 H          37.2654   35.9310   40.4109 H         1 QQ12121     0.0000 
     42 H          40.8184   37.5635   39.1271 H         1 QQ12121     0.0000 
     43 H          39.8009   38.8554   39.7872 H         1 QQ12121     0.0000 
     44 H          37.4647   38.8344   39.5515 H         1 QQ12121     0.0000 
     45 H          36.6200   37.5453   38.6770 H         1 QQ12121     0.0000 
     46 H          38.7632   36.2835   38.6016 H         1 QQ12121     0.0000 
     47 H          39.4454   37.2402   36.6798 H         1 QQ12121     0.0000 
     48 H          39.6135   38.8417   37.4192 H         1 QQ12121     0.0000 
     49 H          35.7335   43.8331   39.1529 H         1 QQ12121     0.0000 
     50 H          36.4388   45.3432   39.8217 H         1 QQ12121     0.0000 
@<TRIPOS>BOND
     1    2    1 ar   
     2    3    1 ar   
     3   29    1 1    
     4    4    2 ar   
     5   30    2 1    
     6    5    3 ar   
     7   31    3 1    
     8    8    4 ar   
     9   32    4 1    
    10    8    5 ar   
    11   33    5 1    
    12   22    6 ar   
    13   23    6 ar   
    14   34    6 1    
    15   24    7 2    
    16   26    7 1    
    17   35    7 1    
    18   10    8 1    
    19   12    9 ar   
    20   13    9 ar   
    21   25    9 1    
    22   11   10 2    
    23   24   10 1    
    24   14   11 1    
    25   26   11 1    
    26   22   12 ar   
    27   27   12 1    
    28   23   13 ar   
    29   28   13 1    
    30   25   14 2    
    31   28   14 1    
    32   16   15 1    
    33   17   15 1    
    34   36   15 1    
    35   37   15 1    
    36   18   16 1    
    37   38   16 1    
    38   39   16 1    
    39   19   17 1    
    40   40   17 1    
    41   41   17 1    
    42   20   18 1    
    43   42   18 1    
    44   43   18 1    
    45   20   19 1    
    46   44   19 1    
    47   45   19 1    
    48   21   20 1    
    49   46   20 1    
    50   26   21 1    
    51   47   21 1    
    52   48   21 1    
    53   49   27 1    
    54   50   27 1    
@<TRIPOS>SUBSTRUCTURE
     1 QQ12121     1 GROUP   
@<TRIPOS>SET

