#    Name: 4ark_M3K_1_INTS_M
#    Modification time : Tue Mar 25 06:04:10 2014

@<TRIPOS>MOLECULE
4ark_M3K_1_INTS_M
   64     0     6     0     0
SMALL
NO_CHARGES


@<TRIPOS>ATOM
      1 CA         35.0750   24.2865   41.4255 C.3       2 GLC5        0.0000 
      2 CA         35.2130   26.4380   41.8890 C.3       6 GLL5        0.0000 
      3 CA         34.9370   22.1350   40.9620 C.3       4 GLP5        0.0000 
      4 CA         35.1095   27.2325   45.5305 C.3       2 GLC5        0.0000 
      5 CA         35.9320   28.1770   43.8510 C.3       6 GLL5        0.0000 
      6 CA         34.2870   26.2880   47.2100 C.3       4 GLP5        0.0000 
      7 CA         34.7490   28.7375   41.5085 C.3       2 GLC5        0.0000 
      8 CA         34.6270   28.1040   43.4200 C.3       6 GLL5        0.0000 
      9 CA         34.8710   29.3710   39.5970 C.3       4 GLP5        0.0000 
     10 CA         31.8540   26.3245   43.2365 C.3       2 GLC5        0.0000 
     11 CA         32.2050   26.4880   41.0410 C.3       6 GLL5        0.0000 
     12 CA         31.5030   26.1610   45.4320 C.3       4 GLP5        0.0000 
     13 CA         28.5025   26.6775   39.7865 C.3       2 GLC5        0.0000 
     14 CA         30.6100   26.4140   39.2760 C.3       6 GLL5        0.0000 
     15 CA         26.3950   26.9410   40.2970 C.3       4 GLP5        0.0000 
     16 CA         30.1705   23.8990   37.3775 C.3       2 GLC5        0.0000 
     17 CA         30.8500   25.0860   39.0840 C.3       6 GLL5        0.0000 
     18 CA         29.4910   22.7120   35.6710 C.3       4 GLP5        0.0000 
     19 CA         32.4730   23.5555   42.3690 C.3       2 GLC5        0.0000 
     20 CA         32.4350   25.1510   40.8420 C.3       6 GLL5        0.0000 
     21 CA         32.5110   21.9600   43.8960 C.3       4 GLP5        0.0000 
     22 O          29.4790   31.1205   35.1840 O.2       1 ALC1        0.0000 
     23 O          28.0870   30.1510   35.5470 O.2       5 ALL1        0.0000 
     24 O          30.8710   32.0900   34.8210 O.2       3 ALP1        0.0000 
     25 CA         40.0270   28.9890   43.9735 C.3       2 GLC5        0.0000 
     26 CA         38.8510   27.4480   43.9280 C.3       6 GLL5        0.0000 
     27 CA         41.2030   30.5300   44.0190 C.3       4 GLP5        0.0000 
     28 CA         37.9855   29.2455   44.3960 C.3       2 GLC5        0.0000 
     29 CA         37.1200   31.0430   44.8640 C.3       4 GLP5        0.0000 
     30 CA         38.5420   29.1120   42.8360 C.3       2 GLC5        0.0000 
     31 CA         38.2330   30.7760   41.7440 C.3       4 GLP5        0.0000 
     32 CA         39.1735   26.3925   42.1880 C.3       2 GLC5        0.0000 
     33 CA         39.4960   25.3370   40.4480 C.3       4 GLP5        0.0000 
     34 CA         29.2980   24.6045   36.5380 C.3       2 GLC5        0.0000 
     35 CA         29.1050   26.4970   37.4050 C.3       6 GLL5        0.0000 
     36 CA         32.4820   29.8685   44.2805 C.3       2 GLC5        0.0000 
     37 CA         33.7260   28.8830   43.9510 C.3       6 GLL5        0.0000 
     38 CA         31.2380   30.8540   44.6100 C.3       4 GLP5        0.0000 
     39 CA         32.2560   22.5720   41.7895 C.3       2 GLC5        0.0000 
     40 CA         32.0010   23.1840   39.6830 C.3       6 GLL5        0.0000 
     41 CA         31.4550   21.5205   40.2565 C.3       2 GLC5        0.0000 
     42 CA         30.9090   19.8570   40.8300 C.3       4 GLP5        0.0000 
     43 CA         35.2475   28.0211   40.9192 C.3       2 GLC5        0.0000 
     44 CA         36.5180   26.5040   42.3200 C.3       6 GLL5        0.0000 
     45 CA         36.3821   25.1245   43.6264 C.3       2 GLC5        0.0000 
     46 CA         36.3790   23.3260   44.5460 C.3       4 GLP5        0.0000 
     47 CA         36.7692   29.4095   44.2220 C.3       2 GLC5        0.0000 
     48 CA         36.9050   27.3750   43.3090 C.3       6 GLL5        0.0000 
     49 CA         37.3257   29.2760   42.6620 C.3       2 GLC5        0.0000 
     50 CA         35.6483   29.7683   44.2747 C.3       2 GLC5        0.0000 
     51 CA         33.3050   28.0832   40.1195 C.3       2 GLC5        0.0000 
     52 CA         30.3480   25.3863   41.4380 C.3       2 GLC5        0.0000 
     53 CA         28.9570   23.9770   42.2340 C.3       4 GLP5        0.0000 
     54 CA         29.8435   24.8635   40.7070 C.3       2 GLC5        0.0000 
     55 CA         27.5727   26.9865   38.6482 C.3       2 GLC5        0.0000 
     56 CA         30.8018   29.6898   34.4775 C.3       2 GLC5        0.0000 
     57 CA         29.3830   28.1670   35.6070 C.3       6 GLL5        0.0000 
     58 CA         32.5730   30.7090   33.7930 C.3       4 GLP5        0.0000 
     59 CA         32.7922   27.2191   44.4359 C.3       2 GLC5        0.0000 
     60 CA         34.2470   27.2390   42.4370 C.3       6 GLL5        0.0000 
     61 CA         32.6325   23.8599   37.9911 C.3       2 GLC5        0.0000 
     62 CA         33.6110   23.7420   36.4020 C.3       4 GLP5        0.0000 
     63 CA         33.4936   23.0645   40.4909 C.3       2 GLC5        0.0000 
     64 CA         30.5036   23.9855   41.1269 C.3       2 GLC5        0.0000 
@<TRIPOS>BOND
@<TRIPOS>SUBSTRUCTURE
     1 ALC1       22 GROUP        1 X    ALC  0     ROOT ALC X 1
     2 GLC5        1 GROUP        1 X    GLC  0     **** GLC X 6
     3 ALP1       24 GROUP        1 Y    ALP  0     ROOT ALP Y 8
     4 GLP5        3 GROUP        1 Y    GLP  0     **** GLP Y 13
     5 ALL1       23 GROUP        1 Z    ALL  0     ROOT ALL Z 15
     6 GLL5        2 GROUP        1 Z    GLL  0     **** GLL Z 20
@<TRIPOS>SET

