#    Name: 4ark_M3K_1_ligand
#    Modification time : Tue Mar 25 06:04:10 2014

@<TRIPOS>MOLECULE
4ark_M3K_1_ligand
   43    44     1     0     0
SMALL
NO_CHARGES


@<TRIPOS>ATOM
      1 C01        34.2470   27.2390   42.4370 C.ar      1 M3K1385     0.0000 
      2 C02        35.2130   26.4380   41.8890 C.ar      1 M3K1385     0.0000 
      3 C03        36.5180   26.5040   42.3200 C.ar      1 M3K1385     0.0000 
      4 C04        36.9050   27.3750   43.3090 C.ar      1 M3K1385     0.0000 
      5 C05        35.9320   28.1770   43.8510 C.ar      1 M3K1385     0.0000 
      6 C06        34.6270   28.1040   43.4200 C.ar      1 M3K1385     0.0000 
      7 N07        32.8850   27.2240   42.0410 N.pl3     1 M3K1385     0.0000 
      8 C08        32.2050   26.4880   41.0410 C.ar      1 M3K1385     0.0000 
      9 C09        31.2730   27.1030   40.2430 C.ar      1 M3K1385     0.0000 
     10 C10        30.6100   26.4140   39.2760 C.ar      1 M3K1385     0.0000 
     11 C11        30.8500   25.0860   39.0840 C.ar      1 M3K1385     0.0000 
     12 C12        31.7640   24.4570   39.8710 C.ar      1 M3K1385     0.0000 
     13 C13        32.4350   25.1510   40.8420 C.ar      1 M3K1385     0.0000 
     14 C14        30.9430   28.5120   40.3680 C.2       1 M3K1385     0.0000 
     15 N15        30.2560   29.1460   39.3820 N.am      1 M3K1385     0.0000 
     16 O16        31.2810   29.1190   41.3220 O.2       1 M3K1385     0.0000 
     17 C18        28.3960   27.5670   36.5940 C.3       1 M3K1385     0.0000 
     18 C19        29.3830   28.1670   35.6070 C.3       1 M3K1385     0.0000 
     19 C20        28.6780   29.1740   34.7170 C.3       1 M3K1385     0.0000 
     20 O21        29.9010   27.1470   34.7840 O.3       1 M3K1385     0.0000 
     21 O22        28.0870   30.1510   35.5470 O.3       1 M3K1385     0.0000 
     22 I23        38.8510   27.4480   43.9280 I         1 M3K1385     0.0000 
     23 C15        29.1050   26.4970   37.4050 C.3       1 M3K1385     0.0000 
     24 F24        33.7260   28.8830   43.9510 F         1 M3K1385     0.0000 
     25 F26        32.0010   23.1840   39.6830 F         1 M3K1385     0.0000 
     26 O1         29.7130   27.0790   38.5310 O.3       1 M3K1385     0.0000 
     27 H          34.9588   25.7673   41.1339 H         1 M3K1385     0.0000 
     28 H          37.2302   25.8767   41.8843 H         1 M3K1385     0.0000 
     29 H          36.1841   28.8536   44.6021 H         1 M3K1385     0.0000 
     30 H          32.2395   27.9105   42.6172 H         1 M3K1385     0.0000 
     31 H          30.3439   24.5654   38.3504 H         1 M3K1385     0.0000 
     32 H          33.1311   24.6564   41.4391 H         1 M3K1385     0.0000 
     33 H          30.0335   30.1066   39.5484 H         1 M3K1385     0.0000 
     34 H          30.0335   28.5960   38.5770 H         1 M3K1385     0.0000 
     35 H          27.5692   27.1240   36.0543 H         1 M3K1385     0.0000 
     36 H          28.0313   28.3412   37.2563 H         1 M3K1385     0.0000 
     37 H          30.1530   28.6730   36.1510 H         1 M3K1385     0.0000 
     38 H          27.9376   28.6354   34.1216 H         1 M3K1385     0.0000 
     39 H          29.4207   29.6018   34.0401 H         1 M3K1385     0.0000 
     40 H          29.8365   26.0086   36.7444 H         1 M3K1385     0.0000 
     41 H          28.3573   25.7393   37.6823 H         1 M3K1385     0.0000 
     42 H          30.8617   27.3883   34.6467 H         1 M3K1385     0.0000 
     43 H          28.7359   30.9118   35.5535 H         1 M3K1385     0.0000 
@<TRIPOS>BOND
     1    2    1 ar   
     2    6    1 ar   
     3    7    1 1    
     4    3    2 ar   
     5   27    2 1    
     6    4    3 ar   
     7   28    3 1    
     8    5    4 ar   
     9   22    4 1    
    10    6    5 ar   
    11   29    5 1    
    12   24    6 1    
    13    8    7 1    
    14   30    7 1    
    15    9    8 ar   
    16   13    8 ar   
    17   10    9 ar   
    18   14    9 1    
    19   11   10 ar   
    20   26   10 1    
    21   12   11 ar   
    22   31   11 1    
    23   13   12 ar   
    24   25   12 1    
    25   32   13 1    
    26   15   14 am   
    27   16   14 2    
    28   33   15 1    
    29   34   15 1    
    30   18   17 1    
    31   23   17 1    
    32   35   17 1    
    33   36   17 1    
    34   19   18 1    
    35   20   18 1    
    36   37   18 1    
    37   21   19 1    
    38   38   19 1    
    39   39   19 1    
    40   42   20 1    
    41   43   21 1    
    42   26   23 1    
    43   40   23 1    
    44   41   23 1    
@<TRIPOS>SUBSTRUCTURE
     1 M3K1385     1 GROUP   
@<TRIPOS>SET

