#    Name: 2bl4_NAD_2_INTS_M
#    Modification time : Mon Mar 24 21:10:22 2014

@<TRIPOS>MOLECULE
2bl4_NAD_2_INTS_M
   94     0     9     0     0
SMALL
NO_CHARGES


@<TRIPOS>ATOM
      1 N          -9.4025   80.5210  124.2515 N.am      2 SEC2        0.0000 
      2 N          -8.7060   79.8300  125.4770 N.am      8 SEL2        0.0000 
      3 N         -10.0990   81.2120  123.0260 N.am      5 SEP2        0.0000 
      4 N         -11.7315   80.1095  125.4315 N.am      2 SEC2        0.0000 
      5 N         -11.0760   79.1950  125.7830 N.am      8 SEL2        0.0000 
      6 N         -12.3870   81.0240  125.0800 N.am      5 SEP2        0.0000 
      7 CA        -11.0060   78.7510  129.2055 C.3       3 GLC5        0.0000 
      8 CA         -9.3510   77.5020  128.3650 C.3       9 GLL5        0.0000 
      9 CA        -12.6610   80.0000  130.0460 C.3       6 GLP5        0.0000 
     10 CA         -7.2150   76.1050  129.5585 C.3       3 GLC5        0.0000 
     11 CA         -8.7190   77.6930  129.7360 C.3       9 GLL5        0.0000 
     12 CA         -5.7110   74.5170  129.3810 C.3       6 GLP5        0.0000 
     13 CA        -10.5845   79.5590  130.1215 C.3       3 GLC5        0.0000 
     14 CA         -8.5080   79.1180  130.1970 C.3       9 GLL5        0.0000 
     15 CA         -6.0565   76.2820  129.7220 C.3       3 GLC5        0.0000 
     16 CA         -6.4020   78.0470  130.0630 C.3       9 GLL5        0.0000 
     17 N          -3.1105   78.8125  126.5705 N.am      2 SEC2        0.0000 
     18 N          -3.6740   77.8430  127.6300 N.am      8 SEL2        0.0000 
     19 N          -2.5470   79.7820  125.5110 N.am      5 SEP2        0.0000 
     20 CA          0.0095   76.0230  129.9370 C.3       3 GLC5        0.0000 
     21 CA         -1.6530   77.1920  129.0230 C.3       9 GLL5        0.0000 
     22 CA          1.6720   74.8540  130.8510 C.3       6 GLP5        0.0000 
     23 O          -1.1875   76.7915  126.6535 O.2       1 ALC1        0.0000 
     24 O          -0.7380   77.0950  128.0470 O.2       7 ALL1        0.0000 
     25 O          -1.6370   76.4880  125.2600 O.2       4 ALP1        0.0000 
     26 CA         -0.2635   75.8930  131.0995 C.3       3 GLC5        0.0000 
     27 CA         -2.1990   76.9320  131.3480 C.3       9 GLL5        0.0000 
     28 CA         -1.8630   75.0045  130.5430 C.3       3 GLC5        0.0000 
     29 CA         -1.5270   73.0770  129.7380 C.3       6 GLP5        0.0000 
     30 CA         -2.7020   74.8790  131.7760 C.3       3 GLC5        0.0000 
     31 CA         -3.2050   72.8260  132.2040 C.3       6 GLP5        0.0000 
     32 N          -6.8405   76.5080  122.9310 N.am      2 SEC2        0.0000 
     33 N          -8.1830   76.8660  123.5030 N.am      8 SEL2        0.0000 
     34 N          -5.4980   76.1500  122.3590 N.am      5 SEP2        0.0000 
     35 N          -8.2555   78.1615  122.7565 N.am      2 SEC2        0.0000 
     36 N          -8.3280   79.4570  122.0100 N.am      5 SEP2        0.0000 
     37 N          -9.4055   78.6295  122.6670 N.am      2 SEC2        0.0000 
     38 N         -10.4830   77.8020  123.3240 N.am      8 SEL2        0.0000 
     39 CA        -11.6970   80.3465  122.9325 C.3       3 GLC5        0.0000 
     40 CA        -12.5070   78.4430  122.2350 C.3       9 GLL5        0.0000 
     41 CA        -10.8870   82.2500  123.6300 C.3       6 GLP5        0.0000 
     42 N         -14.8170   79.8955  124.9075 N.am      2 SEC2        0.0000 
     43 N         -14.3900   79.0220  123.5320 N.am      8 SEL2        0.0000 
     44 N         -15.2440   80.7690  126.2830 N.am      5 SEP2        0.0000 
     45 O         -13.3885   80.0230  124.3060 O.2       1 ALC1        0.0000 
     46 O         -14.3900   79.0220  123.5320 O.2       7 ALL1        0.0000 
     47 O         -12.3870   81.0240  125.0800 O.2       4 ALP1        0.0000 
     48 N         -17.1130   77.8185  121.7335 N.am      2 SEC2        0.0000 
     49 N         -15.9190   77.9630  121.7940 N.am      8 SEL2        0.0000 
     50 N         -18.3070   77.6740  121.6730 N.am      5 SEP2        0.0000 
     51 O         -16.4140   77.8920  123.3050 O.2       1 ALC1        0.0000 
     52 O         -15.9190   77.9630  121.7940 O.2       7 ALL1        0.0000 
     53 O         -16.9090   77.8210  124.8160 O.2       4 ALP1        0.0000 
     54 CA        -14.4055   76.0205  120.8375 C.3       3 GLC5        0.0000 
     55 CA        -13.8870   78.0790  120.3200 C.3       9 GLL5        0.0000 
     56 CA        -14.9240   73.9620  121.3550 C.3       6 GLP5        0.0000 
     57 O         -14.3360   78.5345  113.8215 O.2       1 ALC1        0.0000 
     58 O         -15.1340   77.8710  115.1130 O.2       7 ALL1        0.0000 
     59 O         -13.5380   79.1980  112.5300 O.2       4 ALP1        0.0000 
     60 CA        -12.7460   73.6160  116.0125 C.3       3 GLC5        0.0000 
     61 CA        -13.0430   75.4010  116.9640 C.3       9 GLL5        0.0000 
     62 CA        -12.4490   71.8310  115.0610 C.3       6 GLP5        0.0000 
     63 CA        -10.4430   75.5535  118.2130 C.3       3 GLC5        0.0000 
     64 CA        -12.2410   75.3740  118.1130 C.3       9 GLL5        0.0000 
     65 CA         -8.6450   75.7330  118.3130 C.3       6 GLP5        0.0000 
     66 CA        -10.8415   77.1775  118.7285 C.3       3 GLC5        0.0000 
     67 CA        -12.5330   76.2410  119.1790 C.3       9 GLL5        0.0000 
     68 CA         -9.1500   78.1140  118.2780 C.3       6 GLP5        0.0000 
     69 CA         -1.7680   78.3552  127.0523 C.3       3 GLC5        0.0000 
     70 CA         -3.0030   77.5110  128.7580 C.3       9 GLL5        0.0000 
     71 CA         -1.2080   79.3590  125.2140 C.3       6 GLP5        0.0000 
     72 CA         -2.4040   75.4972  128.1378 C.3       3 GLC5        0.0000 
     73 CA         -2.4800   73.6430  127.3850 C.3       6 GLP5        0.0000 
     74 CA         -4.5870   76.0213  129.3303 C.3       3 GLC5        0.0000 
     75 CA         -2.7388   79.2674  129.2914 C.3       3 GLC5        0.0000 
     76 CA         -3.9230   77.5400  129.8010 C.3       9 GLL5        0.0000 
     77 CA         -2.3520   81.0890  129.2370 C.3       6 GLP5        0.0000 
     78 CA        -10.6805   78.9285  121.7382 C.3       3 GLC5        0.0000 
     79 CA        -11.5170   77.3270  122.5080 C.3       9 GLL5        0.0000 
     80 CA         -9.3490   79.9720  121.1050 C.3       6 GLP5        0.0000 
     81 CA        -14.5117   75.9708  122.5102 C.3       3 GLC5        0.0000 
     82 CA        -13.8090   77.9660  122.7960 C.3       9 GLL5        0.0000 
     83 CA        -14.8190   74.2020  122.8360 C.3       6 GLP5        0.0000 
     84 CA        -15.3407   79.1835  120.3162 C.3       3 GLC5        0.0000 
     85 CA        -14.6000   77.5130  121.5730 C.3       9 GLL5        0.0000 
     86 CA        -16.4380   80.5710  119.6860 C.3       6 GLP5        0.0000 
     87 CA        -15.5645   78.2362  117.3770 C.3       3 GLC5        0.0000 
     88 CA        -14.3740   77.1570  117.9650 C.3       9 GLL5        0.0000 
     89 CA        -16.8820   79.7450  117.3560 C.3       6 GLP5        0.0000 
     90 CA        -14.8882   74.3912  116.6767 C.3       3 GLC5        0.0000 
     91 CA        -14.1200   76.2980  116.8310 C.3       9 GLL5        0.0000 
     92 CA        -16.1950   72.9330  116.4560 C.3       6 GLP5        0.0000 
     93 CA        -13.3163   74.6221  119.4154 C.3       3 GLC5        0.0000 
     94 CA        -14.0450   73.4300  120.4720 C.3       6 GLP5        0.0000 
@<TRIPOS>BOND
@<TRIPOS>SUBSTRUCTURE
     1 ALC1       23 GROUP        1 X    ALC  0     ROOT ALC X 1
     2 SEC2        1 GROUP        1 X    SEC  0     **** SEC X 2
     3 GLC5        7 GROUP        1 X    GLC  0     **** GLC X 6
     4 ALP1       25 GROUP        1 Y    ALP  0     ROOT ALP Y 8
     5 SEP2        3 GROUP        1 Y    SEP  0     **** SEP Y 9
     6 GLP5        9 GROUP        1 Y    GLP  0     **** GLP Y 13
     7 ALL1       24 GROUP        1 Z    ALL  0     ROOT ALL Z 15
     8 SEL2        2 GROUP        1 Z    SEL  0     **** SEL Z 16
     9 GLL5        8 GROUP        1 Z    GLL  0     **** GLL Z 20
@<TRIPOS>SET

