#    Name: 2bl4_NAD_2_ligand
#    Modification time : Mon Mar 24 21:10:22 2014

@<TRIPOS>MOLECULE
2bl4_NAD_2_ligand
   70    74     1     0     0
SMALL
NO_CHARGES


@<TRIPOS>ATOM
      1 PA         -9.6600   78.8160  126.0600 P.3       1 NAD2385     0.0000 
      2 O1A        -8.7060   79.8300  125.4770 O.co2     1 NAD2385     0.0000 
      3 O2A       -11.0760   79.1950  125.7830 O.co2     1 NAD2385     0.0000 
      4 O5B        -9.4420   78.7410  127.6710 O.3       1 NAD2385     0.0000 
      5 C5B        -9.3510   77.5020  128.3650 C.3       1 NAD2385     0.0000 
      6 C4B        -8.7190   77.6930  129.7360 C.3       1 NAD2385     0.0000 
      7 O4B        -7.4260   77.1470  129.6540 O.3       1 NAD2385     0.0000 
      8 C3B        -8.5080   79.1180  130.1970 C.3       1 NAD2385     0.0000 
      9 O3B        -8.8010   79.1260  131.5780 O.3       1 NAD2385     0.0000 
     10 C2B        -7.0340   79.4070  129.9220 C.3       1 NAD2385     0.0000 
     11 O2B        -6.4300   80.2920  130.8310 O.3       1 NAD2385     0.0000 
     12 C1B        -6.4020   78.0470  130.0630 C.3       1 NAD2385     0.0000 
     13 N9A        -5.1410   77.9050  129.2810 N.pl3     1 NAD2385     0.0000 
     14 C8A        -4.9630   78.0910  127.9350 C.2       1 NAD2385     0.0000 
     15 N7A        -3.6740   77.8430  127.6300 N.2       1 NAD2385     0.0000 
     16 C5A        -3.0030   77.5110  128.7580 C.ar      1 NAD2385     0.0000 
     17 C6A        -1.6530   77.1920  129.0230 C.ar      1 NAD2385     0.0000 
     18 N6A        -0.7380   77.0950  128.0470 N.pl3     1 NAD2385     0.0000 
     19 N1A        -1.2590   76.9080  130.3210 N.ar      1 NAD2385     0.0000 
     20 C2A        -2.1990   76.9320  131.3480 C.ar      1 NAD2385     0.0000 
     21 N3A        -3.5270   77.2600  131.0760 N.ar      1 NAD2385     0.0000 
     22 C4A        -3.9230   77.5400  129.8010 C.ar      1 NAD2385     0.0000 
     23 O3         -9.4540   77.2590  125.5750 O.3       1 NAD2385     0.0000 
     24 PN         -9.5460   76.7200  124.0400 P.3       1 NAD2385     0.0000 
     25 O1N       -10.2050   75.3970  123.9130 O.co2     1 NAD2385     0.0000 
     26 O2N        -8.1830   76.8660  123.5030 O.co2     1 NAD2385     0.0000 
     27 O5D       -10.4830   77.8020  123.3240 O.3       1 NAD2385     0.0000 
     28 C5D       -11.5170   77.3270  122.5080 C.3       1 NAD2385     0.0000 
     29 C4D       -12.5070   78.4430  122.2350 C.3       1 NAD2385     0.0000 
     30 O4D       -12.6820   78.6330  120.8360 O.3       1 NAD2385     0.0000 
     31 C3D       -13.8090   77.9660  122.7960 C.3       1 NAD2385     0.0000 
     32 O3D       -14.3900   79.0220  123.5320 O.3       1 NAD2385     0.0000 
     33 C2D       -14.6000   77.5130  121.5730 C.3       1 NAD2385     0.0000 
     34 O2D       -15.9190   77.9630  121.7940 O.3       1 NAD2385     0.0000 
     35 C1D       -13.8870   78.0790  120.3200 C.3       1 NAD2385     0.0000 
     36 N1N       -13.5990   77.1500  119.1460 N.pl3     1 NAD2385     0.0000 
     37 C2N       -14.3740   77.1570  117.9650 C.ar      1 NAD2385     0.0000 
     38 C3N       -14.1200   76.2980  116.8310 C.ar      1 NAD2385     0.0000 
     39 C7N       -14.3530   76.8290  115.3990 C.2       1 NAD2385     0.0000 
     40 O7N       -13.7360   76.2610  114.2750 O.2       1 NAD2385     0.0000 
     41 N7N       -15.1340   77.8710  115.1130 N.am      1 NAD2385     0.0000 
     42 C4N       -13.0430   75.4010  116.9640 C.ar      1 NAD2385     0.0000 
     43 C5N       -12.2410   75.3740  118.1130 C.ar      1 NAD2385     0.0000 
     44 C6N       -12.5330   76.2410  119.1790 C.ar      1 NAD2385     0.0000 
     45 H          -8.7389   76.7704  127.8129 H         1 NAD2385     0.0000 
     46 H         -10.3430   77.0453  128.5140 H         1 NAD2385     0.0000 
     47 H          -9.2942   77.1621  130.4723 H         1 NAD2385     0.0000 
     48 H          -9.1099   79.7516  129.6230 H         1 NAD2385     0.0000 
     49 H          -6.9387   79.6976  128.8982 H         1 NAD2385     0.0000 
     50 H          -6.1954   77.9031  131.1260 H         1 NAD2385     0.0000 
     51 H          -5.6551   78.3560  127.3183 H         1 NAD2385     0.0000 
     52 H           0.2006   77.3310  128.2988 H         1 NAD2385     0.0000 
     53 H          -1.0762   76.7954  127.1549 H         1 NAD2385     0.0000 
     54 H          -1.9141   76.7073  132.3106 H         1 NAD2385     0.0000 
     55 H         -12.0707   76.4987  122.9758 H         1 NAD2385     0.0000 
     56 H         -11.1486   76.9645  121.5362 H         1 NAD2385     0.0000 
     57 H         -12.2053   79.3135  122.7427 H         1 NAD2385     0.0000 
     58 H         -13.5985   77.0982  123.3974 H         1 NAD2385     0.0000 
     59 H         -14.5316   76.4359  121.5472 H         1 NAD2385     0.0000 
     60 H         -14.5155   78.9195  119.9620 H         1 NAD2385     0.0000 
     61 H         -15.1798   77.8162  117.8945 H         1 NAD2385     0.0000 
     62 H         -15.5951   78.3014  115.8890 H         1 NAD2385     0.0000 
     63 H         -15.1884   78.1284  114.1482 H         1 NAD2385     0.0000 
     64 H         -12.8398   74.7433  116.1889 H         1 NAD2385     0.0000 
     65 H         -11.4517   74.7309  118.1761 H         1 NAD2385     0.0000 
     66 H         -11.9303   76.2056  120.0301 H         1 NAD2385     0.0000 
     67 H          -9.5168   79.8158  131.6866 H         1 NAD2385     0.0000 
     68 H          -7.0474   80.3165  131.6173 H         1 NAD2385     0.0000 
     69 H         -13.6182   79.5016  123.9495 H         1 NAD2385     0.0000 
     70 H         -16.0750   77.8359  122.7735 H         1 NAD2385     0.0000 
@<TRIPOS>BOND
     1    2    1 ar   
     2    3    1 ar   
     3    4    1 1    
     4   23    1 1    
     5    5    4 1    
     6    6    5 1    
     7   45    5 1    
     8   46    5 1    
     9    7    6 1    
    10    8    6 1    
    11   47    6 1    
    12   12    7 1    
    13    9    8 1    
    14   10    8 1    
    15   48    8 1    
    16   67    9 1    
    17   11   10 1    
    18   12   10 1    
    19   49   10 1    
    20   68   11 1    
    21   13   12 1    
    22   50   12 1    
    23   14   13 1    
    24   22   13 1    
    25   15   14 2    
    26   51   14 1    
    27   16   15 1    
    28   17   16 ar   
    29   22   16 ar   
    30   18   17 1    
    31   19   17 ar   
    32   52   18 1    
    33   53   18 1    
    34   20   19 ar   
    35   21   20 ar   
    36   54   20 1    
    37   22   21 ar   
    38   24   23 1    
    39   25   24 ar   
    40   26   24 ar   
    41   27   24 1    
    42   28   27 1    
    43   29   28 1    
    44   55   28 1    
    45   56   28 1    
    46   30   29 1    
    47   31   29 1    
    48   57   29 1    
    49   35   30 1    
    50   32   31 1    
    51   33   31 1    
    52   58   31 1    
    53   69   32 1    
    54   34   33 1    
    55   35   33 1    
    56   59   33 1    
    57   70   34 1    
    58   36   35 1    
    59   60   35 1    
    60   37   36 ar   
    61   44   36 ar   
    62   38   37 ar   
    63   61   37 1    
    64   39   38 1    
    65   42   38 ar   
    66   40   39 2    
    67   41   39 am   
    68   62   41 1    
    69   63   41 1    
    70   43   42 ar   
    71   64   42 1    
    72   44   43 ar   
    73   65   43 1    
    74   66   44 1    
@<TRIPOS>SUBSTRUCTURE
     1 NAD2385     1 GROUP   
@<TRIPOS>SET

