#    Name: 3bxz_ADP_2_INTS_M
#    Modification time : Mon Mar 24 20:13:17 2014

@<TRIPOS>MOLECULE
3bxz_ADP_2_INTS_M
   54     0    15     0     0
SMALL
NO_CHARGES


@<TRIPOS>ATOM
      1 NZ         18.0590   31.7670   48.4940 N.4       3 LYC4        0.0000 
      2 NZ         17.6270   30.3530   48.9820 N.4      13 LYL4        0.0000 
      3 NZ         18.4910   33.1810   48.0060 N.4       8 LYP4        0.0000 
      4 Zn         18.1795   29.1935   48.9200 Zn        4 ZIC7        0.0000 
      5 Zn         17.6270   30.3530   48.9820 Zn       14 ZIL7        0.0000 
      6 Zn         18.7320   28.0340   48.8580 Zn        9 ZIP7        0.0000 
      7 NZ         18.2585   32.2900   49.6435 N.4       3 LYC4        0.0000 
      8 NZ         18.0260   31.3990   51.2810 N.4      13 LYL4        0.0000 
      9 N          17.9615   32.6405   51.8185 N.am      2 SEC2        0.0000 
     10 N          18.0260   31.3990   51.2810 N.am     12 SEL2        0.0000 
     11 N          17.8970   33.8820   52.3560 N.am      7 SEP2        0.0000 
     12 NZ         17.4030   32.7500   48.7875 N.4       3 LYC4        0.0000 
     13 NZ         16.3150   32.3190   49.5690 N.4      13 LYL4        0.0000 
     14 N          14.9985   32.5995   50.0455 N.am      2 SEC2        0.0000 
     15 N          16.3150   32.3190   49.5690 N.am     12 SEL2        0.0000 
     16 N          13.6820   32.8800   50.5220 N.am      7 SEP2        0.0000 
     17 N          15.1255   31.7680   48.8565 N.am      2 SEC2        0.0000 
     18 N          13.9360   31.2170   48.1440 N.am      7 SEP2        0.0000 
     19 N          17.4030   32.7500   48.7875 N.am      2 SEC2        0.0000 
     20 N          18.4910   33.1810   48.0060 N.am      7 SEP2        0.0000 
     21 N          15.2110   27.2065   50.3185 N.am      2 SEC2        0.0000 
     22 N          15.3430   27.9590   51.4400 N.am     12 SEL2        0.0000 
     23 N          15.0790   26.4540   49.1970 N.am      7 SEP2        0.0000 
     24 N          14.7600   31.5355   50.6185 N.am      2 SEC2        0.0000 
     25 N          15.8380   30.1910   50.7150 N.am     12 SEL2        0.0000 
     26 N          14.8870   30.7040   49.4295 N.am      2 SEC2        0.0000 
     27 CA         15.6595   32.5145   53.3510 C.3       5 GLC5        0.0000 
     28 CA         14.4630   31.0780   53.3370 C.3      15 GLL5        0.0000 
     29 CA         16.8560   33.9510   53.3650 C.3      10 GLP5        0.0000 
     30 CA         13.6105   31.4440   51.7590 C.3       5 GLC5        0.0000 
     31 CA         12.7580   31.8100   50.1810 C.3      10 GLP5        0.0000 
     32 CA         15.6120   30.1020   55.5920 C.3       5 GLC5        0.0000 
     33 CA         13.7500   30.7690   54.6870 C.3      15 GLL5        0.0000 
     34 CA         17.4740   29.4350   56.4970 C.3      10 GLP5        0.0000 
     35 N           9.2820   31.9590   50.8620 N.am      2 SEC2        0.0000 
     36 N           9.3060   31.5350   52.0200 N.am     12 SEL2        0.0000 
     37 N           9.2580   32.3830   49.7040 N.am      7 SEP2        0.0000 
     38 CA          5.9495   30.3335   53.5315 C.3       5 GLC5        0.0000 
     39 CA          6.9960   31.9920   53.0570 C.3      15 GLL5        0.0000 
     40 CA          4.9030   28.6750   54.0060 C.3      10 GLP5        0.0000 
     41 O           6.7850   32.8725   50.9110 O.2       1 ALC1        0.0000 
     42 O           6.2770   32.2880   51.9540 O.2      11 ALL1        0.0000 
     43 O           7.2930   33.4570   49.8680 O.2       6 ALP1        0.0000 
     44 CA          6.3865   29.9480   55.3205 C.3       5 GLC5        0.0000 
     45 CA          7.0270   31.7160   55.4740 C.3      15 GLL5        0.0000 
     46 CA          5.7460   28.1800   55.1670 C.3      10 GLP5        0.0000 
     47 CA          9.9757   29.0407   54.5635 C.3       5 GLC5        0.0000 
     48 CA         11.3860   30.7440   54.9780 C.3      15 GLL5        0.0000 
     49 CA          8.3800   28.0620   54.1270 C.3      10 GLP5        0.0000 
     50 CA          8.5478   29.7828   53.8642 C.3       5 GLC5        0.0000 
     51 CA          9.0570   31.3590   54.2220 C.3      15 GLL5        0.0000 
     52 CA          7.3140   30.2375   51.8520 C.3       5 GLC5        0.0000 
     53 CA          8.3740   31.6480   52.9810 C.3      15 GLL5        0.0000 
     54 CA          6.9430   28.6550   50.6850 C.3      10 GLP5        0.0000 
@<TRIPOS>BOND
@<TRIPOS>SUBSTRUCTURE
     1 ALC1       41 GROUP        1 X    ALC  0     ROOT ALC X 1
     2 SEC2        9 GROUP        1 X    SEC  0     **** SEC X 2
     3 LYC4        1 GROUP        1 X    LYC  0     **** LYC X 4
     4 ZIC7        4 GROUP        1 X    ZIC  0     **** ZIC X 5
     5 GLC5       27 GROUP        1 X    GLC  0     **** GLC X 6
     6 ALP1       43 GROUP        1 Y    ALP  0     ROOT ALP Y 8
     7 SEP2       11 GROUP        1 Y    SEP  0     **** SEP Y 9
     8 LYP4        3 GROUP        1 Y    LYP  0     **** LYP Y 11
     9 ZIP7        6 GROUP        1 Y    ZIP  0     **** ZIP Y 12
    10 GLP5       29 GROUP        1 Y    GLP  0     **** GLP Y 13
    11 ALL1       42 GROUP        1 Z    ALL  0     ROOT ALL Z 15
    12 SEL2       10 GROUP        1 Z    SEL  0     **** SEL Z 16
    13 LYL4        2 GROUP        1 Z    LYL  0     **** LYL Z 18
    14 ZIL7        5 GROUP        1 Z    ZIL  0     **** ZIL Z 19
    15 GLL5       28 GROUP        1 Z    GLL  0     **** GLL Z 20
@<TRIPOS>SET

