#    Name: 3bxz_ADP_2_ligand
#    Modification time : Mon Mar 24 20:13:17 2014

@<TRIPOS>MOLECULE
3bxz_ADP_2_ligand
   39    41     1     0     0
SMALL
NO_CHARGES


@<TRIPOS>ATOM
      1 PB         16.9460   31.0760   50.1130 P.3       1 ADP902      0.0000 
      2 O1B        17.6270   30.3530   48.9820 O.co2     1 ADP902      0.0000 
      3 O2B        18.0260   31.3990   51.2810 O.co2     1 ADP902      0.0000 
      4 O3B        16.3150   32.3190   49.5690 O.co2     1 ADP902      0.0000 
      5 PA         15.7020   29.2640   51.9470 P.3       1 ADP902      0.0000 
      6 O1A        16.9350   29.2460   52.7680 O.co2     1 ADP902      0.0000 
      7 O2A        15.3430   27.9590   51.4400 O.co2     1 ADP902      0.0000 
      8 O3A        15.8380   30.1910   50.7150 O.3       1 ADP902      0.0000 
      9 O5'        14.4820   29.8350   52.6650 O.3       1 ADP902      0.0000 
     10 C5'        14.4630   31.0780   53.3370 C.3       1 ADP902      0.0000 
     11 C4'        13.7500   30.7690   54.6870 C.3       1 ADP902      0.0000 
     12 O4'        12.5770   31.5740   54.7780 O.3       1 ADP902      0.0000 
     13 C3'        13.2570   29.3010   54.8520 C.3       1 ADP902      0.0000 
     14 O3'        13.8410   28.6760   55.9800 O.3       1 ADP902      0.0000 
     15 C2'        11.7570   29.2950   55.0220 C.3       1 ADP902      0.0000 
     16 O2'        11.3790   28.6530   56.2480 O.3       1 ADP902      0.0000 
     17 C1'        11.3860   30.7440   54.9780 C.3       1 ADP902      0.0000 
     18 N9         10.3300   31.0880   53.9430 N.pl3     1 ADP902      0.0000 
     19 C8         10.4950   31.1900   52.5820 C.2       1 ADP902      0.0000 
     20 N7          9.3060   31.5350   52.0200 N.2       1 ADP902      0.0000 
     21 C5          8.3740   31.6480   52.9810 C.ar      1 ADP902      0.0000 
     22 C6          6.9960   31.9920   53.0570 C.ar      1 ADP902      0.0000 
     23 N6          6.2770   32.2880   51.9540 N.pl3     1 ADP902      0.0000 
     24 N1          6.3610   32.0050   54.3070 N.ar      1 ADP902      0.0000 
     25 C2          7.0270   31.7160   55.4740 C.ar      1 ADP902      0.0000 
     26 N3          8.3480   31.3980   55.4230 N.ar      1 ADP902      0.0000 
     27 C4          9.0570   31.3590   54.2220 C.ar      1 ADP902      0.0000 
     28 H          13.8780   31.8221   52.8316 H         1 ADP902      0.0000 
     29 H          15.4432   31.4457   53.5721 H         1 ADP902      0.0000 
     30 H          14.4207   30.9893   55.4954 H         1 ADP902      0.0000 
     31 H          13.4924   28.7764   53.9364 H         1 ADP902      0.0000 
     32 H          11.3365   28.8111   54.1570 H         1 ADP902      0.0000 
     33 H          10.9590   31.0111   55.9736 H         1 ADP902      0.0000 
     34 H          11.3205   31.0400   52.1123 H         1 ADP902      0.0000 
     35 H           5.4916   31.6974   51.7692 H         1 ADP902      0.0000 
     36 H           6.5936   33.0717   51.4195 H         1 ADP902      0.0000 
     37 H           6.5250   31.7419   56.3739 H         1 ADP902      0.0000 
     38 H          13.0679   28.3839   56.5430 H         1 ADP902      0.0000 
     39 H          11.0777   29.3953   56.8465 H         1 ADP902      0.0000 
@<TRIPOS>BOND
     1    2    1 ar   
     2    3    1 ar   
     3    4    1 ar   
     4    8    1 1    
     5    6    5 ar   
     6    7    5 ar   
     7    8    5 1    
     8    9    5 1    
     9   10    9 1    
    10   11   10 1    
    11   28   10 1    
    12   29   10 1    
    13   12   11 1    
    14   13   11 1    
    15   30   11 1    
    16   17   12 1    
    17   14   13 1    
    18   15   13 1    
    19   31   13 1    
    20   38   14 1    
    21   16   15 1    
    22   17   15 1    
    23   32   15 1    
    24   39   16 1    
    25   18   17 1    
    26   33   17 1    
    27   19   18 1    
    28   27   18 1    
    29   20   19 2    
    30   34   19 1    
    31   21   20 1    
    32   22   21 ar   
    33   27   21 ar   
    34   23   22 1    
    35   24   22 ar   
    36   35   23 1    
    37   36   23 1    
    38   25   24 ar   
    39   26   25 ar   
    40   37   25 1    
    41   27   26 ar   
@<TRIPOS>SUBSTRUCTURE
     1 ADP902      1 GROUP   
@<TRIPOS>SET

