#    Name: 3op4_NAP_1_INTS_M
#    Modification time : Tue Mar 25 04:55:59 2014

@<TRIPOS>MOLECULE
3op4_NAP_1_INTS_M
  109     0    12     0     0
SMALL
NO_CHARGES


@<TRIPOS>ATOM
      1 NZ         33.6205    7.0620   25.2440 N.4       3 LYC4        0.0000 
      2 NZ         33.0920    6.3320   23.5590 N.4      11 LYL4        0.0000 
      3 NZ         34.1490    7.7920   26.9290 N.4       7 LYP4        0.0000 
      4 CA         31.5360    9.7750   26.3500 C.3       4 GLC5        0.0000 
      5 CA         29.9280    8.4690   26.6440 C.3      12 GLL5        0.0000 
      6 CA         33.1440   11.0810   26.0560 C.3       8 GLP5        0.0000 
      7 O          29.9025   10.4415   27.9515 O.2       1 ALC1        0.0000 
      8 O          29.2510    9.6310   27.0340 O.2       9 ALL1        0.0000 
      9 O          30.5540   11.2520   28.8690 O.2       5 ALP1        0.0000 
     10 CA         26.4130    6.3045   26.3360 C.3       4 GLC5        0.0000 
     11 CA         28.3110    6.8620   27.1280 C.3      12 GLL5        0.0000 
     12 CA         24.5150    5.7470   25.5440 C.3       8 GLP5        0.0000 
     13 CA         24.6935    3.3545   30.8560 C.3       4 GLC5        0.0000 
     14 CA         26.0680    3.1130   29.1140 C.3      12 GLL5        0.0000 
     15 CA         23.3190    3.5960   32.5980 C.3       8 GLP5        0.0000 
     16 CA         24.3060    2.7890   28.2630 C.3       4 GLC5        0.0000 
     17 CA         22.5440    2.4650   27.4120 C.3       8 GLP5        0.0000 
     18 O          25.1320    1.4125   30.5890 O.2       1 ALC1        0.0000 
     19 O          26.0760    1.7820   29.3850 O.2       9 ALL1        0.0000 
     20 O          24.1880    1.0430   31.7930 O.2       5 ALP1        0.0000 
     21 N          23.6445    3.4525   30.0225 N.am      2 SEC2        0.0000 
     22 N          24.9970    3.8540   29.5810 N.am     10 SEL2        0.0000 
     23 N          22.2920    3.0510   30.4640 N.am      6 SEP2        0.0000 
     24 CA         26.4935    5.2250   30.3785 C.3       4 GLC5        0.0000 
     25 CA         24.9280    5.2180   29.3230 C.3      12 GLL5        0.0000 
     26 CA         28.0590    5.2320   31.4340 C.3       8 GLP5        0.0000 
     27 CA         24.1235    4.4070   30.9605 C.3       4 GLC5        0.0000 
     28 CA         23.1900    4.9260   28.7100 C.3       4 GLC5        0.0000 
     29 CA         21.4520    4.6340   28.0970 C.3       8 GLP5        0.0000 
     30 CA         24.7215    5.4825   27.4335 C.3       4 GLC5        0.0000 
     31 N          30.9500   11.0355   20.4805 N.am      2 SEC2        0.0000 
     32 N          31.2230    9.6070   20.7260 N.am     10 SEL2        0.0000 
     33 N          30.6770   12.4640   20.2350 N.am      6 SEP2        0.0000 
     34 N          33.7605    8.2760   19.2590 N.am      2 SEC2        0.0000 
     35 N          32.5020    7.8620   19.4550 N.am     10 SEL2        0.0000 
     36 N          35.0190    8.6900   19.0630 N.am      6 SEP2        0.0000 
     37 CA         28.9150    9.8045   19.4320 C.3       4 GLC5        0.0000 
     38 CA         28.7650    7.9370   20.3130 C.3      12 GLL5        0.0000 
     39 CA         29.0650   11.6720   18.5510 C.3       8 GLP5        0.0000 
     40 CA         26.6125    7.5245   18.0300 C.3       4 GLC5        0.0000 
     41 CA         27.8780    7.0550   19.4610 C.3      12 GLL5        0.0000 
     42 CA         25.3470    7.9940   16.5990 C.3       8 GLP5        0.0000 
     43 CA         27.4390    4.3185   21.2650 C.3       4 GLC5        0.0000 
     44 CA         27.8920    5.5590   19.7840 C.3      12 GLL5        0.0000 
     45 CA         26.9860    3.0780   22.7460 C.3       8 GLP5        0.0000 
     46 N          26.0570    4.0655   18.7630 N.am      2 SEC2        0.0000 
     47 N          26.5590    5.0220   19.6740 N.am     10 SEL2        0.0000 
     48 N          25.5550    3.1090   17.8520 N.am      6 SEP2        0.0000 
     49 O          26.0540    5.8830   20.6295 O.2       1 ALC1        0.0000 
     50 O          26.5590    5.0220   19.6740 O.2       9 ALL1        0.0000 
     51 O          25.5490    6.7440   21.5850 O.2       5 ALP1        0.0000 
     52 N          29.1260    3.0050   17.4120 N.am      2 SEC2        0.0000 
     53 N          28.5340    3.6230   18.4290 N.am     10 SEL2        0.0000 
     54 N          29.7180    2.3870   16.3950 N.am      6 SEP2        0.0000 
     55 N          27.0445    3.3660   18.1405 N.am      2 SEC2        0.0000 
     56 CA         26.8600    6.9395   17.0700 C.3       4 GLC5        0.0000 
     57 CA         28.3730    5.8850   17.5410 C.3      12 GLL5        0.0000 
     58 N          34.1705    8.0960   17.9890 N.am      2 SEC2        0.0000 
     59 N          33.3220    7.5020   16.9150 N.am     10 SEL2        0.0000 
     60 O          34.7460    8.1745   15.0325 O.2       1 ALC1        0.0000 
     61 O          33.6590    6.8800   14.7260 O.2       9 ALL1        0.0000 
     62 O          35.8330    9.4690   15.3390 O.2       5 ALP1        0.0000 
     63 CA         27.1215    6.8120   15.9025 C.3       4 GLC5        0.0000 
     64 CA         28.8960    5.6300   15.2060 C.3      12 GLL5        0.0000 
     65 CA         28.2045    7.1400   14.3255 C.3       4 GLC5        0.0000 
     66 CA         27.5130    8.6500   13.4450 C.3       8 GLP5        0.0000 
     67 NZ         32.7045    9.0435   28.3415 N.4       3 LYC4        0.0000 
     68 NZ         31.7090    9.1020   29.4180 N.4      11 LYL4        0.0000 
     69 N          31.1315   10.1770   29.1435 N.am      2 SEC2        0.0000 
     70 N          31.7090    9.1020   29.4180 N.am     10 SEL2        0.0000 
     71 N          30.5540   11.2520   28.8690 N.am      6 SEP2        0.0000 
     72 N          32.7045    9.0435   28.3415 N.am      2 SEC2        0.0000 
     73 N          33.7000    8.9850   27.2650 N.am      6 SEP2        0.0000 
     74 NZ         32.6765    6.6730   28.5500 N.4       3 LYC4        0.0000 
     75 NZ         31.7980    6.6200   29.6570 N.4      11 LYL4        0.0000 
     76 N          32.6765    6.6730   28.5500 N.am      2 SEC2        0.0000 
     77 N          31.7980    6.6200   29.6570 N.am     10 SEL2        0.0000 
     78 N          33.5550    6.7260   27.4430 N.am      6 SEP2        0.0000 
     79 N          29.1460    8.0200   31.8730 N.am      2 SEC2        0.0000 
     80 N          30.4650    8.0200   31.2430 N.am     10 SEL2        0.0000 
     81 N          27.8270    8.0200   32.5030 N.am      6 SEP2        0.0000 
     82 N          30.1775    6.9675   32.0575 N.am      2 SEC2        0.0000 
     83 N          29.8900    5.9150   32.8720 N.am      6 SEP2        0.0000 
     84 CA         25.7720    5.0885   26.9125 C.3       4 GLC5        0.0000 
     85 CA         27.0790    3.7340   28.3660 C.3      12 GLL5        0.0000 
     86 CA         26.3023    1.8752   27.3025 C.3       4 GLC5        0.0000 
     87 CA         26.0310    0.3270   25.8650 C.3       8 GLP5        0.0000 
     88 CA         27.4176    4.7534   29.9510 C.3       4 GLC5        0.0000 
     89 CA         30.0795    4.5613   19.9110 C.3       4 GLC5        0.0000 
     90 CA         31.8250    3.8430   20.5870 C.3       8 GLP5        0.0000 
     91 CA         27.3762    3.7382   17.5583 C.3       4 GLC5        0.0000 
     92 CA         28.7760    5.0000   18.6860 C.3      12 GLL5        0.0000 
     93 CA         26.1780    2.0340   17.0030 C.3       8 GLP5        0.0000 
     94 CA         30.5053    8.2462   16.4622 C.3       4 GLC5        0.0000 
     95 CA         30.6450    6.3880   16.6610 C.3      12 GLL5        0.0000 
     96 CA         29.9410   10.0490   16.7910 C.3       8 GLP5        0.0000 
     97 CA         31.7702    5.1242   17.4138 C.3       4 GLC5        0.0000 
     98 CA         32.4710    3.8050   18.6940 C.3       8 GLP5        0.0000 
     99 CA         31.6320    8.3337   14.1435 C.3       4 GLC5        0.0000 
    100 CA         31.4940    6.4990   15.6060 C.3      12 GLL5        0.0000 
    101 CA         31.9760   10.3440   13.3270 C.3       8 GLP5        0.0000 
    102 CA         29.5832    7.3328   13.4110 C.3       4 GLC5        0.0000 
    103 CA         31.0820    6.1480   14.3140 C.3      12 GLL5        0.0000 
    104 CA         28.7390    8.7170   12.5860 C.3       8 GLP5        0.0000 
    105 CA         28.5697    4.1442   13.8630 C.3       4 GLC5        0.0000 
    106 CA         29.7730    5.7490   14.1580 C.3      12 GLL5        0.0000 
    107 CA         27.8050    2.5990   13.0440 C.3       8 GLP5        0.0000 
    108 CA         27.7897    8.7161   26.6173 C.3       4 GLC5        0.0000 
    109 CA         26.2670    9.7790   26.5500 C.3       8 GLP5        0.0000 
@<TRIPOS>BOND
@<TRIPOS>SUBSTRUCTURE
     1 ALC1        7 GROUP        1 X    ALC  0     ROOT ALC X 1
     2 SEC2       21 GROUP        1 X    SEC  0     **** SEC X 2
     3 LYC4        1 GROUP        1 X    LYC  0     **** LYC X 4
     4 GLC5        4 GROUP        1 X    GLC  0     **** GLC X 6
     5 ALP1        9 GROUP        1 Y    ALP  0     ROOT ALP Y 8
     6 SEP2       23 GROUP        1 Y    SEP  0     **** SEP Y 9
     7 LYP4        3 GROUP        1 Y    LYP  0     **** LYP Y 11
     8 GLP5        6 GROUP        1 Y    GLP  0     **** GLP Y 13
     9 ALL1        8 GROUP        1 Z    ALL  0     ROOT ALL Z 15
    10 SEL2       22 GROUP        1 Z    SEL  0     **** SEL Z 16
    11 LYL4        2 GROUP        1 Z    LYL  0     **** LYL Z 18
    12 GLL5        5 GROUP        1 Z    GLL  0     **** GLL Z 20
@<TRIPOS>SET

