#    Name: 3op4_NAP_1_ligand
#    Modification time : Tue Mar 25 04:55:59 2014

@<TRIPOS>MOLECULE
3op4_NAP_1_ligand
   73    77     1     0     0
SMALL
NO_CHARGES


@<TRIPOS>ATOM
      1 PA         32.6240    7.7050   23.1410 P.3       1 NAP249      0.0000 
      2 O1A        33.5400    8.8170   22.9460 O.co2     1 NAP249      0.0000 
      3 O2A        33.0920    6.3320   23.5590 O.co2     1 NAP249      0.0000 
      4 O5B        31.4700    8.1690   24.0510 O.3       1 NAP249      0.0000 
      5 C5B        30.4730    7.2810   24.5190 C.3       1 NAP249      0.0000 
      6 C4B        29.3700    7.9420   25.3240 C.3       1 NAP249      0.0000 
      7 O4B        28.3860    6.9690   25.7070 O.3       1 NAP249      0.0000 
      8 C3B        29.9280    8.4690   26.6440 C.3       1 NAP249      0.0000 
      9 O3B        29.2510    9.6310   27.0340 O.3       1 NAP249      0.0000 
     10 C2B        29.6410    7.3400   27.6420 C.3       1 NAP249      0.0000 
     11 O2B        29.5760    7.7320   29.0280 O.3       1 NAP249      0.0000 
     12 C1B        28.3110    6.8620   27.1280 C.3       1 NAP249      0.0000 
     13 N9A        28.0720    5.4760   27.4860 N.pl3     1 NAP249      0.0000 
     14 C8A        28.8480    4.3930   27.2500 C.2       1 NAP249      0.0000 
     15 N7A        28.2310    3.3210   27.7960 N.2       1 NAP249      0.0000 
     16 C5A        27.0790    3.7340   28.3660 C.ar      1 NAP249      0.0000 
     17 C6A        26.0680    3.1130   29.1140 C.ar      1 NAP249      0.0000 
     18 N6A        26.0760    1.7820   29.3850 N.pl3     1 NAP249      0.0000 
     19 N1A        24.9970    3.8540   29.5810 N.ar      1 NAP249      0.0000 
     20 C2A        24.9280    5.2180   29.3230 C.ar      1 NAP249      0.0000 
     21 N3A        25.9460    5.8520   28.6620 N.ar      1 NAP249      0.0000 
     22 C4A        26.9790    5.1260   28.1960 C.ar      1 NAP249      0.0000 
     23 O3         31.7860    7.4030   21.7900 O.3       1 NAP249      0.0000 
     24 PN         31.4610    8.1890   20.4490 P.3       1 NAP249      0.0000 
     25 O1N        31.2230    9.6070   20.7260 O.co2     1 NAP249      0.0000 
     26 O2N        32.5020    7.8620   19.4550 O.co2     1 NAP249      0.0000 
     27 O5D        30.0820    7.4670   20.1150 O.3       1 NAP249      0.0000 
     28 C5D        28.7650    7.9370   20.3130 C.3       1 NAP249      0.0000 
     29 C4D        27.8780    7.0550   19.4610 C.3       1 NAP249      0.0000 
     30 O4D        28.2400    7.1860   18.0810 O.3       1 NAP249      0.0000 
     31 C3D        27.8920    5.5590   19.7840 C.3       1 NAP249      0.0000 
     32 O3D        26.5590    5.0220   19.6740 O.3       1 NAP249      0.0000 
     33 C2D        28.7760    5.0000   18.6860 C.3       1 NAP249      0.0000 
     34 O2D        28.5340    3.6230   18.4290 O.3       1 NAP249      0.0000 
     35 C1D        28.3730    5.8850   17.5410 C.3       1 NAP249      0.0000 
     36 N1N        29.3530    5.9840   16.4890 N.pl3     1 NAP249      0.0000 
     37 C2N        30.6450    6.3880   16.6610 C.ar      1 NAP249      0.0000 
     38 C3N        31.4940    6.4990   15.6060 C.ar      1 NAP249      0.0000 
     39 C7N        32.8780    6.9590   15.7240 C.2       1 NAP249      0.0000 
     40 O7N        33.3220    7.5020   16.9150 O.2       1 NAP249      0.0000 
     41 N7N        33.6590    6.8800   14.7260 N.am      1 NAP249      0.0000 
     42 C4N        31.0820    6.1480   14.3140 C.ar      1 NAP249      0.0000 
     43 C5N        29.7730    5.7490   14.1580 C.ar      1 NAP249      0.0000 
     44 C6N        28.8960    5.6300   15.2060 C.ar      1 NAP249      0.0000 
     45 P2B        30.9680    7.8560   29.8510 P.3       1 NAP249      0.0000 
     46 O1X        31.7090    9.1020   29.4180 O.co2     1 NAP249      0.0000 
     47 O2X        31.7980    6.6200   29.6570 O.co2     1 NAP249      0.0000 
     48 O3X        30.4650    8.0200   31.2430 O.co2     1 NAP249      0.0000 
     49 H          30.9139    6.4759   25.1590 H         1 NAP249      0.0000 
     50 H          29.9848    6.7357   23.6726 H         1 NAP249      0.0000 
     51 H          28.9452    8.7429   24.7883 H         1 NAP249      0.0000 
     52 H          30.9719    8.5723   26.5524 H         1 NAP249      0.0000 
     53 H          30.3536    6.5584   27.4483 H         1 NAP249      0.0000 
     54 H          27.5459    7.5005   27.5124 H         1 NAP249      0.0000 
     55 H          29.6844    4.3874   26.7803 H         1 NAP249      0.0000 
     56 H          26.8342    1.2584   28.9965 H         1 NAP249      0.0000 
     57 H          25.3230    1.4433   29.9491 H         1 NAP249      0.0000 
     58 H          24.0973    5.7504   29.6365 H         1 NAP249      0.0000 
     59 H          28.6394    8.9623   19.9840 H         1 NAP249      0.0000 
     60 H          28.4447    7.8438   21.3445 H         1 NAP249      0.0000 
     61 H          26.8344    7.3993   19.5766 H         1 NAP249      0.0000 
     62 H          28.3453    5.4135   20.7081 H         1 NAP249      0.0000 
     63 H          29.7860    5.2301   18.9389 H         1 NAP249      0.0000 
     64 H          27.4257    5.5531   17.1583 H         1 NAP249      0.0000 
     65 H          30.9855    6.6158   17.6236 H         1 NAP249      0.0000 
     66 H          34.6016    7.1763   14.8803 H         1 NAP249      0.0000 
     67 H          33.2577    6.5290   13.8800 H         1 NAP249      0.0000 
     68 H          31.7255    6.1895   13.5378 H         1 NAP249      0.0000 
     69 H          29.4308    5.5247   13.1852 H         1 NAP249      0.0000 
     70 H          27.9462    5.2995   15.0777 H         1 NAP249      0.0000 
     71 H          29.5868    9.8292   27.9549 H         1 NAP249      0.0000 
     72 H          25.9538    5.7802   19.9167 H         1 NAP249      0.0000 
     73 H          28.9416    3.1398   19.2038 H         1 NAP249      0.0000 
@<TRIPOS>BOND
     1    2    1 ar   
     2    3    1 ar   
     3    4    1 1    
     4   23    1 1    
     5    5    4 1    
     6    6    5 1    
     7   49    5 1    
     8   50    5 1    
     9    7    6 1    
    10    8    6 1    
    11   51    6 1    
    12   12    7 1    
    13    9    8 1    
    14   10    8 1    
    15   52    8 1    
    16   71    9 1    
    17   11   10 1    
    18   12   10 1    
    19   53   10 1    
    20   45   11 1    
    21   13   12 1    
    22   54   12 1    
    23   14   13 1    
    24   22   13 1    
    25   15   14 2    
    26   55   14 1    
    27   16   15 1    
    28   17   16 ar   
    29   22   16 ar   
    30   18   17 1    
    31   19   17 ar   
    32   56   18 1    
    33   57   18 1    
    34   20   19 ar   
    35   21   20 ar   
    36   58   20 1    
    37   22   21 ar   
    38   24   23 1    
    39   25   24 ar   
    40   26   24 ar   
    41   27   24 1    
    42   28   27 1    
    43   29   28 1    
    44   59   28 1    
    45   60   28 1    
    46   30   29 1    
    47   31   29 1    
    48   61   29 1    
    49   35   30 1    
    50   32   31 1    
    51   33   31 1    
    52   62   31 1    
    53   72   32 1    
    54   34   33 1    
    55   35   33 1    
    56   63   33 1    
    57   73   34 1    
    58   36   35 1    
    59   64   35 1    
    60   37   36 ar   
    61   44   36 ar   
    62   38   37 ar   
    63   65   37 1    
    64   39   38 1    
    65   42   38 ar   
    66   40   39 2    
    67   41   39 am   
    68   66   41 1    
    69   67   41 1    
    70   43   42 ar   
    71   68   42 1    
    72   44   43 ar   
    73   69   43 1    
    74   70   44 1    
    75   46   45 ar   
    76   47   45 ar   
    77   48   45 ar   
@<TRIPOS>SUBSTRUCTURE
     1 NAP249      1 GROUP   
@<TRIPOS>SET

