#    Name: 4ge7_0K5_1_INTS_M
#    Modification time : Mon Mar 24 21:54:58 2014

@<TRIPOS>MOLECULE
4ge7_0K5_1_INTS_M
  116     0    12     0     0
SMALL
NO_CHARGES


@<TRIPOS>ATOM
      1 CA          0.9340   -2.0175  -50.8880 C.3       4 GLC5        0.0000 
      2 CA          2.3100   -0.5850  -51.9100 C.3      12 GLL5        0.0000 
      3 CA         -0.4420   -3.4500  -49.8660 C.3       8 GLP5        0.0000 
      4 CA          1.4215    0.2035  -54.8495 C.3       4 GLC5        0.0000 
      5 CA          2.6060    0.3020  -52.9420 C.3      12 GLL5        0.0000 
      6 CA          0.2370    0.1050  -56.7570 C.3       8 GLP5        0.0000 
      7 CA          3.7065   -3.0320  -50.3575 C.3       4 GLC5        0.0000 
      8 CA          3.2940   -0.9750  -51.0110 C.3      12 GLL5        0.0000 
      9 CA          4.1190   -5.0890  -49.7040 C.3       8 GLP5        0.0000 
     10 CA          2.4745    0.7445  -49.8410 C.3       4 GLC5        0.0000 
     11 CA          1.6550    2.4640  -48.6710 C.3       8 GLP5        0.0000 
     12 CA          0.7325   11.6495  -51.4205 C.3       4 GLC5        0.0000 
     13 CA          2.5650   10.9950  -51.8900 C.3      12 GLL5        0.0000 
     14 CA         -1.1000   12.3040  -50.9510 C.3       8 GLP5        0.0000 
     15 CA          4.0645   12.5385  -52.0210 C.3       4 GLC5        0.0000 
     16 CA          5.5640   14.0820  -52.1520 C.3       8 GLP5        0.0000 
     17 CA          6.1110   -0.1030  -55.1845 C.3       4 GLC5        0.0000 
     18 CA          7.0170    1.7150  -54.4010 C.3      12 GLL5        0.0000 
     19 CA          5.2050   -1.9210  -55.9680 C.3       8 GLP5        0.0000 
     20 CA          3.4980    8.3795  -53.6895 C.3       4 GLC5        0.0000 
     21 CA          5.3300    8.5900  -52.9200 C.3      12 GLL5        0.0000 
     22 CA          1.6660    8.1690  -54.4590 C.3       8 GLP5        0.0000 
     23 CA          7.3410    8.9720  -52.3790 C.3       4 GLC5        0.0000 
     24 CA          9.3520    9.3540  -51.8380 C.3       8 GLP5        0.0000 
     25 CA          2.7710   14.4405  -55.5140 C.3       4 GLC5        0.0000 
     26 CA          3.5200   12.8110  -54.9260 C.3      12 GLL5        0.0000 
     27 CA          2.0220   16.0700  -56.1020 C.3       8 GLP5        0.0000 
     28 CA          4.3845   12.4370  -56.6635 C.3       4 GLC5        0.0000 
     29 CA          5.2490   12.0630  -58.4010 C.3       8 GLP5        0.0000 
     30 CA          5.5615   13.0705  -54.9420 C.3       4 GLC5        0.0000 
     31 CA          7.6030   13.3300  -54.9580 C.3       8 GLP5        0.0000 
     32 CA          6.1860    1.8080  -56.8295 C.3       4 GLC5        0.0000 
     33 CA          7.1300    2.7540  -55.3370 C.3      12 GLL5        0.0000 
     34 CA          5.2420    0.8620  -58.3220 C.3       8 GLP5        0.0000 
     35 CA          4.5170    3.7700  -51.3415 C.3       4 GLC5        0.0000 
     36 CA          6.0520    3.2840  -52.8600 C.3      12 GLL5        0.0000 
     37 CA          2.9820    4.2560  -49.8230 C.3       8 GLP5        0.0000 
     38 CA          5.0410   -0.7385  -54.0795 C.3       4 GLC5        0.0000 
     39 CA          4.8770    0.4440  -52.1910 C.3      12 GLL5        0.0000 
     40 CA          6.5550    5.4245  -51.7930 C.3       4 GLC5        0.0000 
     41 CA          5.7450    5.6830  -53.5140 C.3      12 GLL5        0.0000 
     42 CA          7.3650    5.1660  -50.0720 C.3       8 GLP5        0.0000 
     43 CA          4.0425    7.3525  -55.0570 C.3       4 GLC5        0.0000 
     44 CA          5.7210    6.6310  -54.4600 C.3      12 GLL5        0.0000 
     45 CA          2.3640    8.0740  -55.6540 C.3       8 GLP5        0.0000 
     46 CA          1.5440    8.1305  -49.7485 C.3       4 GLC5        0.0000 
     47 CA          3.1890    8.9320  -50.6640 C.3      12 GLL5        0.0000 
     48 CA         -0.1010    7.3290  -48.8330 C.3       8 GLP5        0.0000 
     49 CA          2.4275    8.5505  -52.5615 C.3       4 GLC5        0.0000 
     50 N           1.6945   12.9605  -52.9655 N.am      2 SEC2        0.0000 
     51 N           2.5550   11.9270  -52.8510 N.am     10 SEL2        0.0000 
     52 N           0.8340   13.9940  -53.0800 N.am      6 SEP2        0.0000 
     53 N           3.5835    9.8930  -46.6065 N.am      2 SEC2        0.0000 
     54 N           4.7140    9.7170  -47.5340 N.am     10 SEL2        0.0000 
     55 N           2.4530   10.0690  -45.6790 N.am      6 SEP2        0.0000 
     56 N           3.7640   10.6680  -47.9150 N.am      2 SEC2        0.0000 
     57 N           2.8140   11.6190  -48.2960 N.am      6 SEP2        0.0000 
     58 N           5.7620   10.4900  -47.4195 N.am      2 SEC2        0.0000 
     59 N           6.8100   11.2630  -47.3050 N.am      6 SEP2        0.0000 
     60 N           6.1290    8.8925  -47.1960 N.am      2 SEC2        0.0000 
     61 N           7.5440    8.0680  -46.8580 N.am      6 SEP2        0.0000 
     62 N           5.3700    9.9015  -46.2285 N.am      2 SEC2        0.0000 
     63 N           6.0260   10.0860  -44.9230 N.am      6 SEP2        0.0000 
     64 NZ          5.2775    6.4520  -47.2655 N.4       3 LYC4        0.0000 
     65 NZ          5.4980    7.4700  -48.2890 N.4      11 LYL4        0.0000 
     66 NZ          3.8310    4.9590  -46.0320 N.4       7 LYP4        0.0000 
     67 N           6.5210    7.7690  -47.5735 N.am      2 SEC2        0.0000 
     68 N           5.4980    7.4700  -48.2890 N.am     10 SEL2        0.0000 
     69 N           5.2775    6.4520  -47.2655 N.am      2 SEC2        0.0000 
     70 N           5.0570    5.4340  -46.2420 N.am      6 SEP2        0.0000 
     71 N           6.2770    6.9835  -49.2270 N.am      2 SEC2        0.0000 
     72 N           7.0560    6.4970  -50.1650 N.am      6 SEP2        0.0000 
     73 N           5.8510    8.5325  -57.0980 N.am      2 SEC2        0.0000 
     74 N           6.2430    7.1990  -56.6830 N.am     10 SEL2        0.0000 
     75 N           5.4590    9.8660  -57.5130 N.am      6 SEP2        0.0000 
     76 N           6.4385    7.2505  -58.2200 N.am      2 SEC2        0.0000 
     77 N           6.6340    7.3020  -59.7570 N.am      6 SEP2        0.0000 
     78 NZ          2.8930    6.7175  -47.2900 N.4       3 LYC4        0.0000 
     79 NZ          2.9810    7.8950  -47.9600 N.4      11 LYL4        0.0000 
     80 N           1.7555    8.6360  -47.7740 N.am      2 SEC2        0.0000 
     81 N           2.9810    7.8950  -47.9600 N.am     10 SEL2        0.0000 
     82 N           0.5300    9.3770  -47.5880 N.am      6 SEP2        0.0000 
     83 N           2.8930    6.7175  -47.2900 N.am      2 SEC2        0.0000 
     84 N           2.8050    5.5400  -46.6200 N.am      6 SEP2        0.0000 
     85 N           5.3665   10.2655  -56.2090 N.am      2 SEC2        0.0000 
     86 N           5.2740   10.6650  -54.9050 N.am     10 SEL2        0.0000 
     87 O           6.5005   10.8250  -54.7040 O.2       1 ALC1        0.0000 
     88 O           5.2740   10.6650  -54.9050 O.2       9 ALL1        0.0000 
     89 O           7.7270   10.9850  -54.5030 O.2       5 ALP1        0.0000 
     90 N           7.5780    5.1145  -58.5575 N.am      2 SEC2        0.0000 
     91 N           7.2650    4.8350  -57.2920 N.am     10 SEL2        0.0000 
     92 N           7.8910    5.3940  -59.8230 N.am      6 SEP2        0.0000 
     93 N           3.5705   10.2935  -49.0625 N.am      2 SEC2        0.0000 
     94 N           4.3270    8.9680  -49.8290 N.am     10 SEL2        0.0000 
     95 CA          3.8032   -0.2200  -54.9175 C.3       4 GLC5        0.0000 
     96 CA          3.8910    0.8100  -53.0980 C.3      12 GLL5        0.0000 
     97 CA          4.3580   -0.9960  -56.8150 C.3       8 GLP5        0.0000 
     98 CA          0.4145   -0.2462  -52.6045 C.3       4 GLC5        0.0000 
     99 CA         -1.6290   -0.3510  -52.7830 C.3       8 GLP5        0.0000 
    100 CA          1.9696    1.5717  -51.7560 C.3       4 GLC5        0.0000 
    101 CA          1.1600    3.1580  -51.0470 C.3       8 GLP5        0.0000 
    102 CA          4.2992   -0.2873  -49.1397 C.3       4 GLC5        0.0000 
    103 CA          4.6690    0.1320  -47.1960 C.3       8 GLP5        0.0000 
    104 CA          8.3893    4.1040  -55.9260 C.3       4 GLC5        0.0000 
    105 CA          9.8800    4.7990  -56.6590 C.3       8 GLP5        0.0000 
    106 CA          2.3905   11.4940  -55.6628 C.3       4 GLC5        0.0000 
    107 CA          3.4610   11.7840  -53.8260 C.3      12 GLL5        0.0000 
    108 CA          1.3580   10.1450  -56.4280 C.3       8 GLP5        0.0000 
    109 CA          6.4885    0.4755  -50.7317 C.3       4 GLC5        0.0000 
    110 CA          8.2560    0.9480  -49.7900 C.3       8 GLP5        0.0000 
    111 CA          7.2495    1.7870  -51.3990 C.3       4 GLC5        0.0000 
    112 CA          6.4340    1.9680  -53.1560 C.3      12 GLL5        0.0000 
    113 CA          8.5269    1.4601  -53.4922 C.3       4 GLC5        0.0000 
    114 CA         10.3000    0.8190  -52.9720 C.3       8 GLP5        0.0000 
    115 CA          4.7501   12.7986  -53.1365 C.3       4 GLC5        0.0000 
    116 CA          4.3820   10.7330  -53.8660 C.3      12 GLL5        0.0000 
@<TRIPOS>BOND
@<TRIPOS>SUBSTRUCTURE
     1 ALC1       87 GROUP        1 X    ALC  0     ROOT ALC X 1
     2 SEC2       50 GROUP        1 X    SEC  0     **** SEC X 2
     3 LYC4       64 GROUP        1 X    LYC  0     **** LYC X 4
     4 GLC5        1 GROUP        1 X    GLC  0     **** GLC X 6
     5 ALP1       89 GROUP        1 Y    ALP  0     ROOT ALP Y 8
     6 SEP2       52 GROUP        1 Y    SEP  0     **** SEP Y 9
     7 LYP4       66 GROUP        1 Y    LYP  0     **** LYP Y 11
     8 GLP5        3 GROUP        1 Y    GLP  0     **** GLP Y 13
     9 ALL1       88 GROUP        1 Z    ALL  0     ROOT ALL Z 15
    10 SEL2       51 GROUP        1 Z    SEL  0     **** SEL Z 16
    11 LYL4       65 GROUP        1 Z    LYL  0     **** LYL Z 18
    12 GLL5        2 GROUP        1 Z    GLL  0     **** GLL Z 20
@<TRIPOS>SET

