#    Name: 4ge7_0K5_1_ligand
#    Modification time : Mon Mar 24 21:54:59 2014

@<TRIPOS>MOLECULE
4ge7_0K5_1_ligand
   54    57     1     0     0
SMALL
NO_CHARGES


@<TRIPOS>ATOM
      1 C35         3.8910    0.8100  -53.0980 C.ar      1 0K5501      0.0000 
      2 C33         2.3100   -0.5850  -51.9100 C.ar      1 0K5501      0.0000 
      3 C34         2.6060    0.3020  -52.9420 C.ar      1 0K5501      0.0000 
      4 C32         3.2940   -0.9750  -51.0110 C.ar      1 0K5501      0.0000 
      5 C4          2.5650   10.9950  -51.8900 C.ar      1 0K5501      0.0000 
      6 C7          3.4140    9.8890  -51.8260 C.ar      1 0K5501      0.0000 
      7 C6          6.1570    4.3170  -53.8140 C.ar      1 0K5501      0.0000 
      8 C9          7.0170    1.7150  -54.4010 C.ar      1 0K5501      0.0000 
      9 C13         5.3300    8.5900  -52.9200 C.3       1 0K5501      0.0000 
     10 C8          6.6670    4.0640  -55.0490 C.ar      1 0K5501      0.0000 
     11 C16         3.5200   12.8110  -54.9260 C.3       1 0K5501      0.0000 
     12 C3          7.1300    2.7540  -55.3370 C.ar      1 0K5501      0.0000 
     13 C31         4.5650   -0.4380  -51.1560 C.ar      1 0K5501      0.0000 
     14 C1          6.0520    3.2840  -52.8600 C.ar      1 0K5501      0.0000 
     15 C5          4.3630    9.7530  -52.8570 C.ar      1 0K5501      0.0000 
     16 C30         4.8770    0.4440  -52.1910 C.ar      1 0K5501      0.0000 
     17 C2          6.4340    1.9680  -53.1560 C.ar      1 0K5501      0.0000 
     18 C10         4.3820   10.7330  -53.8660 C.ar      1 0K5501      0.0000 
     19 C11         3.4610   11.7840  -53.8260 C.ar      1 0K5501      0.0000 
     20 C14         5.7450    5.6830  -53.5140 C.2       1 0K5501      0.0000 
     21 C15         5.7210    6.6310  -54.4600 C.2       1 0K5501      0.0000 
     22 C12         6.2360    6.3610  -55.8020 C.2       1 0K5501      0.0000 
     23 C17         3.1890    8.9320  -50.6640 C.3       1 0K5501      0.0000 
     24 N18         2.5550   11.9270  -52.8510 N.ar      1 0K5501      0.0000 
     25 N20         6.7230    5.0670  -55.9980 N.am      1 0K5501      0.0000 
     26 N19         5.1390    7.9060  -54.1970 N.pl3     1 0K5501      0.0000 
     27 O22         4.7140    9.7170  -47.5340 O.co2     1 0K5501      0.0000 
     28 O24         5.4980    7.4700  -48.2890 O.co2     1 0K5501      0.0000 
     29 O23         6.2430    7.1990  -56.6830 O.2       1 0K5501      0.0000 
     30 O21         2.9810    7.8950  -47.9600 O.co2     1 0K5501      0.0000 
     31 O25         5.2740   10.6650  -54.9050 O.3       1 0K5501      0.0000 
     32 O26         7.2650    4.8350  -57.2920 O.2       1 0K5501      0.0000 
     33 O29         6.1480    0.9500  -52.2940 O.3       1 0K5501      0.0000 
     34 O27         4.3270    8.9680  -49.8290 O.3       1 0K5501      0.0000 
     35 P28         4.3520    8.4800  -48.3170 P.3       1 0K5501      0.0000 
     36 H           4.1063    1.4444  -53.8703 H         1 0K5501      0.0000 
     37 H           1.3512   -0.9545  -51.8140 H         1 0K5501      0.0000 
     38 H           1.8607    0.5857  -53.5996 H         1 0K5501      0.0000 
     39 H           3.0879   -1.6363  -50.2668 H         1 0K5501      0.0000 
     40 H           1.8591   11.0879  -51.0794 H         1 0K5501      0.0000 
     41 H           7.3595    0.7797  -54.6302 H         1 0K5501      0.0000 
     42 H           5.1276    7.9210  -52.0874 H         1 0K5501      0.0000 
     43 H           6.3438    8.9726  -52.8325 H         1 0K5501      0.0000 
     44 H           7.5583    2.5683  -56.2573 H         1 0K5501      0.0000 
     45 H           5.3085   -0.6982  -50.4757 H         1 0K5501      0.0000 
     46 H           5.6834    3.5063  -51.9190 H         1 0K5501      0.0000 
     47 H           5.4738    5.8739  -52.5308 H         1 0K5501      0.0000 
     48 H           3.0133    7.9365  -51.0810 H         1 0K5501      0.0000 
     49 H           2.2824    9.2492  -50.1414 H         1 0K5501      0.0000 
     50 H           4.5698    8.3666  -54.9123 H         1 0K5501      0.0000 
     51 H           4.4058   13.2742  -54.9545 H         1 0K5501      0.0000 
     52 H           3.3750   12.4000  -55.8260 H         1 0K5501      0.0000 
     53 H           2.8228   13.5186  -54.8112 H         1 0K5501      0.0000 
     54 H           6.1307   10.3576  -54.4908 H         1 0K5501      0.0000 
@<TRIPOS>BOND
     1    3    1 ar   
     2   16    1 ar   
     3   36    1 1    
     4    3    2 ar   
     5    4    2 ar   
     6   37    2 1    
     7   38    3 1    
     8   13    4 ar   
     9   39    4 1    
    10    6    5 ar   
    11   24    5 ar   
    12   40    5 1    
    13   15    6 ar   
    14   23    6 1    
    15   10    7 ar   
    16   14    7 ar   
    17   20    7 1    
    18   12    8 ar   
    19   17    8 ar   
    20   41    8 1    
    21   15    9 1    
    22   26    9 1    
    23   42    9 1    
    24   43    9 1    
    25   12   10 ar   
    26   25   10 1    
    27   19   11 1    
    28   51   11 1    
    29   52   11 1    
    30   53   11 1    
    31   44   12 1    
    32   16   13 ar   
    33   45   13 1    
    34   17   14 ar   
    35   46   14 1    
    36   18   15 ar   
    37   33   16 1    
    38   33   17 1    
    39   19   18 ar   
    40   31   18 1    
    41   24   19 ar   
    42   21   20 2    
    43   47   20 1    
    44   22   21 1    
    45   26   21 1    
    46   25   22 am   
    47   29   22 2    
    48   34   23 1    
    49   48   23 1    
    50   49   23 1    
    51   32   25 1    
    52   50   26 1    
    53   35   27 ar   
    54   35   28 ar   
    55   35   30 ar   
    56   54   31 1    
    57   35   34 1    
@<TRIPOS>SUBSTRUCTURE
     1 0K5501      1 GROUP   
@<TRIPOS>SET

