#    Name: 2xpv_MIY_1_INTS_M
#    Modification time : Tue Mar 25 06:31:14 2014

@<TRIPOS>MOLECULE
2xpv_MIY_1_INTS_M
   61     0    12     0     0
SMALL
NO_CHARGES


@<TRIPOS>ATOM
      1 N          16.7430   31.0730   34.7030 N.am      2 SEC2        0.0000 
      2 N          17.6140   32.0380   34.5830 N.am     10 SEL2        0.0000 
      3 N          15.8720   30.1080   34.8230 N.am      6 SEP2        0.0000 
      4 N          17.5675   32.7165   36.1465 N.am      2 SEC2        0.0000 
      5 N          17.5210   33.3950   37.7100 N.am      6 SEP2        0.0000 
      6 CA         19.1440   31.4440   33.9350 C.3       4 GLC5        0.0000 
      7 CA         19.4100   33.5520   34.2750 C.3      12 GLL5        0.0000 
      8 CA         18.8780   29.3360   33.5950 C.3       8 GLP5        0.0000 
      9 N          19.6310   30.8820   35.4555 N.am      2 SEC2        0.0000 
     10 N          19.8960   32.1140   36.0750 N.am     10 SEL2        0.0000 
     11 N          19.3660   29.6500   34.8360 N.am      6 SEP2        0.0000 
     12 N          19.7685   31.2840   37.2220 N.am      2 SEC2        0.0000 
     13 N          19.6410   30.4540   38.3690 N.am      6 SEP2        0.0000 
     14 N          18.7085   32.7545   36.8925 N.am      2 SEC2        0.0000 
     15 O          21.8470   32.3730   37.8335 O.2       1 ALC1        0.0000 
     16 O          22.0690   33.3100   36.8830 O.2       9 ALL1        0.0000 
     17 O          21.6250   31.4360   38.7840 O.2       5 ALP1        0.0000 
     18 CA         22.6560   35.9640   38.4195 C.3       4 GLC5        0.0000 
     19 CA         22.7620   34.1300   37.9370 C.3      12 GLL5        0.0000 
     20 CA         22.5500   37.7980   38.9020 C.3       8 GLP5        0.0000 
     21 CA         24.5945   33.2550   38.8525 C.3       4 GLC5        0.0000 
     22 CA         26.4270   32.3800   39.7680 C.3       8 GLP5        0.0000 
     23 CA         24.1955   31.7770   35.0755 C.3       4 GLC5        0.0000 
     24 CA         23.0520   32.6510   36.0110 C.3      12 GLL5        0.0000 
     25 CA         25.3390   30.9030   34.1400 C.3       8 GLP5        0.0000 
     26 Zn         22.9950   36.1160   31.0605 Zn        3 ZIC7        0.0000 
     27 Zn         22.3830   35.6680   31.6530 Zn       11 ZIL7        0.0000 
     28 Zn         23.6070   36.5640   30.4680 Zn        7 ZIP7        0.0000 
     29 CA         20.5435   38.5695   32.4700 C.3       4 GLC5        0.0000 
     30 CA         22.0860   37.3090   33.3340 C.3      12 GLL5        0.0000 
     31 CA         19.0010   39.8300   31.6060 C.3       8 GLP5        0.0000 
     32 CA         18.8895   37.1440   34.8965 C.3       4 GLC5        0.0000 
     33 CA         20.9180   36.5410   35.4370 C.3      12 GLL5        0.0000 
     34 CA         16.8610   37.7470   34.3560 C.3       8 GLP5        0.0000 
     35 Zn         23.3085   37.4200   30.9240 Zn        3 ZIC7        0.0000 
     36 Zn         23.0100   38.2760   31.3800 Zn       11 ZIL7        0.0000 
     37 CA         18.9355   39.3160   35.3145 C.3       4 GLC5        0.0000 
     38 CA         20.7700   38.9250   34.7110 C.3      12 GLL5        0.0000 
     39 CA         17.1010   39.7070   35.9180 C.3       8 GLP5        0.0000 
     40 CA         19.0725   40.6620   36.2945 C.3       4 GLC5        0.0000 
     41 CA         21.0440   41.6170   36.6710 C.3      12 GLL5        0.0000 
     42 CA         20.0610   41.6955   38.6570 C.3       4 GLC5        0.0000 
     43 CA         19.0780   41.7740   40.6430 C.3       8 GLP5        0.0000 
     44 CA         22.1170   42.6885   37.5925 C.3       4 GLC5        0.0000 
     45 CA         23.1900   43.7600   38.5140 C.3       8 GLP5        0.0000 
     46 CA         18.3310   41.2965   35.6225 C.3       4 GLC5        0.0000 
     47 CA         19.5610   42.8860   35.3270 C.3      12 GLL5        0.0000 
     48 CA         18.4140   42.6360   37.1660 C.3       4 GLC5        0.0000 
     49 CA         17.2670   42.3860   39.0050 C.3       8 GLP5        0.0000 
     50 CA         21.9248   37.4507   36.9925 C.3       4 GLC5        0.0000 
     51 CA         21.6810   37.6660   34.7290 C.3      12 GLL5        0.0000 
     52 CA         21.2712   40.4040   31.6017 C.3       4 GLC5        0.0000 
     53 CA         22.3460   39.8160   32.9630 C.3      12 GLL5        0.0000 
     54 CA         19.8770   40.4910   30.5930 C.3       8 GLP5        0.0000 
     55 CA         21.0782   41.3882   31.8503 C.3       4 GLC5        0.0000 
     56 CA         22.7080   42.1370   32.5840 C.3      12 GLL5        0.0000 
     57 CA         22.6444   42.4639   31.2810 C.3       4 GLC5        0.0000 
     58 CA         22.9850   40.8180   32.2580 C.3      12 GLL5        0.0000 
     59 CA         22.9400   42.9720   29.5360 C.3       8 GLP5        0.0000 
     60 CA         20.0838   40.1410   32.9736 C.3       4 GLC5        0.0000 
     61 CA         21.2120   41.4060   34.3350 C.3      12 GLL5        0.0000 
@<TRIPOS>BOND
@<TRIPOS>SUBSTRUCTURE
     1 ALC1       15 GROUP        1 X    ALC  0     ROOT ALC X 1
     2 SEC2        1 GROUP        1 X    SEC  0     **** SEC X 2
     3 ZIC7       26 GROUP        1 X    ZIC  0     **** ZIC X 5
     4 GLC5        6 GROUP        1 X    GLC  0     **** GLC X 6
     5 ALP1       17 GROUP        1 Y    ALP  0     ROOT ALP Y 8
     6 SEP2        3 GROUP        1 Y    SEP  0     **** SEP Y 9
     7 ZIP7       28 GROUP        1 Y    ZIP  0     **** ZIP Y 12
     8 GLP5        8 GROUP        1 Y    GLP  0     **** GLP Y 13
     9 ALL1       16 GROUP        1 Z    ALL  0     ROOT ALL Z 15
    10 SEL2        2 GROUP        1 Z    SEL  0     **** SEL Z 16
    11 ZIL7       27 GROUP        1 Z    ZIL  0     **** ZIL Z 19
    12 GLL5        7 GROUP        1 Z    GLL  0     **** GLL Z 20
@<TRIPOS>SET

