#    Name: 2xpv_MIY_1_ligand
#    Modification time : Tue Mar 25 06:31:14 2014

@<TRIPOS>MOLECULE
2xpv_MIY_1_ligand
   59    62     1     0     0
SMALL
NO_CHARGES


@<TRIPOS>ATOM
      1 O8         17.6140   32.0380   34.5830 O.2       1 MIY1209     0.0000 
      2 C21        18.1400   32.9430   33.9010 C.2       1 MIY1209     0.0000 
      3 N2         17.5290   33.3450   32.8150 N.am      1 MIY1209     0.0000 
      4 C2         19.4100   33.5520   34.2750 C.2       1 MIY1209     0.0000 
      5 C1         20.0490   34.5770   33.4770 C.2       1 MIY1209     0.0000 
      6 O1         19.5280   35.0630   32.4900 O.2       1 MIY1209     0.0000 
      7 C3         20.0940   33.1930   35.3940 C.2       1 MIY1209     0.0000 
      8 O2         19.8960   32.1140   36.0750 O.co2     1 MIY1209     0.0000 
      9 C4         21.0690   34.0950   36.1290 C.3       1 MIY1209     0.0000 
     10 N1         22.0690   33.3100   36.8830 N.4       1 MIY1209     0.0000 
     11 C20        22.7620   34.1300   37.9370 C.3       1 MIY1209     0.0000 
     12 C19        23.0520   32.6510   36.0110 C.3       1 MIY1209     0.0000 
     13 C5         21.6710   35.2110   35.2750 C.3       1 MIY1209     0.0000 
     14 C18        21.4930   34.9360   33.7780 C.3       1 MIY1209     0.0000 
     15 O7         22.2740   33.7580   33.4590 O.3       1 MIY1209     0.0000 
     16 C17        21.9980   36.0460   32.8630 C.2       1 MIY1209     0.0000 
     17 O6         22.3830   35.6680   31.6530 O.co2     1 MIY1209     0.0000 
     18 C16        22.0860   37.3090   33.3340 C.2       1 MIY1209     0.0000 
     19 C7         21.6810   37.6660   34.7290 C.3       1 MIY1209     0.0000 
     20 C6         20.9180   36.5410   35.4370 C.3       1 MIY1209     0.0000 
     21 C15        22.5990   38.4220   32.5330 C.2       1 MIY1209     0.0000 
     22 O5         23.0100   38.2760   31.3800 O.2       1 MIY1209     0.0000 
     23 C14        22.3460   39.8160   32.9630 C.ar      1 MIY1209     0.0000 
     24 C9         21.4720   40.0710   33.9840 C.ar      1 MIY1209     0.0000 
     25 C8         20.7700   38.9250   34.7110 C.3       1 MIY1209     0.0000 
     26 C13        22.9850   40.8180   32.2580 C.ar      1 MIY1209     0.0000 
     27 O4         23.7910   40.5290   31.2020 O.3       1 MIY1209     0.0000 
     28 C12        22.7080   42.1370   32.5840 C.ar      1 MIY1209     0.0000 
     29 C11        21.8510   42.4340   33.6310 C.ar      1 MIY1209     0.0000 
     30 C10        21.2120   41.4060   34.3350 C.ar      1 MIY1209     0.0000 
     31 N7         20.3320   41.6400   35.4060 N.3       1 MIY1209     0.0000 
     32 CN7        21.0440   41.6170   36.6710 C.3       1 MIY1209     0.0000 
     33 C71        19.5610   42.8860   35.3270 C.3       1 MIY1209     0.0000 
     34 H          17.9920   34.0575   32.2878 H         1 MIY1209     0.0000 
     35 H          16.6554   32.9027   32.6123 H         1 MIY1209     0.0000 
     36 H          20.4330   34.6323   36.9208 H         1 MIY1209     0.0000 
     37 H          21.5167   32.5009   37.4316 H         1 MIY1209     0.0000 
     38 H          22.6877   35.3651   35.4767 H         1 MIY1209     0.0000 
     39 H          22.5520   37.9139   35.3195 H         1 MIY1209     0.0000 
     40 H          20.8302   36.7747   36.4917 H         1 MIY1209     0.0000 
     41 H          19.9303   36.4468   35.0009 H         1 MIY1209     0.0000 
     42 H          19.8473   38.6786   34.2006 H         1 MIY1209     0.0000 
     43 H          20.5583   39.2149   35.7326 H         1 MIY1209     0.0000 
     44 H          23.1430   42.9012   32.0433 H         1 MIY1209     0.0000 
     45 H          21.6786   43.4136   33.8981 H         1 MIY1209     0.0000 
     46 H          23.4383   33.5925   38.4406 H         1 MIY1209     0.0000 
     47 H          23.2442   34.9118   37.5418 H         1 MIY1209     0.0000 
     48 H          22.1166   34.4929   38.6091 H         1 MIY1209     0.0000 
     49 H          23.5628   33.3119   35.4612 H         1 MIY1209     0.0000 
     50 H          23.7221   32.1267   36.5365 H         1 MIY1209     0.0000 
     51 H          22.6161   32.0148   35.3743 H         1 MIY1209     0.0000 
     52 H          21.4883   40.7356   36.8311 H         1 MIY1209     0.0000 
     53 H          21.7580   42.3162   36.7081 H         1 MIY1209     0.0000 
     54 H          20.4321   41.7816   37.4446 H         1 MIY1209     0.0000 
     55 H          20.1557   43.6893   35.2954 H         1 MIY1209     0.0000 
     56 H          18.9852   42.9153   34.5099 H         1 MIY1209     0.0000 
     57 H          18.9567   42.9995   36.1157 H         1 MIY1209     0.0000 
     58 H          21.9156   33.0405   34.0563 H         1 MIY1209     0.0000 
     59 H          23.3438   39.7651   30.7367 H         1 MIY1209     0.0000 
@<TRIPOS>BOND
     1    2    1 2    
     2    3    2 am   
     3    4    2 1    
     4   34    3 1    
     5   35    3 1    
     6    5    4 1    
     7    7    4 2    
     8    6    5 2    
     9   14    5 1    
    10    8    7 ar   
    11    9    7 1    
    12   10    9 1    
    13   13    9 1    
    14   36    9 1    
    15   11   10 1    
    16   12   10 1    
    17   37   10 1    
    18   46   11 1    
    19   47   11 1    
    20   48   11 1    
    21   49   12 1    
    22   50   12 1    
    23   51   12 1    
    24   14   13 1    
    25   20   13 1    
    26   38   13 1    
    27   15   14 1    
    28   16   14 1    
    29   58   15 1    
    30   17   16 ar   
    31   18   16 2    
    32   19   18 1    
    33   21   18 1    
    34   20   19 1    
    35   25   19 1    
    36   39   19 1    
    37   40   20 1    
    38   41   20 1    
    39   22   21 2    
    40   23   21 1    
    41   24   23 ar   
    42   26   23 ar   
    43   25   24 1    
    44   30   24 ar   
    45   42   25 1    
    46   43   25 1    
    47   27   26 1    
    48   28   26 ar   
    49   59   27 1    
    50   29   28 ar   
    51   44   28 1    
    52   30   29 ar   
    53   45   29 1    
    54   31   30 1    
    55   32   31 1    
    56   33   31 1    
    57   52   32 1    
    58   53   32 1    
    59   54   32 1    
    60   55   33 1    
    61   56   33 1    
    62   57   33 1    
@<TRIPOS>SUBSTRUCTURE
     1 MIY1209     1 GROUP   
@<TRIPOS>SET

