#    Name: 1nrl_SRL_1_INTS_M
#    Modification time : Mon Mar 24 18:46:04 2014

@<TRIPOS>MOLECULE
1nrl_SRL_1_INTS_M
   79     0     6     0     0
SMALL
NO_CHARGES


@<TRIPOS>ATOM
      1 CA          8.8755   31.3130   24.8675 C.3       2 GLC5        0.0000 
      2 CA         10.5730   31.0880   23.5830 C.3       6 GLL5        0.0000 
      3 CA          7.1780   31.5380   26.1520 C.3       4 GLP5        0.0000 
      4 CA         13.4255   35.4125   29.6920 C.3       2 GLC5        0.0000 
      5 CA         11.8440   35.2120   28.4010 C.3       6 GLL5        0.0000 
      6 CA         15.0070   35.6130   30.9830 C.3       4 GLP5        0.0000 
      7 CA         12.2805   37.2725   28.9275 C.3       2 GLC5        0.0000 
      8 CA         12.7170   39.3330   29.4540 C.3       4 GLP5        0.0000 
      9 CA         11.7130   35.0770   30.4125 C.3       2 GLC5        0.0000 
     10 CA         11.5820   34.9420   32.4240 C.3       4 GLP5        0.0000 
     11 CA         11.4330   38.0225   25.8105 C.3       2 GLC5        0.0000 
     12 CA         12.3550   36.4010   26.2660 C.3       6 GLL5        0.0000 
     13 CA         10.5110   39.6440   25.3550 C.3       4 GLP5        0.0000 
     14 CA         12.5360   37.8670   27.8600 C.3       2 GLC5        0.0000 
     15 CA         16.7880   28.5580   25.3565 C.3       2 GLC5        0.0000 
     16 CA         16.1020   30.2570   25.7160 C.3       6 GLL5        0.0000 
     17 CA         17.4740   26.8590   24.9970 C.3       4 GLP5        0.0000 
     18 CA         15.5800   28.8550   26.9165 C.3       2 GLC5        0.0000 
     19 CA         15.0580   27.4530   28.1170 C.3       4 GLP5        0.0000 
     20 CA         18.2635   30.1915   26.0740 C.3       2 GLC5        0.0000 
     21 CA         20.4250   30.1260   26.4320 C.3       4 GLP5        0.0000 
     22 CA         18.7855   32.5720   26.0905 C.3       2 GLC5        0.0000 
     23 CA         17.0700   32.5740   25.8030 C.3       6 GLL5        0.0000 
     24 CA         20.5010   32.5700   26.3780 C.3       4 GLP5        0.0000 
     25 CA         15.9135   29.8605   29.1470 C.3       2 GLC5        0.0000 
     26 CA         16.2350   31.4990   27.9550 C.3       6 GLL5        0.0000 
     27 CA         15.5920   28.2220   30.3390 C.3       4 GLP5        0.0000 
     28 CA         16.9090   32.2890   29.6450 C.3       2 GLC5        0.0000 
     29 CA         17.5830   33.0790   31.3350 C.3       4 GLP5        0.0000 
     30 N          11.3450   28.1265   23.3380 N.am      1 SEC2        0.0000 
     31 N           9.9510   28.4620   23.2360 N.am      5 SEL2        0.0000 
     32 N          12.7390   27.7910   23.4400 N.am      3 SEP2        0.0000 
     33 CA         13.3540   28.3390   19.1515 C.3       2 GLC5        0.0000 
     34 CA         12.4660   29.6670   19.8240 C.3       6 GLL5        0.0000 
     35 CA         14.2420   27.0110   18.4790 C.3       4 GLP5        0.0000 
     36 CA         12.1185   29.9555   17.8615 C.3       2 GLC5        0.0000 
     37 CA         11.7710   30.2440   15.8990 C.3       4 GLP5        0.0000 
     38 CA         11.0365   28.4085   18.9110 C.3       2 GLC5        0.0000 
     39 CA          9.6070   27.1500   17.9980 C.3       4 GLP5        0.0000 
     40 CA          6.7490   27.4480   21.3980 C.3       2 GLC5        0.0000 
     41 CA          7.5170   29.0370   21.5520 C.3       6 GLL5        0.0000 
     42 CA          5.9810   25.8590   21.2440 C.3       4 GLP5        0.0000 
     43 CA          4.2010   30.5390   21.3615 C.3       2 GLC5        0.0000 
     44 CA          6.0180   29.3160   21.5370 C.3       6 GLL5        0.0000 
     45 CA          2.3840   31.7620   21.1860 C.3       4 GLP5        0.0000 
     46 CA          5.7485   27.7915   22.0100 C.3       2 GLC5        0.0000 
     47 CA          5.4790   26.2670   22.4830 C.3       4 GLP5        0.0000 
     48 N           8.3455   34.5370   24.4310 N.am      1 SEC2        0.0000 
     49 N           9.6350   33.7070   24.0270 N.am      5 SEL2        0.0000 
     50 N           7.0560   35.3670   24.8350 N.am      3 SEP2        0.0000 
     51 CA         10.7725   36.6200   22.8235 C.3       2 GLC5        0.0000 
     52 CA         11.6530   34.8400   22.3820 C.3       6 GLL5        0.0000 
     53 CA          9.8920   38.4000   23.2650 C.3       4 GLP5        0.0000 
     54 CA         12.6030   37.3585   22.8085 C.3       2 GLC5        0.0000 
     55 CA         12.9970   35.4390   22.0650 C.3       6 GLL5        0.0000 
     56 CA         12.2090   39.2780   23.5520 C.3       4 GLP5        0.0000 
     57 CA         14.6825   34.2835   21.7490 C.3       2 GLC5        0.0000 
     58 CA         16.3680   33.1280   21.4330 C.3       4 GLP5        0.0000 
     59 CA          6.6325   33.4610   22.8805 C.3       2 GLC5        0.0000 
     60 CA          8.2680   32.7800   21.7230 C.3       6 GLL5        0.0000 
     61 CA          4.9970   34.1420   24.0380 C.3       4 GLP5        0.0000 
     62 CA          6.5825   32.1130   19.2755 C.3       2 GLC5        0.0000 
     63 CA          7.7250   32.7990   20.3380 C.3       6 GLL5        0.0000 
     64 CA          5.4400   31.4270   18.2130 C.3       4 GLP5        0.0000 
     65 CA         18.2015   31.4775   27.1300 C.3       2 GLC5        0.0000 
     66 CA         15.9330   31.6630   26.4070 C.3       6 GLL5        0.0000 
     67 CA         20.3190   31.3740   27.0790 C.3       4 GLP5        0.0000 
     68 CA          9.7089   35.3389   28.2765 C.3       2 GLC5        0.0000 
     69 CA         11.7090   35.0730   26.8510 C.3       6 GLL5        0.0000 
     70 CA          8.4210   35.5730   29.5290 C.3       4 GLP5        0.0000 
     71 CA         17.0164   31.9540   24.1706 C.3       2 GLC5        0.0000 
     72 CA         17.4890   32.1410   22.4090 C.3       4 GLP5        0.0000 
     73 CA         13.8335   30.3088   20.3553 C.3       2 GLC5        0.0000 
     74 CA         11.8440   29.8160   21.2190 C.3       6 GLL5        0.0000 
     75 CA         15.5120   30.8760   20.1890 C.3       4 GLP5        0.0000 
     76 CA         12.3020   28.1163   21.7312 C.3       2 GLC5        0.0000 
     77 CA         12.4490   26.4910   22.9410 C.3       4 GLP5        0.0000 
     78 CA          6.1713   29.0523   19.9168 C.3       2 GLC5        0.0000 
     79 CA          5.5750   28.9280   18.2890 C.3       4 GLP5        0.0000 
@<TRIPOS>BOND
@<TRIPOS>SUBSTRUCTURE
     1 SEC2       30 GROUP        1 X    SEC  0     ROOT SEC X 2
     2 GLC5        1 GROUP        1 X    GLC  0     **** GLC X 6
     3 SEP2       32 GROUP        1 Y    SEP  0     ROOT SEP Y 9
     4 GLP5        3 GROUP        1 Y    GLP  0     **** GLP Y 13
     5 SEL2       31 GROUP        1 Z    SEL  0     ROOT SEL Z 16
     6 GLL5        2 GROUP        1 Z    GLL  0     **** GLL Z 20
@<TRIPOS>SET

