#    Name: 1nrl_SRL_1_ligand
#    Modification time : Mon Mar 24 18:46:04 2014

@<TRIPOS>MOLECULE
1nrl_SRL_1_ligand
   75    75     1     0     0
SMALL
NO_CHARGES


@<TRIPOS>ATOM
      1 C1         12.4020   33.7580   26.4000 C.ar      1 SRL1        0.0000 
      2 C2         13.7910   33.3940   26.6330 C.ar      1 SRL1        0.0000 
      3 C3         14.4550   32.1630   26.2100 C.ar      1 SRL1        0.0000 
      4 C4         13.5680   31.2700   25.4970 C.ar      1 SRL1        0.0000 
      5 C5         12.2220   31.5570   25.2360 C.ar      1 SRL1        0.0000 
      6 C6         11.6680   32.7720   25.6870 C.ar      1 SRL1        0.0000 
      7 C7         11.3970   30.6410   24.4970 C.2       1 SRL1        0.0000 
      8 C8         10.5730   31.0880   23.5830 C.2       1 SRL1        0.0000 
      9 P9          9.6910   29.7960   22.5590 P.3       1 SRL1        0.0000 
     10 P10        10.3270   32.8320   23.1130 P.3       1 SRL1        0.0000 
     11 O11        14.5390   34.2590   27.2850 O.3       1 SRL1        0.0000 
     12 C12        11.7090   35.0730   26.8510 C.3       1 SRL1        0.0000 
     13 C13        15.9330   31.6630   26.4070 C.3       1 SRL1        0.0000 
     14 C14        11.8440   35.2120   28.4010 C.3       1 SRL1        0.0000 
     15 C15        10.2170   35.0670   26.4220 C.3       1 SRL1        0.0000 
     16 C16        12.3550   36.4010   26.2660 C.3       1 SRL1        0.0000 
     17 C17        16.1020   30.2570   25.7160 C.3       1 SRL1        0.0000 
     18 C18        17.0700   32.5740   25.8030 C.3       1 SRL1        0.0000 
     19 C19        16.2350   31.4990   27.9550 C.3       1 SRL1        0.0000 
     20 O20         9.9510   28.4620   23.2360 O.2       1 SRL1        0.0000 
     21 O21        10.4300   29.6680   21.1490 O.3       1 SRL1        0.0000 
     22 C22        11.8440   29.8160   21.2190 C.3       1 SRL1        0.0000 
     23 C23        12.4660   29.6670   19.8240 C.3       1 SRL1        0.0000 
     24 O24         8.1340   29.8770   22.4900 O.3       1 SRL1        0.0000 
     25 C25         7.5170   29.0370   21.5520 C.3       1 SRL1        0.0000 
     26 C26         6.0180   29.3160   21.5370 C.3       1 SRL1        0.0000 
     27 O27         9.6350   33.7070   24.0270 O.2       1 SRL1        0.0000 
     28 O28        11.7710   33.4540   22.7870 O.3       1 SRL1        0.0000 
     29 C29        11.6530   34.8400   22.3820 C.3       1 SRL1        0.0000 
     30 C30        12.9970   35.4390   22.0650 C.3       1 SRL1        0.0000 
     31 O31         9.6490   32.8580   21.6580 O.3       1 SRL1        0.0000 
     32 C32         8.2680   32.7800   21.7230 C.3       1 SRL1        0.0000 
     33 C33         7.7250   32.7990   20.3380 C.3       1 SRL1        0.0000 
     34 H          13.9712   30.3656   25.1660 H         1 SRL1        0.0000 
     35 H          10.6581   32.9635   25.4876 H         1 SRL1        0.0000 
     36 H          11.4967   29.6357   24.7305 H         1 SRL1        0.0000 
     37 H          12.3042   29.0581   21.8676 H         1 SRL1        0.0000 
     38 H          12.1346   30.8024   21.6057 H         1 SRL1        0.0000 
     39 H           7.6517   27.9738   21.7898 H         1 SRL1        0.0000 
     40 H           7.8924   29.1999   20.5334 H         1 SRL1        0.0000 
     41 H          11.1824   35.4405   23.1788 H         1 SRL1        0.0000 
     42 H          11.0105   34.9324   21.4900 H         1 SRL1        0.0000 
     43 H           7.8269   33.6242   22.2756 H         1 SRL1        0.0000 
     44 H           7.9239   31.8560   22.2133 H         1 SRL1        0.0000 
     45 H          12.8011   35.2371   28.6897 H         1 SRL1        0.0000 
     46 H          11.4142   36.0499   28.7376 H         1 SRL1        0.0000 
     47 H          11.4130   34.4481   28.8813 H         1 SRL1        0.0000 
     48 H          10.1161   34.9889   25.4302 H         1 SRL1        0.0000 
     49 H           9.7167   34.3026   26.8286 H         1 SRL1        0.0000 
     50 H           9.7474   35.9052   26.6993 H         1 SRL1        0.0000 
     51 H          13.3136   36.4970   26.5340 H         1 SRL1        0.0000 
     52 H          12.3269   36.4186   25.2666 H         1 SRL1        0.0000 
     53 H          11.8776   37.2189   26.5871 H         1 SRL1        0.0000 
     54 H          17.0317   29.9028   25.8171 H         1 SRL1        0.0000 
     55 H          15.4843   29.5745   26.1067 H         1 SRL1        0.0000 
     56 H          15.9095   30.2995   24.7356 H         1 SRL1        0.0000 
     57 H          17.9792   32.1918   25.9683 H         1 SRL1        0.0000 
     58 H          16.9729   32.6822   24.8136 H         1 SRL1        0.0000 
     59 H          17.0611   33.4916   26.2004 H         1 SRL1        0.0000 
     60 H          17.1678   31.1783   28.1195 H         1 SRL1        0.0000 
     61 H          16.1311   32.3632   28.4473 H         1 SRL1        0.0000 
     62 H          15.6183   30.8402   28.3859 H         1 SRL1        0.0000 
     63 H          13.4610   29.7636   19.8488 H         1 SRL1        0.0000 
     64 H          12.2683   28.7726   19.4228 H         1 SRL1        0.0000 
     65 H          12.1203   30.3566   19.1876 H         1 SRL1        0.0000 
     66 H           5.8193   30.2652   21.2929 H         1 SRL1        0.0000 
     67 H           5.5391   28.7372   20.8770 H         1 SRL1        0.0000 
     68 H           5.6003   29.1495   22.4302 H         1 SRL1        0.0000 
     69 H          13.6105   35.4134   22.8543 H         1 SRL1        0.0000 
     70 H          13.4550   34.9513   21.3218 H         1 SRL1        0.0000 
     71 H          12.9203   36.3957   21.7842 H         1 SRL1        0.0000 
     72 H           7.9732   33.6377   19.8532 H         1 SRL1        0.0000 
     73 H           8.0684   32.0334   19.7939 H         1 SRL1        0.0000 
     74 H           6.7268   32.7401   20.3296 H         1 SRL1        0.0000 
     75 H          15.1164   34.8364   27.8624 H         1 SRL1        0.0000 
@<TRIPOS>BOND
     1    2    1 ar   
     2    6    1 ar   
     3   12    1 1    
     4    3    2 ar   
     5   11    2 1    
     6    4    3 ar   
     7   13    3 1    
     8    5    4 ar   
     9   34    4 1    
    10    6    5 ar   
    11    7    5 1    
    12   35    6 1    
    13    8    7 2    
    14   36    7 1    
    15    9    8 1    
    16   10    8 1    
    17   20    9 2    
    18   21    9 1    
    19   24    9 1    
    20   27   10 2    
    21   28   10 1    
    22   31   10 1    
    23   75   11 1    
    24   14   12 1    
    25   15   12 1    
    26   16   12 1    
    27   17   13 1    
    28   18   13 1    
    29   19   13 1    
    30   45   14 1    
    31   46   14 1    
    32   47   14 1    
    33   48   15 1    
    34   49   15 1    
    35   50   15 1    
    36   51   16 1    
    37   52   16 1    
    38   53   16 1    
    39   54   17 1    
    40   55   17 1    
    41   56   17 1    
    42   57   18 1    
    43   58   18 1    
    44   59   18 1    
    45   60   19 1    
    46   61   19 1    
    47   62   19 1    
    48   22   21 1    
    49   23   22 1    
    50   37   22 1    
    51   38   22 1    
    52   63   23 1    
    53   64   23 1    
    54   65   23 1    
    55   25   24 1    
    56   26   25 1    
    57   39   25 1    
    58   40   25 1    
    59   66   26 1    
    60   67   26 1    
    61   68   26 1    
    62   29   28 1    
    63   30   29 1    
    64   41   29 1    
    65   42   29 1    
    66   69   30 1    
    67   70   30 1    
    68   71   30 1    
    69   32   31 1    
    70   33   32 1    
    71   43   32 1    
    72   44   32 1    
    73   72   33 1    
    74   73   33 1    
    75   74   33 1    
@<TRIPOS>SUBSTRUCTURE
     1 SRL1        1 GROUP   
@<TRIPOS>SET

