#    Name: 3r7o_M61_1_INTS_M
#    Modification time : Mon Apr  7 19:57:48 2014

@<TRIPOS>MOLECULE
3r7o_M61_1_INTS_M
   78     0     9     0     0
SMALL
NO_CHARGES


@<TRIPOS>ATOM
      1 N          -7.4350   -9.6170  -17.7355 N.am      2 SEC2        0.0000 
      2 N          -6.7760   -8.9240  -16.6650 N.am      8 SEL2        0.0000 
      3 N          -8.0940  -10.3100  -18.8060 N.am      5 SEP2        0.0000 
      4 CA         -6.6995   -9.2700  -18.5310 C.3       3 GLC5        0.0000 
      5 CA         -5.5090   -9.0640  -17.0730 C.3       9 GLL5        0.0000 
      6 CA         -7.8900   -9.4760  -19.9890 C.3       6 GLP5        0.0000 
      7 CA         -7.6085   -8.0240  -17.6665 C.3       3 GLC5        0.0000 
      8 CA         -7.0070   -8.0380  -15.6860 C.3       9 GLL5        0.0000 
      9 CA         -8.2100   -8.0100  -19.6470 C.3       6 GLP5        0.0000 
     10 CA         -9.0295   -7.8950  -17.2760 C.3       3 GLC5        0.0000 
     11 CA         -8.4250   -7.9680  -15.3950 C.3       9 GLL5        0.0000 
     12 CA         -9.6340   -7.8220  -19.1570 C.3       6 GLP5        0.0000 
     13 CA        -10.8815   -6.7045  -15.2480 C.3       3 GLC5        0.0000 
     14 CA         -9.0930   -7.1100  -14.6220 C.3       9 GLL5        0.0000 
     15 CA        -12.6700   -6.2990  -15.8740 C.3       6 GLP5        0.0000 
     16 CA         -6.8310   -7.0650  -12.0640 C.3       3 GLC5        0.0000 
     17 CA         -7.2920   -5.7020  -13.4960 C.3       9 GLL5        0.0000 
     18 CA         -6.3700   -8.4280  -10.6320 C.3       6 GLP5        0.0000 
     19 CA        -11.1355   -5.7180  -14.6515 C.3       3 GLC5        0.0000 
     20 CA         -9.6010   -5.1370  -13.4290 C.3       9 GLL5        0.0000 
     21 CA        -10.5595   -2.3075  -12.7840 C.3       3 GLC5        0.0000 
     22 CA         -9.3140   -4.0300  -12.6710 C.3       9 GLL5        0.0000 
     23 CA        -11.8050   -0.5850  -12.8970 C.3       6 GLP5        0.0000 
     24 CA         -2.5745   -9.1435  -15.1730 C.3       3 GLC5        0.0000 
     25 CA         -3.1130   -8.5120  -17.0850 C.3       9 GLL5        0.0000 
     26 CA         -2.0360   -9.7750  -13.2610 C.3       6 GLP5        0.0000 
     27 CA         -7.5180    0.5365  -14.5900 C.3       3 GLC5        0.0000 
     28 CA         -6.5970   -0.5990  -13.2700 C.3       9 GLL5        0.0000 
     29 CA         -8.4390    1.6720  -15.9100 C.3       6 GLP5        0.0000 
     30 CA         -6.5110   -2.0750  -14.6900 C.3       3 GLC5        0.0000 
     31 CA         -6.4250   -3.5510  -16.1100 C.3       6 GLP5        0.0000 
     32 CA         -8.5465   -0.2620  -12.8700 C.3       3 GLC5        0.0000 
     33 CA        -10.4960    0.0750  -12.4700 C.3       6 GLP5        0.0000 
     34 CA         -5.5450   -2.8345  -14.6515 C.3       3 GLC5        0.0000 
     35 CA         -4.6650   -2.1180  -13.1930 C.3       9 GLL5        0.0000 
     36 O          -8.8040   -1.8405  -10.9845 O.2       1 ALC1        0.0000 
     37 O          -7.8160   -2.6250  -11.4540 O.2       7 ALL1        0.0000 
     38 O          -9.7920   -1.0560  -10.5150 O.2       4 ALP1        0.0000 
     39 CA         -3.4485   -1.1400  -16.3180 C.3       3 GLC5        0.0000 
     40 CA         -2.9840   -0.8320  -14.5000 C.3       9 GLL5        0.0000 
     41 CA         -3.9130   -1.4480  -18.1360 C.3       6 GLP5        0.0000 
     42 CA         -1.7790   -3.4695  -11.9480 C.3       3 GLC5        0.0000 
     43 CA         -1.0880   -1.5880  -12.6290 C.3       9 GLL5        0.0000 
     44 CA         -2.4700   -5.3510  -11.2670 C.3       6 GLP5        0.0000 
     45 CA         -1.6350   -2.1805  -10.5285 C.3       3 GLC5        0.0000 
     46 CA         -2.1820   -2.7730   -8.4280 C.3       6 GLP5        0.0000 
     47 N          -2.3015   -2.8810  -11.2210 N.am      2 SEC2        0.0000 
     48 N          -2.3250   -2.2860  -12.7230 N.am      8 SEL2        0.0000 
     49 N          -2.2780   -3.4760   -9.7190 N.am      5 SEP2        0.0000 
     50 CA         -1.8790   -7.2010  -20.0480 C.3       3 GLC5        0.0000 
     51 CA         -0.0140   -8.4150  -20.2220 C.3       9 GLL5        0.0000 
     52 CA         -3.7440   -5.9870  -19.8740 C.3       6 GLP5        0.0000 
     53 CA         -5.6188   -6.2855  -16.7610 C.3       3 GLC5        0.0000 
     54 CA         -4.4430   -8.3610  -16.5550 C.3       9 GLL5        0.0000 
     55 CA         -6.6730   -4.6300  -17.5010 C.3       6 GLP5        0.0000 
     56 CA         -7.4275   -9.1505  -14.2865 C.3       3 GLC5        0.0000 
     57 CA         -5.9850   -7.3520  -15.0460 C.3       9 GLL5        0.0000 
     58 CA         -8.3590  -10.6060  -13.2070 C.3       6 GLP5        0.0000 
     59 CA         -8.5590   -9.0725  -14.1077 C.3       3 GLC5        0.0000 
     60 CA         -7.0668   -6.2307  -16.4408 C.3       3 GLC5        0.0000 
     61 CA        -10.5360   -6.8195  -13.0275 C.3       3 GLC5        0.0000 
     62 CA        -12.2240   -7.0860  -11.8260 C.3       6 GLP5        0.0000 
     63 CA        -10.8407   -5.8347  -12.4380 C.3       3 GLC5        0.0000 
     64 CA         -7.5996   -4.5220  -14.8287 C.3       3 GLC5        0.0000 
     65 CA        -10.2223   -3.8122  -14.8125 C.3       3 GLC5        0.0000 
     66 CA        -10.9870   -3.0410  -16.5750 C.3       6 GLP5        0.0000 
     67 CA         -9.3163   -3.9892  -10.5235 C.3       3 GLC5        0.0000 
     68 CA         -9.9670   -4.0770   -8.5670 C.3       6 GLP5        0.0000 
     69 CA         -6.8220   -5.1870  -11.0103 C.3       3 GLC5        0.0000 
     70 CA         -8.0170   -3.7730  -12.2890 C.3       9 GLL5        0.0000 
     71 CA         -6.1330   -6.1860   -9.5210 C.3       6 GLP5        0.0000 
     72 CA         -6.9680   -3.8695  -14.3048 C.3       3 GLC5        0.0000 
     73 CA         -7.0050   -4.6030  -12.7100 C.3       9 GLL5        0.0000 
     74 CA         -3.2375   -3.5495  -12.2148 C.3       3 GLC5        0.0000 
     75 CA         -3.5158   -7.4069  -18.6980 C.3       3 GLC5        0.0000 
     76 CA         -5.0243   -9.3564  -14.6446 C.3       3 GLC5        0.0000 
     77 CA         -4.6860   -7.5210  -15.4870 C.3       9 GLL5        0.0000 
     78 CA         -4.3850  -10.8070  -13.5310 C.3       6 GLP5        0.0000 
@<TRIPOS>BOND
@<TRIPOS>SUBSTRUCTURE
     1 ALC1       36 GROUP        1 X    ALC  0     ROOT ALC X 1
     2 SEC2        1 GROUP        1 X    SEC  0     **** SEC X 2
     3 GLC5        4 GROUP        1 X    GLC  0     **** GLC X 6
     4 ALP1       38 GROUP        1 Y    ALP  0     ROOT ALP Y 8
     5 SEP2        3 GROUP        1 Y    SEP  0     **** SEP Y 9
     6 GLP5        6 GROUP        1 Y    GLP  0     **** GLP Y 13
     7 ALL1       37 GROUP        1 Z    ALL  0     ROOT ALL Z 15
     8 SEL2        2 GROUP        1 Z    SEL  0     **** SEL Z 16
     9 GLL5        5 GROUP        1 Z    GLL  0     **** GLL Z 20
@<TRIPOS>SET

