#    Name: 3r7o_M61_1_ligand
#    Modification time : Mon Apr  7 19:57:48 2014

@<TRIPOS>MOLECULE
3r7o_M61_1_ligand
   71    76     1     0     0
SMALL
NO_CHARGES


@<TRIPOS>ATOM
      1 C          -4.4430   -8.3610  -16.5550 C.ar      1 M611        0.0000 
      2 N          -6.7760   -8.9240  -16.6650 N.ar      1 M611        0.0000 
      3 O          -5.1400   -6.4670  -13.1050 O.2       1 M611        0.0000 
      4 S          -6.2770   -2.0310  -10.9750 S.o2      1 M611        0.0000 
      5 C1         -5.5090   -9.0640  -17.0730 C.ar      1 M611        0.0000 
      6 C2         -7.0070   -8.0380  -15.6860 C.ar      1 M611        0.0000 
      7 C3         -5.9850   -7.3520  -15.0460 C.ar      1 M611        0.0000 
      8 C4         -4.6860   -7.5210  -15.4870 C.ar      1 M611        0.0000 
      9 C5         -8.4250   -7.9680  -15.3950 C.2       1 M611        0.0000 
     10 C6         -9.0930   -7.1100  -14.6220 C.2       1 M611        0.0000 
     11 C7         -8.6030   -5.9960  -13.8360 C.ar      1 M611        0.0000 
     12 C8         -7.2920   -5.7020  -13.4960 C.ar      1 M611        0.0000 
     13 C9         -6.1140   -6.5080  -13.8510 C.2       1 M611        0.0000 
     14 C10        -9.6010   -5.1370  -13.4290 C.ar      1 M611        0.0000 
     15 C11        -9.3140   -4.0300  -12.6710 C.ar      1 M611        0.0000 
     16 C12        -8.0170   -3.7730  -12.2890 C.ar      1 M611        0.0000 
     17 C13        -7.0050   -4.6030  -12.7100 C.ar      1 M611        0.0000 
     18 C14        -3.1130   -8.5120  -17.0850 C.2       1 M611        0.0000 
     19 C15        -6.5970   -0.5990  -13.2700 C.3       1 M611        0.0000 
     20 N16        -5.6540   -1.3440  -12.4150 N.pl3     1 M611        0.0000 
     21 C17        -4.6650   -2.1180  -13.1930 C.3       1 M611        0.0000 
     22 O18        -6.6320   -0.9440  -10.0820 O.2       1 M611        0.0000 
     23 O19        -5.3800   -3.0730  -10.5170 O.2       1 M611        0.0000 
     24 N20        -7.8160   -2.6250  -11.4540 N.pl3     1 M611        0.0000 
     25 C21        -3.3450   -1.3780  -13.1320 C.3       1 M611        0.0000 
     26 C22        -2.9840   -0.8320  -14.5000 C.3       1 M611        0.0000 
     27 O23        -1.7540   -0.1220  -14.4000 O.3       1 M611        0.0000 
     28 C24        -0.7300   -1.0250  -13.9920 C.3       1 M611        0.0000 
     29 C25        -1.0880   -1.5880  -12.6290 C.3       1 M611        0.0000 
     30 O26        -2.3250   -2.2860  -12.7230 O.3       1 M611        0.0000 
     31 C27        -2.7970   -9.2170  -18.2240 C.2       1 M611        0.0000 
     32 N28        -1.4530   -9.0340  -18.3850 N.pl3     1 M611        0.0000 
     33 N29        -0.8810   -8.2550  -17.4490 N.2       1 M611        0.0000 
     34 C30        -1.8950   -7.9380  -16.6440 C.2       1 M611        0.0000 
     35 C31        -0.6500   -9.5710  -19.4710 C.3       1 M611        0.0000 
     36 C32         0.3900  -10.5390  -18.9270 C.3       1 M611        0.0000 
     37 C33         1.4170  -10.9410  -19.9690 C.3       1 M611        0.0000 
     38 N34         2.0040   -9.7070  -20.5480 N.4       1 M611        0.0000 
     39 C35         0.9780   -8.8970  -21.2600 C.3       1 M611        0.0000 
     40 C36        -0.0140   -8.4150  -20.2220 C.3       1 M611        0.0000 
     41 H          -5.2930   -9.7640  -17.8520 H         1 M611        0.0000 
     42 H          -3.9137   -7.0285  -15.0263 H         1 M611        0.0000 
     43 H          -8.9989   -8.7531  -15.9042 H         1 M611        0.0000 
     44 H         -10.1822   -7.2335  -14.5432 H         1 M611        0.0000 
     45 H         -10.5853   -5.3332  -13.7019 H         1 M611        0.0000 
     46 H         -10.0718   -3.3867  -12.3853 H         1 M611        0.0000 
     47 H          -6.0273   -4.4068  -12.4395 H         1 M611        0.0000 
     48 H          -4.9760   -2.2021  -14.2276 H         1 M611        0.0000 
     49 H          -4.5363   -3.1067  -12.7687 H         1 M611        0.0000 
     50 H          -8.5542   -2.0560  -11.0675 H         1 M611        0.0000 
     51 H          -3.4366   -0.5593  -12.4471 H         1 M611        0.0000 
     52 H          -3.8007   -0.1852  -14.8332 H         1 M611        0.0000 
     53 H          -2.9115   -1.6750  -15.1932 H         1 M611        0.0000 
     54 H           0.2406   -0.5276  -13.9088 H         1 M611        0.0000 
     55 H          -0.6261   -1.8625  -14.6879 H         1 M611        0.0000 
     56 H          -1.1448   -0.7532  -11.9224 H         1 M611        0.0000 
     57 H          -0.2729   -2.2463  -12.3101 H         1 M611        0.0000 
     58 H          -3.3783   -9.7100  -18.7636 H         1 M611        0.0000 
     59 H          -1.8507   -7.3828  -15.8400 H         1 M611        0.0000 
     60 H          -1.2906  -10.1111  -20.1645 H         1 M611        0.0000 
     61 H          -0.1181  -11.4389  -18.5543 H         1 M611        0.0000 
     62 H           0.9031  -10.0724  -18.0750 H         1 M611        0.0000 
     63 H           0.9280  -11.5252  -20.7411 H         1 M611        0.0000 
     64 H           2.1873  -11.5393  -19.4945 H         1 M611        0.0000 
     65 H           0.4632   -9.5021  -21.9914 H         1 M611        0.0000 
     66 H           1.4377   -8.0442  -21.7371 H         1 M611        0.0000 
     67 H           0.4976   -7.7602  -19.5083 H         1 M611        0.0000 
     68 H          -0.7987   -7.8306  -20.7145 H         1 M611        0.0000 
     69 H          -6.1502   -0.2372  -14.0882 H         1 M611        0.0000 
     70 H          -7.3529   -1.1759  -13.5796 H         1 M611        0.0000 
     71 H          -7.0003    0.1789  -12.7881 H         1 M611        0.0000 
@<TRIPOS>BOND
     1    5    1 ar   
     2    8    1 ar   
     3   18    1 1    
     4    5    2 ar   
     5    6    2 ar   
     6   13    3 2    
     7   20    4 1    
     8   22    4 2    
     9   23    4 2    
    10   24    4 1    
    11   41    5 1    
    12    7    6 ar   
    13    9    6 1    
    14    8    7 ar   
    15   13    7 1    
    16   42    8 1    
    17   10    9 2    
    18   43    9 1    
    19   11   10 1    
    20   44   10 1    
    21   12   11 ar   
    22   14   11 ar   
    23   13   12 1    
    24   17   12 ar   
    25   15   14 ar   
    26   45   14 1    
    27   16   15 ar   
    28   46   15 1    
    29   17   16 ar   
    30   24   16 1    
    31   47   17 1    
    32   31   18 2    
    33   34   18 1    
    34   20   19 1    
    35   69   19 1    
    36   70   19 1    
    37   71   19 1    
    38   21   20 1    
    39   25   21 1    
    40   48   21 1    
    41   49   21 1    
    42   50   24 1    
    43   26   25 1    
    44   30   25 1    
    45   51   25 1    
    46   27   26 1    
    47   52   26 1    
    48   53   26 1    
    49   28   27 1    
    50   29   28 1    
    51   54   28 1    
    52   55   28 1    
    53   30   29 1    
    54   56   29 1    
    55   57   29 1    
    56   32   31 1    
    57   58   31 1    
    58   33   32 1    
    59   35   32 1    
    60   34   33 2    
    61   59   34 1    
    62   36   35 1    
    63   40   35 1    
    64   60   35 1    
    65   37   36 1    
    66   61   36 1    
    67   62   36 1    
    68   38   37 1    
    69   63   37 1    
    70   64   37 1    
    71   39   38 1    
    72   40   39 1    
    73   65   39 1    
    74   66   39 1    
    75   67   40 1    
    76   68   40 1    
@<TRIPOS>SUBSTRUCTURE
     1 M611        1 GROUP   
@<TRIPOS>SET

