#    Name: 1KBO_4_CAVITY_N1_6.mol2
#    Modification time : Tue Mar 11 13:06:28 2014

@<TRIPOS>MOLECULE
1KBO_4_CAVITY_N1_6.mol2
  116     0     6     0     0
SMALL
NO_CHARGES


@<TRIPOS>ATOM
      1 N         -33.4358  -26.8757  -20.4454 N.2       2 ALA2        0.0000 
      2 N         -32.2122  -27.3145  -21.1939 N.2       2 ALA2        0.0000 
      3 CA        -32.4422  -26.2307  -22.2052 C.3       5 GLY6        0.0000 
      4 N         -30.7587  -28.8370  -20.9313 N.2       2 ALA2        0.0000 
      5 DU        -30.9886  -27.7533  -21.9425 H         6 CUB7        0.0000 
      6 CA        -31.2186  -26.6695  -22.9537 C.3       5 GLY6        0.0000 
      7 CA        -31.4485  -25.5857  -23.9649 C.3       5 GLY6        0.0000 
      8 OG        -29.5351  -29.2758  -21.6798 O.2       1 SER1        0.0000 
      9 OG        -29.7650  -28.1920  -22.6910 O.2       1 SER1        0.0000 
     10 N         -29.9950  -27.1083  -23.7022 N.2       2 ALA2        0.0000 
     11 CA        -30.2249  -26.0245  -24.7134 C.3       5 GLY6        0.0000 
     12 OG        -28.5414  -28.6308  -23.4395 O.2       1 SER1        0.0000 
     13 OG        -28.7714  -27.5470  -24.4507 O.2       1 SER1        0.0000 
     14 N         -29.0013  -26.4633  -25.4619 N.2       2 ALA2        0.0000 
     15 OG        -27.5478  -27.9858  -25.1992 O.2       1 SER1        0.0000 
     16 N         -27.7777  -26.9020  -26.2104 N.2       2 ALA2        0.0000 
     17 CZ        -28.0077  -25.8183  -27.2216 C.ar      4 PHE5        0.0000 
     18 CA        -28.2376  -24.7345  -28.2329 C.3       5 GLY6        0.0000 
     19 CA        -28.4676  -23.6507  -29.2441 C.3       5 GLY6        0.0000 
     20 CZ        -26.5541  -27.3408  -26.9590 C.ar      4 PHE5        0.0000 
     21 CZ        -27.0140  -25.1733  -28.9814 C.ar      4 PHE5        0.0000 
     22 OG        -27.2440  -24.0895  -29.9926 O.2       1 SER1        0.0000 
     23 CZ        -25.3305  -27.7796  -27.7075 C.ar      4 PHE5        0.0000 
     24 CZ        -25.5605  -26.6958  -28.7187 C.ar      4 PHE5        0.0000 
     25 OG        -29.9015  -36.8686  -20.8339 O.2       1 SER1        0.0000 
     26 CA        -30.8213  -32.5335  -24.8787 C.3       5 GLY6        0.0000 
     27 CA        -31.0513  -31.4497  -25.8899 C.3       5 GLY6        0.0000 
     28 OG        -29.5977  -32.9723  -25.6272 O.2       1 SER1        0.0000 
     29 N         -29.8277  -31.8885  -26.6384 N.2       2 ALA2        0.0000 
     30 N         -30.0576  -30.8047  -27.6497 N.2       2 ALA2        0.0000 
     31 OG        -28.3741  -33.4110  -26.3757 O.2       1 SER1        0.0000 
     32 CZ        -28.6041  -32.3273  -27.3870 C.ar      4 PHE5        0.0000 
     33 DU        -28.8340  -31.2435  -28.3982 H         6 CUB7        0.0000 
     34 O         -29.0640  -30.1597  -29.4094 O.2       2 ALA2        0.0000 
     35 CZ        -27.3805  -32.7660  -28.1355 C.ar      4 PHE5        0.0000 
     36 N         -27.6104  -31.6823  -29.1467 N.2       2 ALA2        0.0000 
     37 N         -27.8404  -30.5985  -30.1579 N.2       2 ALA2        0.0000 
     38 CZ        -26.3868  -32.1210  -29.8952 C.ar      4 PHE5        0.0000 
     39 N         -31.3756  -26.3749  -20.3771 N.2       2 ALA2        0.0000 
     40 N         -31.6056  -25.2911  -21.3884 N.2       2 ALA2        0.0000 
     41 DU        -30.1520  -26.8136  -21.1257 H         6 CUB7        0.0000 
     42 N         -30.3820  -25.7299  -22.1369 N.2       2 ALA2        0.0000 
     43 DU        -28.9284  -27.2524  -21.8742 H         6 CUB7        0.0000 
     44 N         -29.1584  -26.1686  -22.8854 N.2       2 ALA2        0.0000 
     45 OG        -27.4749  -28.7750  -21.6115 O.2       1 SER1        0.0000 
     46 OG        -27.7048  -27.6912  -22.6227 O.2       1 SER1        0.0000 
     47 N         -27.9348  -26.6074  -23.6339 N.2       2 ALA2        0.0000 
     48 CZ        -26.7112  -27.0462  -24.3824 C.ar      4 PHE5        0.0000 
     49 CZ        -26.9411  -25.9624  -25.3936 C.ar      4 PHE5        0.0000 
     50 CZ        -27.6310  -22.7111  -28.4273 C.ar      4 PHE5        0.0000 
     51 OG        -28.9808  -35.4344  -26.1813 O.2       1 SER1        0.0000 
     52 OG        -29.2108  -34.3507  -27.1926 O.2       1 SER1        0.0000 
     53 N         -29.4407  -33.2669  -28.2038 N.2       2 ALA2        0.0000 
     54 O         -29.6707  -32.1831  -29.2150 O.2       2 ALA2        0.0000 
     55 CZ        -27.9872  -34.7894  -27.9411 C.ar      4 PHE5        0.0000 
     56 CZ        -28.2171  -33.7057  -28.9523 C.ar      4 PHE5        0.0000 
     57 N         -28.4471  -32.6219  -29.9635 N.2       2 ALA2        0.0000 
     58 N         -27.2235  -33.0607  -30.7120 N.2       2 ALA2        0.0000 
     59 CZ        -30.7381  -37.8082  -21.6507 C.ar      4 PHE5        0.0000 
     60 CZ        -30.9681  -36.7244  -22.6619 C.ar      4 PHE5        0.0000 
     61 O         -29.5145  -38.2470  -22.3992 O.2       2 ALA2        0.0000 
     62 OG        -29.7445  -37.1632  -23.4104 O.2       1 SER1        0.0000 
     63 OG        -29.9745  -36.0794  -24.4216 O.2       1 SER1        0.0000 
     64 OG        -30.2044  -34.9957  -25.4328 O.2       1 SER1        0.0000 
     65 CZ        -30.4344  -33.9119  -26.4440 C.ar      4 PHE5        0.0000 
     66 NZ        -34.2724  -27.8153  -21.2622 N.2       3 LYS4        0.0000 
     67 N         -32.8189  -29.3379  -20.9995 N.2       2 ALA2        0.0000 
     68 OG        -33.0488  -28.2541  -22.0108 O.2       1 SER1        0.0000 
     69 CA        -33.2788  -27.1703  -23.0220 C.3       5 GLY6        0.0000 
     70 CA        -31.5953  -29.7767  -21.7481 C.3       5 GLY6        0.0000 
     71 OG        -31.8252  -28.6929  -22.7593 O.2       1 SER1        0.0000 
     72 CA        -32.0552  -27.6091  -23.7705 C.3       5 GLY6        0.0000 
     73 N         -32.2852  -26.5253  -24.7817 N.2       2 ALA2        0.0000 
     74 CA        -30.3717  -30.2154  -22.4966 C.3       5 GLY6        0.0000 
     75 OG        -30.6017  -29.1317  -23.5078 O.2       1 SER1        0.0000 
     76 CA        -30.8316  -28.0479  -24.5190 C.3       5 GLY6        0.0000 
     77 OG        -29.3781  -29.5704  -24.2563 O.2       1 SER1        0.0000 
     78 OG        -29.6080  -28.4867  -25.2675 O.2       1 SER1        0.0000 
     79 OG        -28.3844  -28.9255  -26.0160 O.2       1 SER1        0.0000 
     80 N         -28.6144  -27.8417  -27.0272 N.2       2 ALA2        0.0000 
     81 N         -28.8443  -26.7579  -28.0385 N.2       2 ALA2        0.0000 
     82 CZ        -27.1608  -29.3642  -26.7646 C.ar      4 PHE5        0.0000 
     83 CZ        -27.3908  -28.2805  -27.7758 C.ar      4 PHE5        0.0000 
     84 CA        -27.6207  -27.1967  -28.7870 C.3       5 GLY6        0.0000 
     85 CA        -27.8507  -26.1129  -29.7982 C.3       5 GLY6        0.0000 
     86 CZ        -26.1672  -28.7192  -28.5243 C.ar      4 PHE5        0.0000 
     87 CA        -26.3971  -27.6355  -29.5355 C.3       5 GLY6        0.0000 
     88 CA        -24.9436  -29.1580  -29.2728 C.3       5 GLY6        0.0000 
     89 OG        -34.1154  -28.1100  -23.8388 O.2       1 SER1        0.0000 
     90 OG        -32.4319  -30.7163  -22.5649 O.2       1 SER1        0.0000 
     91 OG        -32.6619  -29.6325  -23.5761 O.2       1 SER1        0.0000 
     92 CA        -32.8918  -28.5487  -24.5873 C.3       5 GLY6        0.0000 
     93 CA        -31.2083  -31.1551  -23.3134 C.3       5 GLY6        0.0000 
     94 CA        -31.4383  -30.0713  -24.3246 C.3       5 GLY6        0.0000 
     95 OG        -29.9847  -31.5939  -24.0619 O.2       1 SER1        0.0000 
     96 OG        -30.2147  -30.5101  -25.0731 O.2       1 SER1        0.0000 
     97 CA        -30.4446  -29.4263  -26.0843 C.3       5 GLY6        0.0000 
     98 OG        -28.9911  -30.9489  -25.8216 O.2       1 SER1        0.0000 
     99 OG        -29.2210  -29.8651  -26.8328 O.2       1 SER1        0.0000 
    100 O         -29.4510  -28.7813  -27.8441 O.2       2 ALA2        0.0000 
    101 OG        -27.7675  -31.3876  -26.5701 O.2       1 SER1        0.0000 
    102 CZ        -27.9974  -30.3039  -27.5814 C.ar      4 PHE5        0.0000 
    103 CA        -28.2274  -29.2201  -28.5926 C.3       5 GLY6        0.0000 
    104 CZ        -26.7738  -30.7426  -28.3299 C.ar      4 PHE5        0.0000 
    105 CA        -27.0038  -29.6589  -29.3411 C.3       5 GLY6        0.0000 
    106 CZ        -25.5502  -31.1814  -29.0784 C.ar      4 PHE5        0.0000 
    107 CA        -25.7802  -30.0976  -30.0896 C.3       5 GLY6        0.0000 
    108 CZ        -30.5811  -38.1028  -24.2272 C.ar      4 PHE5        0.0000 
    109 CZ        -30.8111  -37.0191  -25.2384 C.ar      4 PHE5        0.0000 
    110 CZ        -29.5875  -37.4578  -25.9869 C.ar      4 PHE5        0.0000 
    111 N         -29.8174  -36.3741  -26.9982 N.2       2 ALA2        0.0000 
    112 N         -30.0474  -35.2903  -28.0094 N.2       2 ALA2        0.0000 
    113 CZ        -28.5938  -36.8128  -27.7467 C.ar      4 PHE5        0.0000 
    114 CZ        -28.8238  -35.7291  -28.7579 C.ar      4 PHE5        0.0000 
    115 N         -29.0537  -34.6453  -29.7691 N.2       2 ALA2        0.0000 
    116 CZ        -27.8301  -35.0841  -30.5176 C.ar      4 PHE5        0.0000 
@<TRIPOS>BOND
@<TRIPOS>SUBSTRUCTURE
     1 SER1        8 GROUP   
     2 ALA2        1 GROUP   
     3 LYS4       66 GROUP   
     4 PHE5       17 GROUP   
     5 GLY6        3 GROUP   
     6 CUB7        5 GROUP   
@<TRIPOS>SET

