#    Name: 1kbo_340_4_INTS_M
#    Modification time : Tue Mar 25 09:47:48 2014

@<TRIPOS>MOLECULE
1kbo_340_4_INTS_M
   43     0     3     0     0
SMALL
NO_CHARGES


@<TRIPOS>ATOM
      1 CA        -31.2970  -33.3730  -22.8785 C.3       1 GLC5        0.0000 
      2 CA        -30.3280  -33.2200  -24.4610 C.3       3 GLL5        0.0000 
      3 CA        -32.2660  -33.5260  -21.2960 C.3       2 GLP5        0.0000 
      4 CA        -28.8860  -38.3750  -27.3765 C.3       1 GLC5        0.0000 
      5 CA        -29.2600  -36.7320  -27.4690 C.3       3 GLL5        0.0000 
      6 CA        -28.5120  -40.0180  -27.2840 C.3       2 GLP5        0.0000 
      7 CA        -27.9255  -36.2895  -26.1405 C.3       1 GLC5        0.0000 
      8 CA        -26.5910  -35.8470  -24.8120 C.3       2 GLP5        0.0000 
      9 CA        -31.1980  -36.2900  -27.0520 C.3       1 GLC5        0.0000 
     10 CA        -33.1360  -35.8480  -26.6350 C.3       2 GLP5        0.0000 
     11 CA        -26.9010  -33.5885  -29.8145 C.3       1 GLC5        0.0000 
     12 CA        -28.7390  -32.3380  -29.5680 C.3       3 GLL5        0.0000 
     13 CA        -25.0630  -34.8390  -30.0610 C.3       2 GLP5        0.0000 
     14 CA        -28.8920  -28.4765  -29.5070 C.3       1 GLC5        0.0000 
     15 CA        -27.2660  -29.4630  -28.7680 C.3       3 GLL5        0.0000 
     16 CA        -30.5180  -27.4900  -30.2460 C.3       2 GLP5        0.0000 
     17 CA        -28.2430  -37.4295  -29.8260 C.3       1 GLC5        0.0000 
     18 CA        -28.4900  -35.3380  -30.0430 C.3       3 GLL5        0.0000 
     19 CA        -27.9960  -39.5210  -29.6090 C.3       2 GLP5        0.0000 
     20 CA        -29.0350  -35.7650  -31.6445 C.3       1 GLC5        0.0000 
     21 CA        -29.5800  -36.1920  -33.2460 C.3       2 GLP5        0.0000 
     22 CA        -26.7765  -35.0885  -30.0520 C.3       1 GLC5        0.0000 
     23 CA        -31.5835  -32.1550  -22.1265 C.3       1 GLC5        0.0000 
     24 CA        -30.9010  -30.7840  -22.9570 C.3       3 GLL5        0.0000 
     25 CA        -32.2980  -31.4605  -24.3480 C.3       1 GLC5        0.0000 
     26 CA        -33.6950  -32.1370  -25.7390 C.3       2 GLP5        0.0000 
     27 CA        -31.9778  -32.3597  -25.2373 C.3       1 GLC5        0.0000 
     28 CA        -30.1930  -31.9450  -25.0100 C.3       3 GLL5        0.0000 
     29 CA        -26.3675  -29.8400  -30.9590 C.3       1 GLC5        0.0000 
     30 CA        -26.9200  -30.7350  -29.3740 C.3       3 GLL5        0.0000 
     31 CA        -26.5090  -28.8110  -32.3740 C.3       2 GLP5        0.0000 
     32 CA        -23.7250  -31.2320  -30.4682 C.3       1 GLC5        0.0000 
     33 CA        -25.5320  -31.0030  -29.7140 C.3       3 GLL5        0.0000 
     34 CA        -22.4210  -31.9600  -31.3540 C.3       2 GLP5        0.0000 
     35 CA        -25.6088  -29.0907  -30.7615 C.3       1 GLC5        0.0000 
     36 CA        -24.5260  -30.0050  -29.4510 C.3       3 GLL5        0.0000 
     37 CA        -23.2372  -29.5768  -27.8895 C.3       1 GLC5        0.0000 
     38 CA        -21.7660  -29.7830  -26.6300 C.3       2 GLP5        0.0000 
     39 CA        -26.6367  -28.8893  -30.5055 C.3       1 GLC5        0.0000 
     40 CA        -26.2630  -28.4720  -28.5060 C.3       3 GLL5        0.0000 
     41 CA        -31.1136  -33.5425  -27.7916 C.3       1 GLC5        0.0000 
     42 CA        -29.0390  -33.3210  -28.4970 C.3       3 GLL5        0.0000 
     43 CA        -32.9730  -33.2840  -27.8130 C.3       2 GLP5        0.0000 
@<TRIPOS>BOND
@<TRIPOS>SUBSTRUCTURE
     1 GLC5        1 GROUP        1 X    GLC  0     ROOT GLC X 6
     2 GLP5        3 GROUP        1 Y    GLP  0     ROOT GLP Y 13
     3 GLL5        2 GROUP        1 Z    GLL  0     ROOT GLL Z 20
@<TRIPOS>SET

