#    Name: 1kbo_340_4_ligand
#    Modification time : Tue Mar 25 09:47:48 2014

@<TRIPOS>MOLECULE
1kbo_340_4_ligand
   40    42     1     0     0
SMALL
NO_CHARGES


@<TRIPOS>ATOM
      1 C1        -30.3280  -33.2200  -24.4610 C.2       1 340702      0.0000 
      2 C2        -30.0230  -34.4320  -25.2980 C.2       1 340702      0.0000 
      3 C3        -29.6060  -34.2920  -26.6130 C.2       1 340702      0.0000 
      4 C4        -29.4590  -32.9870  -27.2030 C.2       1 340702      0.0000 
      5 C5        -29.7300  -31.8270  -26.4660 C.2       1 340702      0.0000 
      6 C6        -30.1930  -31.9450  -25.0100 C.2       1 340702      0.0000 
      7 N7        -29.2680  -35.2590  -27.5780 N.pl3     1 340702      0.0000 
      8 C8        -28.9130  -34.6040  -28.7680 C.2       1 340702      0.0000 
      9 C9        -29.0390  -33.3210  -28.4970 C.2       1 340702      0.0000 
     10 O10       -29.6210  -30.7190  -26.9330 O.2       1 340702      0.0000 
     11 O11       -30.1620  -35.5370  -24.7730 O.2       1 340702      0.0000 
     12 C12       -29.2600  -36.7320  -27.4690 C.3       1 340702      0.0000 
     13 C19       -28.7390  -32.3380  -29.5680 C.3       1 340702      0.0000 
     14 O20       -28.3070  -31.0320  -29.2800 O.3       1 340702      0.0000 
     15 C24       -26.9200  -30.7350  -29.3740 C.ar      1 340702      0.0000 
     16 C25       -25.5320  -31.0030  -29.7140 C.ar      1 340702      0.0000 
     17 C26       -24.5260  -30.0050  -29.4510 C.ar      1 340702      0.0000 
     18 C27       -24.8910  -28.7360  -28.8470 C.ar      1 340702      0.0000 
     19 C28       -26.2630  -28.4720  -28.5060 C.ar      1 340702      0.0000 
     20 C29       -27.2660  -29.4630  -28.7680 C.ar      1 340702      0.0000 
     21 C37       -28.4900  -35.3380  -30.0430 C.3       1 340702      0.0000 
     22 O44       -30.4570  -30.7460  -24.3230 O.3       1 340702      0.0000 
     23 C45       -30.9010  -30.7840  -22.9570 C.3       1 340702      0.0000 
     24 H         -30.6261  -33.3798  -23.5106 H         1 340702      0.0000 
     25 H         -29.6714  -32.2977  -30.2523 H         1 340702      0.0000 
     26 H         -27.9872  -32.8475  -30.2852 H         1 340702      0.0000 
     27 H         -25.2802  -31.8845  -30.1316 H         1 340702      0.0000 
     28 H         -23.5582  -30.1852  -29.6870 H         1 340702      0.0000 
     29 H         -24.1780  -28.0438  -28.6691 H         1 340702      0.0000 
     30 H         -26.5180  -27.5893  -28.0826 H         1 340702      0.0000 
     31 H         -28.2382  -29.2778  -28.5276 H         1 340702      0.0000 
     32 H         -28.9748  -37.1661  -28.3235 H         1 340702      0.0000 
     33 H         -28.6339  -37.0483  -26.7563 H         1 340702      0.0000 
     34 H         -30.1654  -37.0927  -27.2450 H         1 340702      0.0000 
     35 H         -28.2717  -34.7016  -30.7828 H         1 340702      0.0000 
     36 H         -27.6790  -35.9037  -29.8941 H         1 340702      0.0000 
     37 H         -29.2115  -35.9429  -30.3800 H         1 340702      0.0000 
     38 H         -30.2328  -31.2301  -22.3616 H         1 340702      0.0000 
     39 H         -31.0535  -29.8662  -22.5904 H         1 340702      0.0000 
     40 H         -31.7609  -31.2851  -22.8598 H         1 340702      0.0000 
@<TRIPOS>BOND
     1    2    1 1    
     2    6    1 2    
     3   24    1 1    
     4    3    2 1    
     5   11    2 2    
     6    4    3 2    
     7    7    3 1    
     8    5    4 1    
     9    9    4 1    
    10    6    5 1    
    11   10    5 2    
    12   22    6 1    
    13    8    7 1    
    14   12    7 1    
    15    9    8 2    
    16   21    8 1    
    17   13    9 1    
    18   32   12 1    
    19   33   12 1    
    20   34   12 1    
    21   14   13 1    
    22   25   13 1    
    23   26   13 1    
    24   15   14 1    
    25   16   15 ar   
    26   20   15 ar   
    27   17   16 ar   
    28   27   16 1    
    29   18   17 ar   
    30   28   17 1    
    31   19   18 ar   
    32   29   18 1    
    33   20   19 ar   
    34   30   19 1    
    35   31   20 1    
    36   35   21 1    
    37   36   21 1    
    38   37   21 1    
    39   23   22 1    
    40   38   23 1    
    41   39   23 1    
    42   40   23 1    
@<TRIPOS>SUBSTRUCTURE
     1 340702      1 GROUP   
@<TRIPOS>SET

