#    Name: 3aw9_GDU_2_INTS_M
#    Modification time : Mon Mar 24 18:16:26 2014

@<TRIPOS>MOLECULE
3aw9_GDU_2_INTS_M
   86     0    12     0     0
SMALL
NO_CHARGES


@<TRIPOS>ATOM
      1 CA        -68.6255   24.7880  -24.5250 C.3       4 GLC5        0.0000 
      2 CA        -69.8960   24.4450  -26.3210 C.3      12 GLL5        0.0000 
      3 CA        -67.3550   25.1310  -22.7290 C.3       8 GLP5        0.0000 
      4 CA        -69.7490   23.7145  -28.2415 C.3       4 GLC5        0.0000 
      5 CA        -69.6020   22.9840  -30.1620 C.3       8 GLP5        0.0000 
      6 CA        -70.5385   22.8155  -28.1990 C.3       4 GLC5        0.0000 
      7 CA        -71.0750   23.8690  -26.8200 C.3      12 GLL5        0.0000 
      8 CA        -70.0020   21.7620  -29.5780 C.3       8 GLP5        0.0000 
      9 CA        -73.0715   24.4930  -25.9055 C.3       4 GLC5        0.0000 
     10 CA        -73.3080   24.2850  -28.1290 C.3      12 GLL5        0.0000 
     11 CA        -72.8350   24.7010  -23.6820 C.3       8 GLP5        0.0000 
     12 CA        -74.4900   25.5045  -27.0135 C.3       4 GLC5        0.0000 
     13 CA        -75.6720   26.7240  -25.8980 C.3       8 GLP5        0.0000 
     14 N         -74.7525   24.7800  -30.9095 N.am      2 SEC2        0.0000 
     15 N         -73.7240   23.7380  -30.4530 N.am     10 SEL2        0.0000 
     16 N         -75.7810   25.8220  -31.3660 N.am      6 SEP2        0.0000 
     17 O         -73.7600   22.9755  -31.5915 O.2       1 ALC1        0.0000 
     18 O         -73.7240   23.7380  -30.4530 O.2       9 ALL1        0.0000 
     19 O         -73.7960   22.2130  -32.7300 O.2       5 ALP1        0.0000 
     20 CA        -75.9755   23.8205  -27.1405 C.3       4 GLC5        0.0000 
     21 CA        -74.6890   22.5140  -27.4310 C.3      12 GLL5        0.0000 
     22 CA        -77.2620   25.1270  -26.8500 C.3       8 GLP5        0.0000 
     23 N         -75.4305   20.2695  -29.2740 N.am      2 SEC2        0.0000 
     24 N         -75.0580   21.7620  -29.6650 N.am     10 SEL2        0.0000 
     25 N         -75.8030   18.7770  -28.8830 N.am      6 SEP2        0.0000 
     26 O         -74.1965   21.0885  -30.6020 O.2       1 ALC1        0.0000 
     27 O         -75.0580   21.7620  -29.6650 O.2       9 ALL1        0.0000 
     28 O         -73.3350   20.4150  -31.5390 O.2       5 ALP1        0.0000 
     29 O         -74.4270   21.9875  -31.1975 O.2       1 ALC1        0.0000 
     30 CA        -73.2990   22.4860  -24.7960 C.3       4 GLC5        0.0000 
     31 CA        -74.0780   21.7220  -26.3200 C.3      12 GLL5        0.0000 
     32 CA        -72.5200   23.2500  -23.2720 C.3       8 GLP5        0.0000 
     33 NZ        -75.4590   18.4655  -27.5855 N.4       3 LYC4        0.0000 
     34 NZ        -75.1150   18.1540  -26.2880 N.4      11 LYL4        0.0000 
     35 NZ        -75.8030   18.7770  -28.8830 N.4       7 LYP4        0.0000 
     36 N         -75.7440   17.5915  -25.0960 N.am      2 SEC2        0.0000 
     37 N         -75.1150   18.1540  -26.2880 N.am     10 SEL2        0.0000 
     38 N         -76.3730   17.0290  -23.9040 N.am      6 SEP2        0.0000 
     39 N         -75.4590   18.4655  -27.5855 N.am      2 SEC2        0.0000 
     40 N         -75.7585   20.4570  -23.8900 N.am      2 SEC2        0.0000 
     41 N         -74.8080   19.8640  -24.3750 N.am     10 SEL2        0.0000 
     42 N         -76.7090   21.0500  -23.4050 N.am      6 SEP2        0.0000 
     43 NZ        -73.9110   18.9580  -28.3535 N.4       3 LYC4        0.0000 
     44 NZ        -72.0190   19.1390  -27.8240 N.4      11 LYL4        0.0000 
     45 CA        -70.7965   16.1635  -28.2650 C.3       4 GLC5        0.0000 
     46 CA        -72.4510   15.7820  -27.3680 C.3      12 GLL5        0.0000 
     47 CA        -69.1420   16.5450  -29.1620 C.3       8 GLP5        0.0000 
     48 CA        -75.8435   14.8655  -26.3790 C.3       4 GLC5        0.0000 
     49 CA        -73.7090   14.9850  -26.8600 C.3      12 GLL5        0.0000 
     50 CA        -77.9780   14.7460  -25.8980 C.3       8 GLP5        0.0000 
     51 N         -75.5545   16.4400  -25.1530 N.am      2 SEC2        0.0000 
     52 N         -74.7360   15.8510  -26.4020 N.am     10 SEL2        0.0000 
     53 O         -74.5500   15.9820  -25.0460 O.2       1 ALC1        0.0000 
     54 O         -74.7360   15.8510  -26.4020 O.2       9 ALL1        0.0000 
     55 O         -74.3640   16.1130  -23.6900 O.2       5 ALP1        0.0000 
     56 N         -75.5275   12.4215  -26.7995 N.am      2 SEC2        0.0000 
     57 N         -74.3420   12.7300  -26.1380 N.am     10 SEL2        0.0000 
     58 N         -76.7130   12.1130  -27.4610 N.am      6 SEP2        0.0000 
     59 O         -73.6015   11.3440  -26.8300 O.2       1 ALC1        0.0000 
     60 O         -74.3420   12.7300  -26.1380 O.2       9 ALL1        0.0000 
     61 O         -72.8610    9.9580  -27.5220 O.2       5 ALP1        0.0000 
     62 N         -72.3905   10.9850  -26.7235 N.am      2 SEC2        0.0000 
     63 N         -71.9200   12.0120  -25.9250 N.am     10 SEL2        0.0000 
     64 N         -72.8610    9.9580  -27.5220 N.am      6 SEP2        0.0000 
     65 N         -70.6070   11.0225  -25.9610 N.am      2 SEC2        0.0000 
     66 N         -69.2940   10.0330  -25.9970 N.am      6 SEP2        0.0000 
     67 N         -67.7055   14.9455  -27.0985 N.am      2 SEC2        0.0000 
     68 N         -68.7020   14.7960  -25.8120 N.am     10 SEL2        0.0000 
     69 N         -66.7090   15.0950  -28.3850 N.am      6 SEP2        0.0000 
     70 O         -67.9180   13.9505  -25.5930 O.2       1 ALC1        0.0000 
     71 O         -68.7020   14.7960  -25.8120 O.2       9 ALL1        0.0000 
     72 O         -67.1340   13.1050  -25.3740 O.2       5 ALP1        0.0000 
     73 CA        -71.6602   24.4290  -25.1262 C.3       4 GLC5        0.0000 
     74 CA        -71.8180   22.3304  -29.1452 C.3       4 GLC5        0.0000 
     75 CA        -74.0240   22.0500  -28.7450 C.3      12 GLL5        0.0000 
     76 CA        -73.0325   13.9937  -28.6095 C.3       4 GLC5        0.0000 
     77 CA        -72.9850   12.6040  -30.1050 C.3       8 GLP5        0.0000 
     78 CA        -72.6623   12.4230  -24.0817 C.3       4 GLC5        0.0000 
     79 CA        -73.5210   13.8610  -25.7880 C.3      12 GLL5        0.0000 
     80 CA        -72.5280   11.2230  -22.5080 C.3       8 GLP5        0.0000 
     81 CA        -69.7295   15.2920  -27.6938 C.3       4 GLC5        0.0000 
     82 CA        -69.6010   13.7740  -26.2490 C.3      12 GLL5        0.0000 
     83 CA        -70.0769   12.3956  -27.1169 C.3       4 GLC5        0.0000 
     84 CA        -69.5770   10.9820  -28.1780 C.3       8 GLP5        0.0000 
     85 CA        -75.5421   23.7674  -29.1640 C.3       4 GLC5        0.0000 
     86 CA        -77.2840   24.5200  -29.9440 C.3       8 GLP5        0.0000 
@<TRIPOS>BOND
@<TRIPOS>SUBSTRUCTURE
     1 ALC1       17 GROUP        1 X    ALC  0     ROOT ALC X 1
     2 SEC2       14 GROUP        1 X    SEC  0     **** SEC X 2
     3 LYC4       33 GROUP        1 X    LYC  0     **** LYC X 4
     4 GLC5        1 GROUP        1 X    GLC  0     **** GLC X 6
     5 ALP1       19 GROUP        1 Y    ALP  0     ROOT ALP Y 8
     6 SEP2       16 GROUP        1 Y    SEP  0     **** SEP Y 9
     7 LYP4       35 GROUP        1 Y    LYP  0     **** LYP Y 11
     8 GLP5        3 GROUP        1 Y    GLP  0     **** GLP Y 13
     9 ALL1       18 GROUP        1 Z    ALL  0     ROOT ALL Z 15
    10 SEL2       15 GROUP        1 Z    SEL  0     **** SEL Z 16
    11 LYL4       34 GROUP        1 Z    LYL  0     **** LYL Z 18
    12 GLL5        2 GROUP        1 Z    GLL  0     **** GLL Z 20
@<TRIPOS>SET

