#    Name: 3aw9_GDU_2_ligand
#    Modification time : Mon Mar 24 18:16:27 2014

@<TRIPOS>MOLECULE
3aw9_GDU_2_ligand
   58    60     1     0     0
SMALL
NO_CHARGES


@<TRIPOS>ATOM
      1 N1        -72.0190   24.7110  -27.5170 N.am      1 GDU1801     0.0000 
      2 C2        -71.7500   26.0570  -27.6960 C.2       1 GDU1801     0.0000 
      3 N3        -70.5870   26.6150  -27.2110 N.am      1 GDU1801     0.0000 
      4 C4        -69.6630   25.8190  -26.5260 C.2       1 GDU1801     0.0000 
      5 C5        -69.8960   24.4450  -26.3210 C.2       1 GDU1801     0.0000 
      6 C6        -71.0750   23.8690  -26.8200 C.2       1 GDU1801     0.0000 
      7 O2        -72.5750   26.7420  -28.2880 O.2       1 GDU1801     0.0000 
      8 O4        -68.6510   26.3910  -26.1130 O.2       1 GDU1801     0.0000 
      9 C1D       -73.3080   24.2850  -28.1290 C.3       1 GDU1801     0.0000 
     10 C2D       -73.1800   23.2100  -29.2310 C.3       1 GDU1801     0.0000 
     11 O2D       -73.7240   23.7380  -30.4530 O.3       1 GDU1801     0.0000 
     12 C3D       -74.0240   22.0500  -28.7450 C.3       1 GDU1801     0.0000 
     13 C4D       -74.6890   22.5140  -27.4310 C.3       1 GDU1801     0.0000 
     14 O4D       -74.2690   23.8410  -27.1490 O.3       1 GDU1801     0.0000 
     15 O3D       -75.0580   21.7620  -29.6650 O.3       1 GDU1801     0.0000 
     16 C5D       -74.0780   21.7220  -26.3200 C.3       1 GDU1801     0.0000 
     17 O5D       -74.1110   20.3850  -26.7040 O.3       1 GDU1801     0.0000 
     18 PA        -74.3340   19.2510  -25.6660 P.3       1 GDU1801     0.0000 
     19 O1A       -75.1150   18.1540  -26.2880 O.co2     1 GDU1801     0.0000 
     20 O2A       -74.8080   19.8640  -24.3750 O.co2     1 GDU1801     0.0000 
     21 O3A       -72.7780   18.8270  -25.4320 O.3       1 GDU1801     0.0000 
     22 PB        -71.6780   18.4990  -26.5520 P.3       1 GDU1801     0.0000 
     23 O1B       -70.4430   18.9080  -25.8780 O.co2     1 GDU1801     0.0000 
     24 O2B       -72.0190   19.1390  -27.8240 O.co2     1 GDU1801     0.0000 
     25 O3B       -71.7320   16.8190  -26.5820 O.3       1 GDU1801     0.0000 
     26 C1'       -72.4510   15.7820  -27.3680 C.3       1 GDU1801     0.0000 
     27 C2'       -73.7090   14.9850  -26.8600 C.3       1 GDU1801     0.0000 
     28 C3'       -73.5210   13.8610  -25.7880 C.3       1 GDU1801     0.0000 
     29 C4'       -72.0720   13.3850  -25.5230 C.3       1 GDU1801     0.0000 
     30 C5'       -71.0330   14.3040  -26.2020 C.3       1 GDU1801     0.0000 
     31 C6'       -69.6010   13.7740  -26.2490 C.3       1 GDU1801     0.0000 
     32 O2'       -74.7360   15.8510  -26.4020 O.3       1 GDU1801     0.0000 
     33 O3'       -74.3420   12.7300  -26.1380 O.3       1 GDU1801     0.0000 
     34 O4'       -71.9200   12.0120  -25.9250 O.3       1 GDU1801     0.0000 
     35 O5'       -71.4910   14.7080  -27.5290 O.3       1 GDU1801     0.0000 
     36 O6'       -68.7020   14.7960  -25.8120 O.3       1 GDU1801     0.0000 
     37 H         -70.3899   27.6154  -27.3479 H         1 GDU1801     0.0000 
     38 H         -69.2172   23.8791  -25.8174 H         1 GDU1801     0.0000 
     39 H         -71.2760   22.8877  -26.7035 H         1 GDU1801     0.0000 
     40 H         -73.7495   25.1830  -28.6480 H         1 GDU1801     0.0000 
     41 H         -72.1787   22.9205  -29.3026 H         1 GDU1801     0.0000 
     42 H         -73.4077   21.2244  -28.5261 H         1 GDU1801     0.0000 
     43 H         -75.7032   22.3874  -27.4646 H         1 GDU1801     0.0000 
     44 H         -74.6541   21.9093  -25.4096 H         1 GDU1801     0.0000 
     45 H         -73.0591   22.0858  -26.1610 H         1 GDU1801     0.0000 
     46 H         -72.6764   16.1354  -28.3759 H         1 GDU1801     0.0000 
     47 H         -74.1186   14.4457  -27.7763 H         1 GDU1801     0.0000 
     48 H         -73.9039   14.2780  -24.8283 H         1 GDU1801     0.0000 
     49 H         -71.9121   13.4716  -24.4329 H         1 GDU1801     0.0000 
     50 H         -71.0004   15.2432  -25.5705 H         1 GDU1801     0.0000 
     51 H         -69.3927   13.4625  -27.2774 H         1 GDU1801     0.0000 
     52 H         -69.5506   12.8878  -25.6086 H         1 GDU1801     0.0000 
     53 H         -73.6079   23.0067  -31.1251 H         1 GDU1801     0.0000 
     54 H         -74.6057   21.2943  -30.4244 H         1 GDU1801     0.0000 
     55 H         -74.3538   16.3015  -25.5952 H         1 GDU1801     0.0000 
     56 H         -73.7072   12.0573  -26.5180 H         1 GDU1801     0.0000 
     57 H         -72.1109   11.4785  -25.1010 H         1 GDU1801     0.0000 
     58 H         -68.1300   14.3581  -25.1184 H         1 GDU1801     0.0000 
@<TRIPOS>BOND
     1    2    1 1    
     2    6    1 1    
     3    9    1 1    
     4    3    2 1    
     5    7    2 2    
     6    4    3 1    
     7   37    3 1    
     8    5    4 1    
     9    8    4 2    
    10    6    5 2    
    11   38    5 1    
    12   39    6 1    
    13   10    9 1    
    14   14    9 1    
    15   40    9 1    
    16   11   10 1    
    17   12   10 1    
    18   41   10 1    
    19   53   11 1    
    20   13   12 1    
    21   15   12 1    
    22   42   12 1    
    23   14   13 1    
    24   16   13 1    
    25   43   13 1    
    26   54   15 1    
    27   17   16 1    
    28   44   16 1    
    29   45   16 1    
    30   18   17 1    
    31   19   18 ar   
    32   20   18 ar   
    33   21   18 1    
    34   22   21 1    
    35   23   22 ar   
    36   24   22 ar   
    37   25   22 1    
    38   26   25 1    
    39   27   26 1    
    40   35   26 1    
    41   46   26 1    
    42   28   27 1    
    43   32   27 1    
    44   47   27 1    
    45   29   28 1    
    46   33   28 1    
    47   48   28 1    
    48   30   29 1    
    49   34   29 1    
    50   49   29 1    
    51   31   30 1    
    52   35   30 1    
    53   50   30 1    
    54   36   31 1    
    55   51   31 1    
    56   52   31 1    
    57   55   32 1    
    58   56   33 1    
    59   57   34 1    
    60   58   36 1    
@<TRIPOS>SUBSTRUCTURE
     1 GDU1801     1 GROUP   
@<TRIPOS>SET

