#    Name: 2fsv_NAP_2_INTS_M
#    Modification time : Tue Mar 25 13:06:26 2014

@<TRIPOS>MOLECULE
2fsv_NAP_2_INTS_M
  127     0    12     0     0
SMALL
NO_CHARGES


@<TRIPOS>ATOM
      1 N         -25.2700  -38.4650    7.8155 N.am      2 SEC2        0.0000 
      2 N         -25.7160  -37.2550    7.6790 N.am     10 SEL2        0.0000 
      3 N         -24.8240  -39.6750    7.9520 N.am      6 SEP2        0.0000 
      4 NZ        -23.2910  -35.5375    9.2915 N.4       3 LYC4        0.0000 
      5 NZ        -23.9440  -35.4260    8.0900 N.4      11 LYL4        0.0000 
      6 NZ        -21.8170  -36.6910   10.4750 N.4       7 LYP4        0.0000 
      7 N         -23.2910  -35.5375    9.2915 N.am      2 SEC2        0.0000 
      8 N         -23.9440  -35.4260    8.0900 N.am     10 SEL2        0.0000 
      9 N         -22.6380  -35.6490   10.4930 N.am      6 SEP2        0.0000 
     10 N         -22.8595  -36.4500    8.7465 N.am      2 SEC2        0.0000 
     11 N         -21.7750  -37.4740    9.4030 N.am      6 SEP2        0.0000 
     12 CA        -22.8635  -33.9315    6.8630 C.3       4 GLC5        0.0000 
     13 CA        -23.7710  -34.9050    5.3750 C.3      12 GLL5        0.0000 
     14 CA        -21.9560  -32.9580    8.3510 C.3       8 GLP5        0.0000 
     15 CA        -24.3790  -37.8225    4.4165 C.3       4 GLC5        0.0000 
     16 CA        -23.5340  -36.2230    3.2510 C.3      12 GLL5        0.0000 
     17 CA        -25.2240  -39.4220    5.5820 C.3       8 GLP5        0.0000 
     18 N         -26.1745  -37.2810    2.5635 N.am      2 SEC2        0.0000 
     19 N         -24.7010  -36.6800    2.5840 N.am     10 SEL2        0.0000 
     20 N         -27.6480  -37.8820    2.5430 N.am      6 SEP2        0.0000 
     21 N         -25.5495  -37.1165    1.1565 N.am      2 SEC2        0.0000 
     22 N         -26.3980  -37.5530   -0.2710 N.am      6 SEP2        0.0000 
     23 CA        -21.4075  -32.9720    3.2800 C.3       4 GLC5        0.0000 
     24 CA        -22.1160  -34.5510    2.2500 C.3      12 GLL5        0.0000 
     25 CA        -20.6990  -31.3930    4.3100 C.3       8 GLP5        0.0000 
     26 CA        -23.0815  -34.2285    0.4420 C.3       4 GLC5        0.0000 
     27 CA        -24.0470  -33.9060   -1.3660 C.3       8 GLP5        0.0000 
     28 CA        -17.6335  -32.6295    3.4300 C.3       4 GLC5        0.0000 
     29 CA        -18.7190  -33.1770    1.6390 C.3      12 GLL5        0.0000 
     30 CA        -16.5480  -32.0820    5.2210 C.3       8 GLP5        0.0000 
     31 CA        -17.2600  -30.2885    1.2235 C.3       4 GLC5        0.0000 
     32 CA        -18.0510  -32.1490    0.8070 C.3      12 GLL5        0.0000 
     33 CA        -16.4690  -28.4280    1.6400 C.3       8 GLP5        0.0000 
     34 O         -15.8010  -31.2655   -0.2445 O.2       1 ALC1        0.0000 
     35 O         -16.7150  -31.9710    0.9070 O.2       9 ALL1        0.0000 
     36 O         -14.8870  -30.5600   -1.3960 O.2       5 ALP1        0.0000 
     37 N         -18.7495  -30.1625   -0.8455 N.am      2 SEC2        0.0000 
     38 N         -18.7840  -31.3920   -0.0490 N.am     10 SEL2        0.0000 
     39 N         -18.7150  -28.9330   -1.6420 N.am      6 SEP2        0.0000 
     40 CA        -21.6540  -32.2035   -1.1565 C.3       4 GLC5        0.0000 
     41 CA        -20.1190  -31.5190   -0.1970 C.3      12 GLL5        0.0000 
     42 CA        -23.1890  -32.8880   -2.1160 C.3       8 GLP5        0.0000 
     43 CA        -19.2215  -32.8445   -1.3650 C.3       4 GLC5        0.0000 
     44 CA        -18.3240  -34.1700   -2.5330 C.3       8 GLP5        0.0000 
     45 CA        -18.8560  -30.9195   -1.7515 C.3       4 GLC5        0.0000 
     46 CA        -17.5930  -30.3200   -3.3060 C.3       8 GLP5        0.0000 
     47 CA        -20.0540  -29.7915    0.0400 C.3       4 GLC5        0.0000 
     48 CA        -19.9890  -28.0640    0.2770 C.3       8 GLP5        0.0000 
     49 N         -27.2295  -34.2600    6.1865 N.am      2 SEC2        0.0000 
     50 N         -26.3610  -34.8700    7.5080 N.am     10 SEL2        0.0000 
     51 N         -28.0980  -33.6500    4.8650 N.am      6 SEP2        0.0000 
     52 N         -27.8870  -35.4400    6.9785 N.am      2 SEC2        0.0000 
     53 N         -29.4130  -36.0100    6.4490 N.am      6 SEP2        0.0000 
     54 N         -27.8055  -33.1990    6.3345 N.am      2 SEC2        0.0000 
     55 N         -27.5130  -32.7480    7.8040 N.am     10 SEL2        0.0000 
     56 N         -24.1970  -31.9570    8.1655 N.am      2 SEC2        0.0000 
     57 N         -25.0790  -32.9110    8.6160 N.am     10 SEL2        0.0000 
     58 N         -23.3150  -31.0030    7.7150 N.am      6 SEP2        0.0000 
     59 N         -24.6715  -32.0095   10.0275 N.am      2 SEC2        0.0000 
     60 N         -24.2640  -31.1080   11.4390 N.am      6 SEP2        0.0000 
     61 CA        -26.3000  -32.5380   11.4040 C.3       4 GLC5        0.0000 
     62 CA        -26.0480  -34.6150   10.8460 C.3      12 GLL5        0.0000 
     63 CA        -26.5520  -30.4610   11.9620 C.3       8 GLP5        0.0000 
     64 CA        -27.8215  -33.3445   10.4275 C.3       4 GLC5        0.0000 
     65 CA        -29.5950  -32.0740   10.0090 C.3       8 GLP5        0.0000 
     66 CA        -25.4040  -37.7125   10.8075 C.3       4 GLC5        0.0000 
     67 CA        -26.2690  -36.0640   11.2470 C.3      12 GLL5        0.0000 
     68 CA        -24.5390  -39.3610   10.3680 C.3       8 GLP5        0.0000 
     69 O         -27.9805  -38.2425   10.2720 O.2       1 ALC1        0.0000 
     70 O         -28.1240  -37.5600   11.6010 O.2       9 ALL1        0.0000 
     71 O         -27.8370  -38.9250    8.9430 O.2       5 ALP1        0.0000 
     72 CA        -28.4250  -34.9585   14.2270 C.3       4 GLC5        0.0000 
     73 CA        -27.2350  -36.3110   13.4360 C.3      12 GLL5        0.0000 
     74 CA        -29.6150  -33.6060   15.0180 C.3       8 GLP5        0.0000 
     75 N         -29.0175  -36.9270   15.5205 N.am      2 SEC2        0.0000 
     76 N         -28.1150  -37.1310   14.1860 N.am     10 SEL2        0.0000 
     77 N         -29.9200  -36.7230   16.8550 N.am      6 SEP2        0.0000 
     78 O         -27.9165  -37.0550   15.7050 O.2       1 ALC1        0.0000 
     79 O         -28.1150  -37.1310   14.1860 O.2       9 ALL1        0.0000 
     80 O         -27.7180  -36.9790   17.2240 O.2       5 ALP1        0.0000 
     81 CA        -25.3915  -38.6515   13.0080 C.3       4 GLC5        0.0000 
     82 CA        -25.8130  -36.8630   13.4030 C.3      12 GLL5        0.0000 
     83 CA        -24.9700  -40.4400   12.6130 C.3       8 GLP5        0.0000 
     84 O         -25.8310  -32.5170   14.5405 O.2       1 ALC1        0.0000 
     85 O         -24.6990  -32.2780   15.6670 O.2       9 ALL1        0.0000 
     86 O         -26.9630  -32.7560   13.4140 O.2       5 ALP1        0.0000 
     87 O         -24.0685  -32.8700   14.1465 O.2       1 ALC1        0.0000 
     88 O         -23.4380  -33.4620   12.6260 O.2       5 ALP1        0.0000 
     89 O         -23.7830  -30.9990   16.1515 O.2       1 ALC1        0.0000 
     90 O         -22.8670  -29.7200   16.6360 O.2       5 ALP1        0.0000 
     91 O         -25.1415  -30.8685   16.0075 O.2       1 ALC1        0.0000 
     92 O         -25.5840  -29.4590   16.3480 O.2       5 ALP1        0.0000 
     93 CA        -22.6245  -36.7920   14.0425 C.3       4 GLC5        0.0000 
     94 CA        -24.2790  -37.3870   15.3320 C.3      12 GLL5        0.0000 
     95 CA        -20.9700  -36.1970   12.7530 C.3       8 GLP5        0.0000 
     96 N         -22.0830  -37.1675   -2.6800 N.am      2 SEC2        0.0000 
     97 N         -22.4110  -37.5520   -1.2350 N.am     10 SEL2        0.0000 
     98 N         -21.7550  -36.7830   -4.1250 N.am      6 SEP2        0.0000 
     99 N         -21.9840  -38.5710   -2.1680 N.am      2 SEC2        0.0000 
    100 N         -21.5570  -39.5900   -3.1010 N.am      6 SEP2        0.0000 
    101 N         -21.2110  -34.8845   -1.7210 N.am      2 SEC2        0.0000 
    102 N         -21.0910  -35.5300   -0.5340 N.am     10 SEL2        0.0000 
    103 N         -21.3310  -34.2390   -2.9080 N.am      6 SEP2        0.0000 
    104 N         -19.4745  -35.5870   -0.5660 N.am      2 SEC2        0.0000 
    105 N         -17.8580  -35.6440   -0.5980 N.am      6 SEP2        0.0000 
    106 NZ        -19.2375  -37.4645    0.8570 N.4       3 LYC4        0.0000 
    107 NZ        -20.6560  -37.8280    0.5350 N.4      11 LYL4        0.0000 
    108 NZ        -17.1710  -36.3350    0.3100 N.4       7 LYP4        0.0000 
    109 N         -19.2375  -37.4645    0.8570 N.am      2 SEC2        0.0000 
    110 N         -20.6560  -37.8280    0.5350 N.am     10 SEL2        0.0000 
    111 N         -17.8190  -37.1010    1.1790 N.am      6 SEP2        0.0000 
    112 CA        -25.7436  -35.7326    3.9396 C.3       4 GLC5        0.0000 
    113 CA        -23.7780  -34.8460    3.8600 C.3      12 GLL5        0.0000 
    114 CA        -27.8330  -35.9160    3.9450 C.3       8 GLP5        0.0000 
    115 CA        -24.2040  -36.3355    0.9882 C.3       4 GLC5        0.0000 
    116 CA        -25.4560  -36.5320   -0.7950 C.3       8 GLP5        0.0000 
    117 CA        -19.9825  -32.1787    2.8200 C.3       4 GLC5        0.0000 
    118 CA        -18.2675  -33.8658   -0.1400 C.3       4 GLC5        0.0000 
    119 CA        -20.1470  -33.2660    1.4370 C.3      12 GLL5        0.0000 
    120 CA        -17.2690  -34.7670   -1.6100 C.3       8 GLP5        0.0000 
    121 CA        -28.2222  -36.7317   10.0960 C.3       4 GLC5        0.0000 
    122 CA        -29.5160  -37.2820    8.5850 C.3       8 GLP5        0.0000 
    123 CA        -26.5720  -33.9560   15.6532 C.3       4 GLC5        0.0000 
    124 CA        -24.9680  -35.0000   14.9410 C.3      12 GLL5        0.0000 
    125 CA        -28.3970  -33.0860   15.7560 C.3       8 GLP5        0.0000 
    126 CA        -22.9850  -34.1925   14.9623 C.3       4 GLC5        0.0000 
    127 CA        -21.2230  -33.5590   14.3740 C.3       8 GLP5        0.0000 
@<TRIPOS>BOND
@<TRIPOS>SUBSTRUCTURE
     1 ALC1       34 GROUP        1 X    ALC  0     ROOT ALC X 1
     2 SEC2        1 GROUP        1 X    SEC  0     **** SEC X 2
     3 LYC4        4 GROUP        1 X    LYC  0     **** LYC X 4
     4 GLC5       12 GROUP        1 X    GLC  0     **** GLC X 6
     5 ALP1       36 GROUP        1 Y    ALP  0     ROOT ALP Y 8
     6 SEP2        3 GROUP        1 Y    SEP  0     **** SEP Y 9
     7 LYP4        6 GROUP        1 Y    LYP  0     **** LYP Y 11
     8 GLP5       14 GROUP        1 Y    GLP  0     **** GLP Y 13
     9 ALL1       35 GROUP        1 Z    ALL  0     ROOT ALL Z 15
    10 SEL2        2 GROUP        1 Z    SEL  0     **** SEL Z 16
    11 LYL4        5 GROUP        1 Z    LYL  0     **** LYL Z 18
    12 GLL5       13 GROUP        1 Z    GLL  0     **** GLL Z 20
@<TRIPOS>SET

