#    Name: 2fsv_NAP_2_ligand
#    Modification time : Tue Mar 25 13:06:27 2014

@<TRIPOS>MOLECULE
2fsv_NAP_2_ligand
   73    77     1     0     0
SMALL
NO_CHARGES


@<TRIPOS>ATOM
      1 PA        -25.1490  -35.9030    7.3560 P.3       1 NAP700      0.0000 
      2 O1A       -25.7160  -37.2550    7.6790 O.co2     1 NAP700      0.0000 
      3 O2A       -23.9440  -35.4260    8.0900 O.co2     1 NAP700      0.0000 
      4 O5B       -24.8540  -35.7320    5.7930 O.3       1 NAP700      0.0000 
      5 C5B       -23.7710  -34.9050    5.3750 C.3       1 NAP700      0.0000 
      6 C4B       -23.7780  -34.8460    3.8600 C.3       1 NAP700      0.0000 
      7 O4B       -22.7430  -33.9780    3.4000 O.3       1 NAP700      0.0000 
      8 C3B       -23.5340  -36.2230    3.2510 C.3       1 NAP700      0.0000 
      9 O3B       -24.7010  -36.6800    2.5840 O.3       1 NAP700      0.0000 
     10 C2B       -22.3700  -36.0550    2.2920 C.3       1 NAP700      0.0000 
     11 O2B       -22.7030  -36.5510    0.9960 O.3       1 NAP700      0.0000 
     12 C1B       -22.1160  -34.5510    2.2500 C.3       1 NAP700      0.0000 
     13 N9A       -20.6700  -34.2000    2.2090 N.pl3     1 NAP700      0.0000 
     14 C8A       -19.6180  -34.7160    2.9030 C.2       1 NAP700      0.0000 
     15 N7A       -18.4310  -34.1050    2.5680 N.2       1 NAP700      0.0000 
     16 C5A       -18.7190  -33.1770    1.6390 C.ar      1 NAP700      0.0000 
     17 C6A       -18.0510  -32.1490    0.8070 C.ar      1 NAP700      0.0000 
     18 N6A       -16.7150  -31.9710    0.9070 N.pl3     1 NAP700      0.0000 
     19 N1A       -18.7840  -31.3920   -0.0490 N.ar      1 NAP700      0.0000 
     20 C2A       -20.1190  -31.5190   -0.1970 C.ar      1 NAP700      0.0000 
     21 N3A       -20.8320  -32.4150    0.5020 N.ar      1 NAP700      0.0000 
     22 C4A       -20.1470  -33.2660    1.4370 C.ar      1 NAP700      0.0000 
     23 O3        -26.3610  -34.8700    7.5080 O.3       1 NAP700      0.0000 
     24 PN        -26.4160  -33.5600    8.4400 P.3       1 NAP700      0.0000 
     25 O1N       -27.5130  -32.7480    7.8040 O.co2     1 NAP700      0.0000 
     26 O2N       -25.0790  -32.9110    8.6160 O.co2     1 NAP700      0.0000 
     27 O5D       -26.9440  -34.2070    9.8170 O.3       1 NAP700      0.0000 
     28 C5D       -26.0480  -34.6150   10.8460 C.3       1 NAP700      0.0000 
     29 C4D       -26.2690  -36.0640   11.2470 C.3       1 NAP700      0.0000 
     30 O4D       -25.2350  -36.4280   12.1660 O.3       1 NAP700      0.0000 
     31 C3D       -27.5880  -36.2990   11.9670 C.3       1 NAP700      0.0000 
     32 O3D       -28.1240  -37.5600   11.6010 O.3       1 NAP700      0.0000 
     33 C2D       -27.2350  -36.3110   13.4360 C.3       1 NAP700      0.0000 
     34 O2D       -28.1150  -37.1310   14.1860 O.3       1 NAP700      0.0000 
     35 C1D       -25.8130  -36.8630   13.4030 C.3       1 NAP700      0.0000 
     36 N1N       -25.0330  -36.4080   14.5470 N.pl3     1 NAP700      0.0000 
     37 C2N       -24.9680  -35.0000   14.9410 C.ar      1 NAP700      0.0000 
     38 C3N       -24.5260  -34.6520   16.1600 C.ar      1 NAP700      0.0000 
     39 C7N       -24.4620  -33.2420   16.5540 C.2       1 NAP700      0.0000 
     40 O7N       -24.1870  -32.9670   17.7080 O.2       1 NAP700      0.0000 
     41 N7N       -24.6990  -32.2780   15.6670 N.am      1 NAP700      0.0000 
     42 C4N       -24.0870  -35.7070   17.1590 C.ar      1 NAP700      0.0000 
     43 C5N       -23.8360  -37.0680   16.5440 C.ar      1 NAP700      0.0000 
     44 C6N       -24.2790  -37.3870   15.3320 C.ar      1 NAP700      0.0000 
     45 P2B       -21.6120  -36.8860   -0.1420 P.3       1 NAP700      0.0000 
     46 O1X       -22.4110  -37.5520   -1.2350 O.co2     1 NAP700      0.0000 
     47 O2X       -21.0910  -35.5300   -0.5340 O.co2     1 NAP700      0.0000 
     48 O3X       -20.6560  -37.8280    0.5350 O.co2     1 NAP700      0.0000 
     49 H         -22.8076  -35.3053    5.6951 H         1 NAP700      0.0000 
     50 H         -23.8677  -33.8867    5.7552 H         1 NAP700      0.0000 
     51 H         -24.7440  -34.5005    3.5278 H         1 NAP700      0.0000 
     52 H         -23.2249  -36.8786    4.0427 H         1 NAP700      0.0000 
     53 H         -21.5140  -36.5247    2.7158 H         1 NAP700      0.0000 
     54 H         -22.6017  -34.1691    1.3455 H         1 NAP700      0.0000 
     55 H         -19.6895  -35.4372    3.5644 H         1 NAP700      0.0000 
     56 H         -16.3136  -31.2954    0.2885 H         1 NAP700      0.0000 
     57 H         -16.2465  -32.5307    1.5905 H         1 NAP700      0.0000 
     58 H         -20.6165  -30.8904   -0.8871 H         1 NAP700      0.0000 
     59 H         -26.1642  -33.9940   11.7541 H         1 NAP700      0.0000 
     60 H         -24.9931  -34.5116   10.5291 H         1 NAP700      0.0000 
     61 H         -26.2306  -36.6855   10.3760 H         1 NAP700      0.0000 
     62 H         -28.2336  -35.4889   11.7732 H         1 NAP700      0.0000 
     63 H         -27.1818  -35.3020   13.7698 H         1 NAP700      0.0000 
     64 H         -25.8949  -37.9472   13.4083 H         1 NAP700      0.0000 
     65 H         -25.2755  -34.3114   14.2402 H         1 NAP700      0.0000 
     66 H         -24.8729  -32.5766   14.7286 H         1 NAP700      0.0000 
     67 H         -24.6817  -31.3422   16.0190 H         1 NAP700      0.0000 
     68 H         -23.9809  -35.5299   18.0767 H         1 NAP700      0.0000 
     69 H         -23.2961  -37.7141   17.1474 H         1 NAP700      0.0000 
     70 H         -24.1237  -38.3037   14.8933 H         1 NAP700      0.0000 
     71 H         -24.4163  -36.8284    1.6369 H         1 NAP700      0.0000 
     72 H         -27.8735  -37.6785   10.6402 H         1 NAP700      0.0000 
     73 H         -27.7383  -37.1352   15.1123 H         1 NAP700      0.0000 
@<TRIPOS>BOND
     1    2    1 ar   
     2    3    1 ar   
     3    4    1 1    
     4   23    1 1    
     5    5    4 1    
     6    6    5 1    
     7   49    5 1    
     8   50    5 1    
     9    7    6 1    
    10    8    6 1    
    11   51    6 1    
    12   12    7 1    
    13    9    8 1    
    14   10    8 1    
    15   52    8 1    
    16   71    9 1    
    17   11   10 1    
    18   12   10 1    
    19   53   10 1    
    20   45   11 1    
    21   13   12 1    
    22   54   12 1    
    23   14   13 1    
    24   22   13 1    
    25   15   14 2    
    26   55   14 1    
    27   16   15 1    
    28   17   16 ar   
    29   22   16 ar   
    30   18   17 1    
    31   19   17 ar   
    32   56   18 1    
    33   57   18 1    
    34   20   19 ar   
    35   21   20 ar   
    36   58   20 1    
    37   22   21 ar   
    38   24   23 1    
    39   25   24 ar   
    40   26   24 ar   
    41   27   24 1    
    42   28   27 1    
    43   29   28 1    
    44   59   28 1    
    45   60   28 1    
    46   30   29 1    
    47   31   29 1    
    48   61   29 1    
    49   35   30 1    
    50   32   31 1    
    51   33   31 1    
    52   62   31 1    
    53   72   32 1    
    54   34   33 1    
    55   35   33 1    
    56   63   33 1    
    57   73   34 1    
    58   36   35 1    
    59   64   35 1    
    60   37   36 ar   
    61   44   36 ar   
    62   38   37 ar   
    63   65   37 1    
    64   39   38 1    
    65   42   38 ar   
    66   40   39 2    
    67   41   39 am   
    68   66   41 1    
    69   67   41 1    
    70   43   42 ar   
    71   68   42 1    
    72   44   43 ar   
    73   69   43 1    
    74   70   44 1    
    75   46   45 ar   
    76   47   45 ar   
    77   48   45 ar   
@<TRIPOS>SUBSTRUCTURE
     1 NAP700      1 GROUP   
@<TRIPOS>SET

