#    Name: 3jrs_A8S_1_INTS_M
#    Modification time : Tue Mar 25 17:50:28 2014

@<TRIPOS>MOLECULE
3jrs_A8S_1_INTS_M
   59     0     9     0     0
SMALL
NO_CHARGES


@<TRIPOS>ATOM
      1 CA         33.1470  -14.8815   24.3185 C.3       3 GLC5        0.0000 
      2 CA         31.7790  -15.4850   22.8930 C.3       9 GLL5        0.0000 
      3 CA         34.5150  -14.2780   25.7440 C.3       6 GLP5        0.0000 
      4 CA         32.6710  -19.6520   21.1450 C.3       3 GLC5        0.0000 
      5 CA         32.1870  -18.1010   20.0840 C.3       9 GLL5        0.0000 
      6 CA         33.1550  -21.2030   22.2060 C.3       6 GLP5        0.0000 
      7 CA         33.2185  -19.3480   22.4735 C.3       3 GLC5        0.0000 
      8 CA         33.2820  -17.4930   22.7410 C.3       9 GLL5        0.0000 
      9 CA         32.6580  -18.4320   24.4430 C.3       3 GLC5        0.0000 
     10 CA         32.0340  -19.3710   26.1450 C.3       6 GLP5        0.0000 
     11 CA         35.2675  -17.9550   23.6280 C.3       3 GLC5        0.0000 
     12 CA         37.2530  -18.4170   24.5150 C.3       6 GLP5        0.0000 
     13 CA         33.0380  -20.7690   16.0940 C.3       3 GLC5        0.0000 
     14 CA         33.6200  -19.1980   17.4220 C.3       9 GLL5        0.0000 
     15 CA         32.4560  -22.3400   14.7660 C.3       6 GLP5        0.0000 
     16 CA         35.2850  -19.9330   18.0985 C.3       3 GLC5        0.0000 
     17 CA         36.9500  -20.6680   18.7750 C.3       6 GLP5        0.0000 
     18 CA         32.4425  -21.4925   16.6235 C.3       3 GLC5        0.0000 
     19 CA         32.4290  -20.6450   18.4810 C.3       9 GLL5        0.0000 
     20 CA         31.5925  -22.3490   17.9290 C.3       3 GLC5        0.0000 
     21 CA         30.7560  -24.0530   17.3770 C.3       6 GLP5        0.0000 
     22 CA         32.7920  -20.9240   20.3435 C.3       3 GLC5        0.0000 
     23 CA         34.5175  -21.0090   19.1875 C.3       3 GLC5        0.0000 
     24 CA         36.6060  -21.3730   19.8940 C.3       6 GLP5        0.0000 
     25 NZ         28.8750  -13.4345   22.9275 N.4       2 LYC4        0.0000 
     26 NZ         29.9900  -14.0730   23.5170 N.4       8 LYL4        0.0000 
     27 NZ         27.7600  -12.7960   22.3380 N.4       5 LYP4        0.0000 
     28 N          28.8750  -13.4345   22.9275 N.am      1 SEC2        0.0000 
     29 N          29.9900  -14.0730   23.5170 N.am      7 SEL2        0.0000 
     30 N          27.7600  -12.7960   22.3380 N.am      4 SEP2        0.0000 
     31 NZ         28.8865  -13.7920   21.8775 N.4       2 LYC4        0.0000 
     32 NZ         30.0130  -14.7880   21.4170 N.4       8 LYL4        0.0000 
     33 N          28.8865  -13.7920   21.8775 N.am      1 SEC2        0.0000 
     34 N          30.0130  -14.7880   21.4170 N.am      7 SEL2        0.0000 
     35 CA         33.6805  -15.2345   16.1015 C.3       3 GLC5        0.0000 
     36 CA         33.4430  -16.6590   17.2400 C.3       9 GLL5        0.0000 
     37 CA         33.9180  -13.8100   14.9630 C.3       6 GLP5        0.0000 
     38 CA         34.1340  -15.6605   18.9240 C.3       3 GLC5        0.0000 
     39 CA         34.8250  -14.6620   20.6080 C.3       6 GLP5        0.0000 
     40 CA         30.3420  -19.2535   15.4280 C.3       3 GLC5        0.0000 
     41 CA         30.6320  -19.9130   16.9990 C.3       9 GLL5        0.0000 
     42 CA         30.0520  -18.5940   13.8570 C.3       6 GLP5        0.0000 
     43 CA         31.5440  -21.1265   15.8825 C.3       3 GLC5        0.0000 
     44 CA         28.5865  -20.0405   17.4800 C.3       3 GLC5        0.0000 
     45 CA         26.5410  -20.1680   17.9610 C.3       6 GLP5        0.0000 
     46 CA         30.6940  -21.9830   17.1880 C.3       3 GLC5        0.0000 
     47 CA         28.3455  -20.0740   18.6950 C.3       3 GLC5        0.0000 
     48 CA         30.1500  -19.9800   19.4290 C.3       9 GLL5        0.0000 
     49 CA         29.2020  -20.2275   20.9995 C.3       3 GLC5        0.0000 
     50 CA         28.2540  -20.4750   22.5700 C.3       6 GLP5        0.0000 
     51 CA         29.8815  -22.1075   18.8840 C.3       3 GLC5        0.0000 
     52 CA         29.6130  -24.2350   18.3390 C.3       6 GLP5        0.0000 
     53 CA         31.6525  -20.5915   20.8175 C.3       3 GLC5        0.0000 
     54 CA         31.5520  -17.2270   24.3670 C.3       3 GLC5        0.0000 
     55 CA         32.0330  -16.8110   22.2050 C.3       9 GLL5        0.0000 
     56 CA         31.1980  -18.3060   26.1850 C.3       6 GLP5        0.0000 
     57 CA         33.4160  -16.0913   20.4970 C.3       3 GLC5        0.0000 
     58 CA         31.8270  -16.9400   20.6880 C.3       9 GLL5        0.0000 
     59 CA         33.7095  -15.7413   21.6265 C.3       3 GLC5        0.0000 
@<TRIPOS>BOND
@<TRIPOS>SUBSTRUCTURE
     1 SEC2       28 GROUP        1 X    SEC  0     ROOT SEC X 2
     2 LYC4       25 GROUP        1 X    LYC  0     **** LYC X 4
     3 GLC5        1 GROUP        1 X    GLC  0     **** GLC X 6
     4 SEP2       30 GROUP        1 Y    SEP  0     ROOT SEP Y 9
     5 LYP4       27 GROUP        1 Y    LYP  0     **** LYP Y 11
     6 GLP5        3 GROUP        1 Y    GLP  0     **** GLP Y 13
     7 SEL2       29 GROUP        1 Z    SEL  0     ROOT SEL Z 16
     8 LYL4       26 GROUP        1 Z    LYL  0     **** LYL Z 18
     9 GLL5        2 GROUP        1 Z    GLL  0     **** GLL Z 20
@<TRIPOS>SET

