#    Name: 3jrs_A8S_1_ligand
#    Modification time : Tue Mar 25 17:50:28 2014

@<TRIPOS>MOLECULE
3jrs_A8S_1_ligand
   38    38     1     0     0
SMALL
NO_CHARGES


@<TRIPOS>ATOM
      1 C1         30.4800  -14.7790   22.5860 C.2       1 A8S1        0.0000 
      2 C2         31.7790  -15.4850   22.8930 C.2       1 A8S1        0.0000 
      3 C3         32.0330  -16.8110   22.2050 C.2       1 A8S1        0.0000 
      4 C4         31.8270  -16.9400   20.6880 C.2       1 A8S1        0.0000 
      5 C5         32.1870  -18.1010   20.0840 C.2       1 A8S1        0.0000 
      6 C6         33.2820  -17.4930   22.7410 C.3       1 A8S1        0.0000 
      7 C7         31.8590  -18.2470   18.5940 C.3       1 A8S1        0.0000 
      8 O7         30.8070  -17.3270   18.2230 O.3       1 A8S1        0.0000 
      9 C8         33.0880  -18.0450   17.7010 C.2       1 A8S1        0.0000 
     10 C9         33.6200  -19.1980   17.4220 C.2       1 A8S1        0.0000 
     11 C10        33.5290  -20.4250   17.6660 C.2       1 A8S1        0.0000 
     12 O10        34.3290  -21.4230   17.2910 O.2       1 A8S1        0.0000 
     13 C11        32.4290  -20.6450   18.4810 C.3       1 A8S1        0.0000 
     14 O11        29.9900  -14.0730   23.5170 O.co2     1 A8S1        0.0000 
     15 C12        31.2650  -19.6720   18.3920 C.3       1 A8S1        0.0000 
     16 O12        30.0130  -14.7880   21.4170 O.co2     1 A8S1        0.0000 
     17 C13        33.4430  -16.6590   17.2400 C.3       1 A8S1        0.0000 
     18 C14        30.6320  -19.9130   16.9990 C.3       1 A8S1        0.0000 
     19 C15        30.1500  -19.9800   19.4290 C.3       1 A8S1        0.0000 
     20 H          32.4265  -15.1069   23.5057 H         1 A8S1        0.0000 
     21 H          31.4316  -16.1423   20.2302 H         1 A8S1        0.0000 
     22 H          32.6447  -18.8697   20.5153 H         1 A8S1        0.0000 
     23 H          34.5371  -19.0057   16.6406 H         1 A8S1        0.0000 
     24 H          32.7273  -20.6841   19.5791 H         1 A8S1        0.0000 
     25 H          31.9898  -21.6821   18.3142 H         1 A8S1        0.0000 
     26 H          34.0990  -16.9330   22.6035 H         1 A8S1        0.0000 
     27 H          33.2135  -17.6757   23.7218 H         1 A8S1        0.0000 
     28 H          33.4486  -18.3700   22.2904 H         1 A8S1        0.0000 
     29 H          33.6208  -16.0458   18.0096 H         1 A8S1        0.0000 
     30 H          34.2631  -16.6566   16.6678 H         1 A8S1        0.0000 
     31 H          32.7082  -16.2473   16.7009 H         1 A8S1        0.0000 
     32 H          31.2990  -19.7974   16.2629 H         1 A8S1        0.0000 
     33 H          30.2601  -20.8375   16.9150 H         1 A8S1        0.0000 
     34 H          29.8816  -19.2775   16.8171 H         1 A8S1        0.0000 
     35 H          30.4931  -19.9364   20.3673 H         1 A8S1        0.0000 
     36 H          29.3923  -19.3307   19.3635 H         1 A8S1        0.0000 
     37 H          29.7649  -20.8938   19.2999 H         1 A8S1        0.0000 
     38 H          30.1512  -17.3663   18.9769 H         1 A8S1        0.0000 
@<TRIPOS>BOND
     1    2    1 1    
     2   14    1 ar   
     3   16    1 ar   
     4    3    2 2    
     5   20    2 1    
     6    4    3 1    
     7    6    3 1    
     8    5    4 2    
     9   21    4 1    
    10    7    5 1    
    11   22    5 1    
    12   26    6 1    
    13   27    6 1    
    14   28    6 1    
    15    8    7 1    
    16    9    7 1    
    17   15    7 1    
    18   38    8 1    
    19   10    9 2    
    20   17    9 1    
    21   11   10 1    
    22   23   10 1    
    23   12   11 2    
    24   13   11 1    
    25   15   13 1    
    26   24   13 1    
    27   25   13 1    
    28   18   15 1    
    29   19   15 1    
    30   29   17 1    
    31   30   17 1    
    32   31   17 1    
    33   32   18 1    
    34   33   18 1    
    35   34   18 1    
    36   35   19 1    
    37   36   19 1    
    38   37   19 1    
@<TRIPOS>SUBSTRUCTURE
     1 A8S1        1 GROUP   
@<TRIPOS>SET

