#    Name: 1UVT_1_CAVITY_N1_ALL.mol2
#    Modification time : Tue Mar 11 14:15:20 2014

@<TRIPOS>MOLECULE
1UVT_1_CAVITY_N1_ALL.mol2
   94     0     7     0     0
SMALL
NO_CHARGES


@<TRIPOS>ATOM
      1 N          51.4675   56.8198   44.9154 N.2       2 ALA2        0.0000 
      2 N          52.2052   55.2159   43.7393 N.2       2 ALA2        0.0000 
      3 DU         53.5205   54.8897   43.0961 H         7 CUB7        0.0000 
      4 O          50.3125   54.2643   43.8497 O.2       2 ALA2        0.0000 
      5 O          51.6278   53.9381   43.2065 O.2       2 ALA2        0.0000 
      6 DU         54.2583   53.2857   41.9201 H         7 CUB7        0.0000 
      7 CA         51.0503   52.6604   42.6736 C.3       6 GLY6        0.0000 
      8 DU         52.3655   52.3342   42.0304 H         7 CUB7        0.0000 
      9 DU         53.6808   52.0080   41.3872 H         7 CUB7        0.0000 
     10 N          54.9961   51.6818   40.7440 N.2       2 ALA2        0.0000 
     11 NZ         51.7881   51.0565   41.4976 N.2       4 LYS4        0.0000 
     12 O          53.1033   50.7303   40.8544 O.2       2 ALA2        0.0000 
     13 CZ         52.9282   58.4862   43.5591 C.ar      5 PHE5        0.0000 
     14 N          51.0354   57.5346   43.6694 N.2       2 ALA2        0.0000 
     15 CZ         52.3507   57.2084   43.0262 C.ar      5 PHE5        0.0000 
     16 CZ         53.6660   56.8822   42.3830 C.ar      5 PHE5        0.0000 
     17 CZ         54.9812   56.5560   41.7398 C.ar      5 PHE5        0.0000 
     18 N          51.7732   55.9307   42.4934 N.2       2 ALA2        0.0000 
     19 DU         53.0885   55.6045   41.8502 H         7 CUB7        0.0000 
     20 CA         54.4037   55.2783   41.2070 C.3       6 GLY6        0.0000 
     21 N          49.8805   54.9792   42.6037 N.2       2 ALA2        0.0000 
     22 N          51.1958   54.6530   41.9605 N.2       2 ALA2        0.0000 
     23 DU         52.5110   54.3268   41.3173 H         7 CUB7        0.0000 
     24 CA         53.8263   54.0006   40.6741 C.3       6 GLY6        0.0000 
     25 CA         50.6183   53.3752   41.4277 C.3       6 GLY6        0.0000 
     26 CA         51.9335   53.0490   40.7845 C.3       6 GLY6        0.0000 
     27 CA         53.2488   52.7228   40.1413 C.3       6 GLY6        0.0000 
     28 CA         51.3561   51.7713   40.2516 C.3       6 GLY6        0.0000 
     29 O          52.6713   51.4451   39.6084 O.2       2 ALA2        0.0000 
     30 OD1        58.3346   59.1739   40.2732 O.3       3 ASP3        0.0000 
     31 CA         59.6499   58.8477   39.6300 C.3       6 GLY6        0.0000 
     32 CA         51.1809   59.5272   42.9563 C.3       6 GLY6        0.0000 
     33 N          52.4962   59.2010   42.3131 N.2       2 ALA2        0.0000 
     34 CZ         53.8114   58.8748   41.6699 C.ar      5 PHE5        0.0000 
     35 CZ         55.1267   58.5486   41.0267 C.ar      5 PHE5        0.0000 
     36 CZ         56.4419   58.2224   40.3835 C.ar      5 PHE5        0.0000 
     37 OD1        57.7572   57.8962   39.7403 O.3       3 ASP3        0.0000 
     38 O          50.6034   58.2495   42.4235 O.2       2 ALA2        0.0000 
     39 DU         51.9187   57.9233   41.7803 H         7 CUB7        0.0000 
     40 CZ         53.2339   57.5971   41.1371 C.ar      5 PHE5        0.0000 
     41 CA         54.5492   57.2709   40.4939 C.3       6 GLY6        0.0000 
     42 CA         55.8644   56.9447   39.8507 C.3       6 GLY6        0.0000 
     43 N          50.0260   56.9717   41.8906 N.2       2 ALA2        0.0000 
     44 DU         51.3412   56.6455   41.2474 H         7 CUB7        0.0000 
     45 CA         52.6565   56.3193   40.6042 C.3       6 GLY6        0.0000 
     46 CA         53.9717   55.9931   39.9610 C.3       6 GLY6        0.0000 
     47 N          48.1332   56.0202   42.0010 N.2       2 ALA2        0.0000 
     48 N          49.4485   55.6940   41.3578 N.2       2 ALA2        0.0000 
     49 O          50.7637   55.3678   40.7146 O.2       2 ALA2        0.0000 
     50 O          52.0790   55.0416   40.0714 O.2       2 ALA2        0.0000 
     51 CA         48.8710   54.4163   40.8249 C.3       6 GLY6        0.0000 
     52 O          51.5015   53.7639   39.5385 O.2       2 ALA2        0.0000 
     53 OD1        55.2721   60.5412   40.3137 O.3       3 ASP3        0.0000 
     54 OD1        59.2179   59.5626   38.3841 O.3       3 ASP3        0.0000 
     55 OG         53.3794   59.5896   40.4240 O.2       1 SER1        0.0000 
     56 OG         54.6946   59.2634   39.7808 O.2       1 SER1        0.0000 
     57 OD1        56.0099   58.9373   39.1376 O.3       3 ASP3        0.0000 
     58 OD1        57.3251   58.6111   38.4944 O.3       3 ASP3        0.0000 
     59 NZ         58.6404   58.2849   37.8512 N.2       4 LYS4        0.0000 
     60 N          50.1714   58.9643   41.1776 N.2       2 ALA2        0.0000 
     61 OG         51.4867   58.6381   40.5344 O.2       1 SER1        0.0000 
     62 OG         52.8019   58.3119   39.8912 O.2       1 SER1        0.0000 
     63 CA         54.1172   57.9857   39.2480 C.3       6 GLY6        0.0000 
     64 CA         55.4324   57.6595   38.6048 C.3       6 GLY6        0.0000 
     65 NZ         56.7477   57.3333   37.9616 N.2       4 LYS4        0.0000 
     66 NZ         58.0629   57.0071   37.3184 N.2       4 LYS4        0.0000 
     67 O          48.2787   58.0128   41.2879 O.2       2 ALA2        0.0000 
     68 N          49.5939   57.6866   40.6447 N.2       2 ALA2        0.0000 
     69 OG         50.9092   57.3604   40.0015 O.2       1 SER1        0.0000 
     70 CA         52.2244   57.0342   39.3583 C.3       6 GLY6        0.0000 
     71 CA         46.3860   57.0612   41.3983 C.3       6 GLY6        0.0000 
     72 CA         47.7012   56.7350   40.7551 C.3       6 GLY6        0.0000 
     73 CA         49.0165   56.4088   40.1119 C.3       6 GLY6        0.0000 
     74 O          50.3317   56.0827   39.4687 O.2       2 ALA2        0.0000 
     75 N          47.1237   55.4573   40.2222 N.2       2 ALA2        0.0000 
     76 CA         48.4390   55.1311   39.5790 C.3       6 GLY6        0.0000 
     77 OG         54.2626   59.9783   38.5349 O.2       1 SER1        0.0000 
     78 N          55.5779   59.6521   37.8917 N.2       2 ALA2        0.0000 
     79 N          56.8931   59.3259   37.2485 N.2       2 ALA2        0.0000 
     80 N          58.2084   58.9997   36.6053 N.2       2 ALA2        0.0000 
     81 O          53.6852   58.7006   38.0020 O.2       2 ALA2        0.0000 
     82 O          55.0004   58.3744   37.3588 O.2       2 ALA2        0.0000 
     83 CA         56.3157   58.0482   36.7156 C.3       6 GLY6        0.0000 
     84 NZ         57.6309   57.7220   36.0724 N.2       4 LYS4        0.0000 
     85 N          46.5314   59.0538   40.6852 N.2       2 ALA2        0.0000 
     86 N          47.8467   58.7276   40.0420 N.2       2 ALA2        0.0000 
     87 OG         49.1619   58.4014   39.3988 O.2       1 SER1        0.0000 
     88 N          50.4772   58.0752   38.7556 N.2       2 ALA2        0.0000 
     89 NZ         57.0534   56.4442   35.5396 N.2       4 LYS4        0.0000 
     90 CA         44.6387   58.1023   40.7955 C.3       6 GLY6        0.0000 
     91 CA         45.9540   57.7761   40.1523 C.3       6 GLY6        0.0000 
     92 CA         47.2692   57.4499   39.5091 C.3       6 GLY6        0.0000 
     93 N          48.5845   57.1237   38.8659 N.2       2 ALA2        0.0000 
     94 N          55.8836   58.7630   35.4697 N.2       2 ALA2        0.0000 
@<TRIPOS>BOND
@<TRIPOS>SUBSTRUCTURE
     1 SER1       55 GROUP   
     2 ALA2        1 GROUP   
     3 ASP3       30 GROUP   
     4 LYS4       11 GROUP   
     5 PHE5       13 GROUP   
     6 GLY6        7 GROUP   
     7 CUB7        3 GROUP   
@<TRIPOS>SET

