#    Name: 1uvt_I48_1_INTS_M
#    Modification time : Tue Mar 25 07:10:04 2014

@<TRIPOS>MOLECULE
1uvt_I48_1_INTS_M
   57     0     6     0     0
SMALL
NO_CHARGES


@<TRIPOS>ATOM
      1 O          44.3020   55.8230   39.8405 O.2       1 ALC1        0.0000 
      2 O          45.6890   56.1380   40.4510 O.2       5 ALL1        0.0000 
      3 O          42.9150   55.5080   39.2300 O.2       3 ALP1        0.0000 
      4 O          44.8465   55.0090   40.3190 O.2       1 ALC1        0.0000 
      5 O          44.0040   53.8800   40.1870 O.2       3 ALP1        0.0000 
      6 CA         46.6660   59.7395   38.8605 C.3       2 GLC5        0.0000 
      7 CA         46.6050   58.4010   40.3980 C.3       6 GLL5        0.0000 
      8 CA         46.7270   61.0780   37.3230 C.3       4 GLP5        0.0000 
      9 CA         43.9270   57.6680   41.3430 C.3       2 GLC5        0.0000 
     10 CA         45.5020   57.5480   40.4580 C.3       6 GLL5        0.0000 
     11 CA         42.3520   57.7880   42.2280 C.3       4 GLP5        0.0000 
     12 O          48.6055   60.0935   40.7310 O.2       1 ALC1        0.0000 
     13 O          49.0120   58.7930   40.4820 O.2       5 ALL1        0.0000 
     14 O          48.1990   61.3940   40.9800 O.2       3 ALP1        0.0000 
     15 CA         49.6595   59.8995   42.5420 C.3       2 GLC5        0.0000 
     16 CA         51.3090   58.9710   41.3910 C.3       6 GLL5        0.0000 
     17 CA         48.0100   60.8280   43.6930 C.3       4 GLP5        0.0000 
     18 CA         50.5265   60.7565   44.4015 C.3       2 GLC5        0.0000 
     19 CA         52.5570   60.3530   43.6960 C.3       6 GLL5        0.0000 
     20 CA         48.4960   61.1600   45.1070 C.3       4 GLP5        0.0000 
     21 CA         55.8330   62.3280   45.4235 C.3       2 GLC5        0.0000 
     22 CA         54.1780   61.9570   44.7040 C.3       6 GLL5        0.0000 
     23 CA         57.4880   62.6990   46.1430 C.3       4 GLP5        0.0000 
     24 CA         55.2790   60.6515   43.9855 C.3       2 GLC5        0.0000 
     25 CA         56.3800   59.3460   43.2670 C.3       4 GLP5        0.0000 
     26 CA         52.4865   62.8750   45.2740 C.3       2 GLC5        0.0000 
     27 CA         50.7950   63.7930   45.8440 C.3       4 GLP5        0.0000 
     28 CA         48.6635   59.9895   50.7590 C.3       2 GLC5        0.0000 
     29 CA         49.4410   60.5040   48.9530 C.3       6 GLL5        0.0000 
     30 CA         47.8860   59.4750   52.5650 C.3       4 GLP5        0.0000 
     31 CA         47.8485   61.9275   50.5360 C.3       2 GLC5        0.0000 
     32 CA         49.3270   61.8920   49.1570 C.3       6 GLL5        0.0000 
     33 CA         46.3700   61.9630   51.9150 C.3       4 GLP5        0.0000 
     34 CA         48.1283   55.4320   38.7698 C.3       2 GLC5        0.0000 
     35 CA         48.0910   56.4960   40.4990 C.3       6 GLL5        0.0000 
     36 CA         48.7090   54.8100   37.0300 C.3       4 GLP5        0.0000 
     37 CA         47.1137   56.6830   42.3438 C.3       2 GLC5        0.0000 
     38 CA         46.6800   57.3120   44.1780 C.3       4 GLP5        0.0000 
     39 CA         48.3092   54.1780   39.8972 C.3       2 GLC5        0.0000 
     40 CA         49.0710   52.3020   39.2850 C.3       4 GLP5        0.0000 
     41 CA         47.6312   59.4865   42.0682 C.3       2 GLC5        0.0000 
     42 CA         47.9000   57.8890   40.4890 C.3       6 GLL5        0.0000 
     43 CA         45.7302   57.8023   38.4390 C.3       2 GLC5        0.0000 
     44 CA         45.4070   57.6300   36.4500 C.3       4 GLP5        0.0000 
     45 CA         46.5286   57.5793   42.3144 C.3       2 GLC5        0.0000 
     46 CA         50.2170   60.0539   45.1819 C.3       2 GLC5        0.0000 
     47 CA         51.6860   59.2410   43.7660 C.3       6 GLL5        0.0000 
     48 CA         51.8068   62.1166   45.2122 C.3       2 GLC5        0.0000 
     49 CA         53.4384   62.1833   42.9349 C.3       2 GLC5        0.0000 
     50 CA         53.1420   60.8710   44.8590 C.3       6 GLL5        0.0000 
     51 CA         53.3630   63.0820   41.3790 C.3       4 GLP5        0.0000 
     52 CA         48.9400   61.1790   47.0810 C.3       2 GLC5        0.0000 
     53 CA         49.2283   63.6868   50.4663 C.3       2 GLC5        0.0000 
     54 CA         48.5980   65.1330   51.4700 C.3       4 GLP5        0.0000 
     55 CA         50.8591   63.4076   48.3589 C.3       2 GLC5        0.0000 
     56 CA         50.3900   62.5890   49.7680 C.3       6 GLL5        0.0000 
     57 CA         50.9680   64.7200   47.0220 C.3       4 GLP5        0.0000 
@<TRIPOS>BOND
@<TRIPOS>SUBSTRUCTURE
     1 ALC1        1 GROUP        1 X    ALC  0     ROOT ALC X 1
     2 GLC5        6 GROUP        1 X    GLC  0     **** GLC X 6
     3 ALP1        3 GROUP        1 Y    ALP  0     ROOT ALP Y 8
     4 GLP5        8 GROUP        1 Y    GLP  0     **** GLP Y 13
     5 ALL1        2 GROUP        1 Z    ALL  0     ROOT ALL Z 15
     6 GLL5        7 GROUP        1 Z    GLL  0     **** GLL Z 20
@<TRIPOS>SET

