#    Name: 1uvt_I48_1_ligand
#    Modification time : Tue Mar 25 07:10:04 2014

@<TRIPOS>MOLECULE
1uvt_I48_1_ligand
   49    51     1     0     0
SMALL
NO_CHARGES


@<TRIPOS>ATOM
      1 N1         45.6890   56.1380   40.4510 N.pl3     1 I481        0.0000 
      2 C2         47.0040   55.6120   40.5200 C.ar      1 I481        0.0000 
      3 C3         48.0910   56.4960   40.4990 C.ar      1 I481        0.0000 
      4 C4         47.9000   57.8890   40.4890 C.ar      1 I481        0.0000 
      5 C5         46.6050   58.4010   40.3980 C.ar      1 I481        0.0000 
      6 C6         45.5020   57.5480   40.4580 C.ar      1 I481        0.0000 
      7 NA1        49.0120   58.7930   40.4820 N.pl3     1 I481        0.0000 
      8 CA2        50.3570   58.2420   40.4260 C.3       1 I481        0.0000 
      9 CA3        51.3090   58.9710   41.3910 C.3       1 I481        0.0000 
     10 OA4        50.7670   59.0030   42.7200 O.3       1 I481        0.0000 
     11 C21        51.6860   59.2410   43.7660 C.ar      1 I481        0.0000 
     12 C22        51.6380   58.5000   44.9710 C.ar      1 I481        0.0000 
     13 C23        52.2140   59.0250   46.1450 C.ar      1 I481        0.0000 
     14 C24        53.0180   60.1840   46.0710 C.ar      1 I481        0.0000 
     15 C25        53.1420   60.8710   44.8590 C.ar      1 I481        0.0000 
     16 C26        52.5570   60.3530   43.6960 C.ar      1 I481        0.0000 
     17 C27        54.1780   61.9570   44.7040 C.3       1 I481        0.0000 
     18 NB1        52.2660   58.2310   47.3180 N.pl3     1 I481        0.0000 
     19 SB2        50.9340   58.3490   48.2640 S.o2      1 I481        0.0000 
     20 OBA        51.1400   57.4350   49.3600 O.2       1 I481        0.0000 
     21 OBB        49.7050   58.0150   47.5850 O.2       1 I481        0.0000 
     22 C31        50.7250   59.9530   48.9100 C.ar      1 I481        0.0000 
     23 C32        49.4410   60.5040   48.9530 C.ar      1 I481        0.0000 
     24 C33        49.3270   61.8920   49.1570 C.ar      1 I481        0.0000 
     25 C34        50.3900   62.5890   49.7680 C.ar      1 I481        0.0000 
     26 C35        51.6420   61.9500   49.9290 C.ar      1 I481        0.0000 
     27 C36        51.7980   60.5990   49.5380 C.ar      1 I481        0.0000 
     28 H          44.8895   55.5175   40.3972 H         1 I481        0.0000 
     29 H          47.1477   54.6094   40.5835 H         1 I481        0.0000 
     30 H          49.0529   56.1188   40.4907 H         1 I481        0.0000 
     31 H          46.4623   59.4144   40.2859 H         1 I481        0.0000 
     32 H          44.5526   57.9259   40.5074 H         1 I481        0.0000 
     33 H          48.8763   59.7837   40.5147 H         1 I481        0.0000 
     34 H          50.7775   58.3263   39.4136 H         1 I481        0.0000 
     35 H          50.3596   57.1759   40.6949 H         1 I481        0.0000 
     36 H          51.4697   59.9834   40.9944 H         1 I481        0.0000 
     37 H          52.2751   58.4479   41.3599 H         1 I481        0.0000 
     38 H          51.1851   57.5848   44.9867 H         1 I481        0.0000 
     39 H          53.5065   60.5155   46.9062 H         1 I481        0.0000 
     40 H          52.7582   60.7791   42.7849 H         1 I481        0.0000 
     41 H          52.9489   57.6561   47.6215 H         1 I481        0.0000 
     42 H          48.6191   59.9288   48.8418 H         1 I481        0.0000 
     43 H          48.4877   62.3881   48.8674 H         1 I481        0.0000 
     44 H          50.2594   63.5450   50.0915 H         1 I481        0.0000 
     45 H          52.4293   62.4611   50.3254 H         1 I481        0.0000 
     46 H          52.6704   60.1143   49.7115 H         1 I481        0.0000 
     47 H          55.1046   61.6096   44.8480 H         1 I481        0.0000 
     48 H          54.1560   62.3636   43.7907 H         1 I481        0.0000 
     49 H          54.0384   62.6997   45.3589 H         1 I481        0.0000 
@<TRIPOS>BOND
     1    2    1 ar   
     2    6    1 ar   
     3   28    1 1    
     4    3    2 ar   
     5   29    2 1    
     6    4    3 ar   
     7   30    3 1    
     8    5    4 ar   
     9    7    4 1    
    10    6    5 ar   
    11   31    5 1    
    12   32    6 1    
    13    8    7 1    
    14   33    7 1    
    15    9    8 1    
    16   34    8 1    
    17   35    8 1    
    18   10    9 1    
    19   36    9 1    
    20   37    9 1    
    21   11   10 1    
    22   12   11 ar   
    23   16   11 ar   
    24   13   12 ar   
    25   38   12 1    
    26   14   13 ar   
    27   18   13 1    
    28   15   14 ar   
    29   39   14 1    
    30   16   15 ar   
    31   17   15 1    
    32   40   16 1    
    33   47   17 1    
    34   48   17 1    
    35   49   17 1    
    36   19   18 1    
    37   41   18 1    
    38   20   19 2    
    39   21   19 2    
    40   22   19 1    
    41   23   22 ar   
    42   27   22 ar   
    43   24   23 ar   
    44   42   23 1    
    45   25   24 ar   
    46   43   24 1    
    47   26   25 ar   
    48   44   25 1    
    49   27   26 ar   
    50   45   26 1    
    51   46   27 1    
@<TRIPOS>SUBSTRUCTURE
     1 I481        1 GROUP   
@<TRIPOS>SET

