#    Name: 1LK6_1_CAVITY_N1_ALL.mol2
#    Modification time : Mon Mar 10 14:25:07 2014

@<TRIPOS>MOLECULE
1LK6_1_CAVITY_N1_ALL.mol2
   64     0     7     0     0
SMALL
NO_CHARGES


@<TRIPOS>ATOM
      1 CZ         21.4233    6.4953    3.9149 C.ar      5 PHE5        0.0000 
      2 CZ         21.4019    6.1889    1.8159 C.ar      5 PHE5        0.0000 
      3 CZ         20.8659    5.4436    3.0022 C.ar      5 PHE5        0.0000 
      4 N          20.3084    4.3918    2.0894 N.2       2 ALA2        0.0000 
      5 N          19.7724    3.6465    3.2757 N.2       2 ALA2        0.0000 
      6 N          19.7509    3.3401    1.1767 N.2       2 ALA2        0.0000 
      7 O          19.2149    2.5948    2.3629 O.2       2 ALA2        0.0000 
      8 N          19.7294    3.0338   -0.9223 N.2       2 ALA2        0.0000 
      9 N          19.1934    2.2884    0.2640 N.2       2 ALA2        0.0000 
     10 CZ         19.1719    1.9820   -1.8350 C.ar      5 PHE5        0.0000 
     11 N          18.6359    1.2367   -0.6488 N.2       2 ALA2        0.0000 
     12 CZ         18.6144    0.9303   -2.7478 C.ar      5 PHE5        0.0000 
     13 CZ         18.0784    0.1850   -1.5615 C.ar      5 PHE5        0.0000 
     14 N          17.5424   -0.5604   -0.3753 N.2       2 ALA2        0.0000 
     15 CZ         17.5210   -0.8668   -2.4743 C.ar      5 PHE5        0.0000 
     16 N          24.5299    5.7066    2.9263 N.2       2 ALA2        0.0000 
     17 CZ         23.9939    4.9613    4.1125 C.ar      5 PHE5        0.0000 
     18 CZ         23.9724    4.6549    2.0135 C.ar      5 PHE5        0.0000 
     19 CZ         23.4364    3.9095    3.1998 C.ar      5 PHE5        0.0000 
     20 OG         18.2738    6.6712    0.7056 O.2       1 SER1        0.0000 
     21 CZ         17.7378    5.9259    1.8918 C.ar      5 PHE5        0.0000 
     22 CA         17.7163    5.6195   -0.2071 C.3       6 GLY6        0.0000 
     23 DU         17.1804    4.8742    0.9791 H         7 CUB7        0.0000 
     24 CA         16.6444    4.1288    2.1653 C.3       6 GLY6        0.0000 
     25 CA         17.1589    4.5678   -1.1199 C.3       6 GLY6        0.0000 
     26 N          16.6229    3.8224    0.0664 N.2       2 ALA2        0.0000 
     27 N          16.6014    3.5161   -2.0326 N.2       2 ALA2        0.0000 
     28 N          16.0654    2.7707   -0.8464 N.2       2 ALA2        0.0000 
     29 N          15.5079    1.7190   -1.7591 N.2       2 ALA2        0.0000 
     30 N          14.9504    0.6673   -2.6719 N.2       2 ALA2        0.0000 
     31 CZ         19.5806    6.2106    2.9034 C.ar      5 PHE5        0.0000 
     32 N          19.5591    5.9042    0.8044 N.2       2 ALA2        0.0000 
     33 CZ         19.0231    5.1589    1.9906 C.ar      5 PHE5        0.0000 
     34 N          18.4656    4.1071    1.0779 N.2       2 ALA2        0.0000 
     35 O          17.9296    3.3618    2.2641 O.2       2 ALA2        0.0000 
     36 N          18.4441    3.8008   -1.0211 N.2       2 ALA2        0.0000 
     37 N          17.9081    3.0554    0.1652 N.2       2 ALA2        0.0000 
     38 O          17.8867    2.7491   -1.9338 O.2       2 ALA2        0.0000 
     39 N          17.3507    2.0037   -0.7476 N.2       2 ALA2        0.0000 
     40 N          17.3292    1.6973   -2.8466 N.2       2 ALA2        0.0000 
     41 N          16.7932    0.9520   -1.6603 N.2       2 ALA2        0.0000 
     42 CZ         16.2357   -0.0997   -2.5731 C.ar      5 PHE5        0.0000 
     43 CA         15.6997   -0.8451   -1.3868 C.3       6 GLY6        0.0000 
     44 CA         23.2661    6.7800    4.9265 C.3       6 GLY6        0.0000 
     45 CZ         23.2446    6.4736    2.8275 C.ar      5 PHE5        0.0000 
     46 N          22.7086    5.7283    4.0137 N.2       2 ALA2        0.0000 
     47 O          22.6871    5.4219    1.9147 O.2       2 ALA2        0.0000 
     48 N          22.1511    4.6766    3.1010 N.2       2 ALA2        0.0000 
     49 N          21.5936    3.6248    2.1882 N.2       2 ALA2        0.0000 
     50 CZ         19.9212    0.4697   -0.5500 C.ar      5 PHE5        0.0000 
     51 OG         16.9886    7.4383    0.6068 O.2       1 SER1        0.0000 
     52 O          16.4526    6.6929    1.7930 O.2       2 ALA2        0.0000 
     53 OD1        15.8951    5.6412    0.8803 O.3       3 ASP3        0.0000 
     54 CA         15.3591    4.8958    2.0665 C.3       6 GLY6        0.0000 
     55 OD1        15.3376    4.5895   -0.0324 O.3       3 ASP3        0.0000 
     56 CA         14.8016    3.8441    1.1538 C.3       6 GLY6        0.0000 
     57 OD1        15.3161    4.2831   -2.1314 O.3       3 ASP3        0.0000 
     58 CA         14.7801    3.5377   -0.9452 C.3       6 GLY6        0.0000 
     59 N          14.2441    2.7924    0.2411 N.2       2 ALA2        0.0000 
     60 CA         14.7586    3.2314   -3.0441 C.3       6 GLY6        0.0000 
     61 CA         14.2226    2.4860   -1.8579 C.3       6 GLY6        0.0000 
     62 OD1        14.6098    6.4082    0.7815 O.3       3 ASP3        0.0000 
     63 OD1        14.0523    5.3565   -0.1312 O.3       3 ASP3        0.0000 
     64 NZ         13.5163    4.6111    1.0550 N.2       4 LYS4        0.0000 
@<TRIPOS>BOND
@<TRIPOS>SUBSTRUCTURE
     1 SER1       20 GROUP   
     2 ALA2        4 GROUP   
     3 ASP3       53 GROUP   
     4 LYS4       64 GROUP   
     5 PHE5        1 GROUP   
     6 GLY6       22 GROUP   
     7 CUB7       23 GROUP   
@<TRIPOS>SET

