#    Name: 1lk6_SER_GLU_ALA_ALA_ALA_SER_ACE_1_INTS_M
#    Modification time : Tue Mar 25 11:09:23 2014

@<TRIPOS>MOLECULE
1lk6_SER_GLU_ALA_ALA_ALA_SER_ACE_1_INTS_M
  130     0    12     0     0
SMALL
NO_CHARGES


@<TRIPOS>ATOM
      1 O          16.5660    1.7280   -3.9865 O.2       1 ALC1        0.0000 
      2 O          16.3120    0.9940   -2.6990 O.2       9 ALL1        0.0000 
      3 O          16.8200    2.4620   -5.2740 O.2       5 ALP1        0.0000 
      4 N          18.7510    3.4080   -3.5735 N.am      2 SEC2        0.0000 
      5 N          18.3910    2.8970   -2.2750 N.am     10 SEL2        0.0000 
      6 N          19.1110    3.9190   -4.8720 N.am      6 SEP2        0.0000 
      7 CA         19.9735    0.6785   -2.2780 C.3       4 GLC5        0.0000 
      8 CA         18.2490   -0.1250   -1.6700 C.3      12 GLL5        0.0000 
      9 CA         21.6980    1.4820   -2.8860 C.3       8 GLP5        0.0000 
     10 CA         19.1085   -1.9715   -1.0740 C.3       4 GLC5        0.0000 
     11 CA         19.9680   -3.8180   -0.4780 C.3       8 GLP5        0.0000 
     12 CA         17.4365   -1.3435   -0.0210 C.3       4 GLC5        0.0000 
     13 CA         16.6240   -2.5620    1.6280 C.3       8 GLP5        0.0000 
     14 O          16.9685    1.8750    0.6785 O.2       1 ALC1        0.0000 
     15 O          17.9440    2.7050   -0.0620 O.2       9 ALL1        0.0000 
     16 O          15.9930    1.0450    1.4190 O.2       5 ALP1        0.0000 
     17 CA         19.3445    4.7235   -1.5170 C.3       4 GLC5        0.0000 
     18 CA         18.6260    3.9330    0.3230 C.3      12 GLL5        0.0000 
     19 CA         20.0630    5.5140   -3.3570 C.3       8 GLP5        0.0000 
     20 N          18.0815    2.3115    3.2995 N.am      2 SEC2        0.0000 
     21 N          18.9990    3.1610    2.5760 N.am     10 SEL2        0.0000 
     22 N          17.1640    1.4620    4.0230 N.am      6 SEP2        0.0000 
     23 CA         19.3725    7.8290    0.5575 C.3       4 GLC5        0.0000 
     24 CA         18.2150    6.3740    1.0480 C.3      12 GLL5        0.0000 
     25 CA         20.5300    9.2840    0.0670 C.3       8 GLP5        0.0000 
     26 CA         17.9110    5.8590    3.1170 C.3       4 GLC5        0.0000 
     27 CA         17.6070    5.3440    5.1860 C.3       8 GLP5        0.0000 
     28 NZ         15.9200    7.6060    3.5460 N.4       3 LYC4        0.0000 
     29 NZ         16.1540    6.8810    2.1310 N.4      11 LYL4        0.0000 
     30 NZ         15.6860    8.3310    4.9610 N.4       7 LYP4        0.0000 
     31 NZ         15.6240    7.1090    0.2550 N.4       3 LYC4        0.0000 
     32 NZ         15.0940    7.3370   -1.6210 N.4       7 LYP4        0.0000 
     33 NZ         16.3015    8.6560    2.6420 N.4       3 LYC4        0.0000 
     34 NZ         17.3980    8.5770    1.4930 N.4      11 LYL4        0.0000 
     35 N          16.3015    8.6560    2.6420 N.am      2 SEC2        0.0000 
     36 N          17.3980    8.5770    1.4930 N.am     10 SEL2        0.0000 
     37 N          15.2050    8.7350    3.7910 N.am      6 SEP2        0.0000 
     38 N          18.2820    8.9020    0.6715 N.am      2 SEC2        0.0000 
     39 N          19.1660    9.2270   -0.1500 N.am      6 SEP2        0.0000 
     40 O          21.1115    4.4000    0.1880 O.2       1 ALC1        0.0000 
     41 O          20.8110    3.7330    1.3680 O.2       9 ALL1        0.0000 
     42 O          21.4120    5.0670   -0.9920 O.2       5 ALP1        0.0000 
     43 N          23.5730    5.7535    0.4760 N.am      2 SEC2        0.0000 
     44 N          23.1200    5.2740    1.6710 N.am     10 SEL2        0.0000 
     45 N          24.0260    6.2330   -0.7190 N.am      6 SEP2        0.0000 
     46 CA         22.9680    0.6790    3.3470 C.3       4 GLC5        0.0000 
     47 CA         22.5210    2.1220    2.1380 C.3      12 GLL5        0.0000 
     48 CA         23.4150   -0.7640    4.5560 C.3       8 GLP5        0.0000 
     49 CA         22.4960    2.2640   -0.0210 C.3       4 GLC5        0.0000 
     50 CA         22.4710    2.4060   -2.1800 C.3       8 GLP5        0.0000 
     51 CA         22.6010    0.4430    1.1060 C.3       4 GLC5        0.0000 
     52 CA         22.6810   -1.2360    0.0740 C.3       8 GLP5        0.0000 
     53 O          22.3385    3.7750    4.6685 O.2       1 ALC1        0.0000 
     54 O          23.1630    4.7850    3.8780 O.2       9 ALL1        0.0000 
     55 O          21.5140    2.7650    5.4590 O.2       5 ALP1        0.0000 
     56 CA         24.7120    6.8235    2.3860 C.3       4 GLC5        0.0000 
     57 CA         24.0980    5.8450    4.2140 C.3      12 GLL5        0.0000 
     58 CA         25.3260    7.8020    0.5580 C.3       8 GLP5        0.0000 
     59 CA         25.1350    4.1915    3.7720 C.3       4 GLC5        0.0000 
     60 CA         26.1720    2.5380    3.3300 C.3       8 GLP5        0.0000 
     61 N          23.4815    4.0960    7.0995 N.am      2 SEC2        0.0000 
     62 N          24.4320    4.6090    6.2310 N.am     10 SEL2        0.0000 
     63 N          22.5310    3.5830    7.9680 N.am      6 SEP2        0.0000 
     64 CA         23.6815    9.0580    4.9020 C.3       4 GLC5        0.0000 
     65 CA         23.3350    7.1340    4.4840 C.3      12 GLL5        0.0000 
     66 CA         24.0280   10.9820    5.3200 C.3       8 GLP5        0.0000 
     67 CA         21.5535    7.9140    5.2935 C.3       4 GLC5        0.0000 
     68 CA         19.7720    8.6940    6.1030 C.3       8 GLP5        0.0000 
     69 CA         23.6705    7.6935    6.2580 C.3       4 GLC5        0.0000 
     70 CA         24.0060    8.2530    8.0320 C.3       8 GLP5        0.0000 
     71 CA         22.8830    8.1175    3.0080 C.3       4 GLC5        0.0000 
     72 CA         22.4310    9.1010    1.5320 C.3       8 GLP5        0.0000 
     73 O          26.3340    6.6530    4.2805 O.2       1 ALC1        0.0000 
     74 O          26.0600    6.0280    5.6080 O.2       9 ALL1        0.0000 
     75 O          26.6080    7.2780    2.9530 O.2       5 ALP1        0.0000 
     76 CA         25.4540    6.9815    7.3935 C.3       4 GLC5        0.0000 
     77 CA         26.9020    5.7100    6.7550 C.3      12 GLL5        0.0000 
     78 CA         25.7405    4.5665    7.9960 C.3       4 GLC5        0.0000 
     79 CA         24.5790    3.4230    9.2370 C.3       8 GLP5        0.0000 
     80 N          28.7000    7.8410    4.7335 N.am      2 SEC2        0.0000 
     81 N          28.2420    7.6230    6.1820 N.am     10 SEL2        0.0000 
     82 N          29.1580    8.0590    3.2850 N.am      6 SEP2        0.0000 
     83 CA         28.5860    3.0745    5.7770 C.3       4 GLC5        0.0000 
     84 CA         27.6450    4.3880    6.5110 C.3      12 GLL5        0.0000 
     85 CA         29.5270    1.7610    5.0430 C.3       8 GLP5        0.0000 
     86 CA         26.4205    3.2620    7.6105 C.3       4 GLC5        0.0000 
     87 CA         25.1960    2.1360    8.7100 C.3       8 GLP5        0.0000 
     88 CA         26.9085    3.4630    4.9205 C.3       4 GLC5        0.0000 
     89 O          27.3675    6.1030    9.0750 O.2       1 ALC1        0.0000 
     90 O          28.3880    6.8110    8.2670 O.2       9 ALL1        0.0000 
     91 O          26.3470    5.3950    9.8830 O.2       5 ALP1        0.0000 
     92 CA         29.8700    8.6920    6.6920 C.3       4 GLC5        0.0000 
     93 CA         29.4020    7.7640    8.6590 C.3      12 GLL5        0.0000 
     94 CA         30.3380    9.6200    4.7250 C.3       8 GLP5        0.0000 
     95 N          28.6780    5.6065   11.3825 N.am      2 SEC2        0.0000 
     96 N          29.5370    6.3540   10.5690 N.am     10 SEL2        0.0000 
     97 N          27.8190    4.8590   12.1960 N.am      6 SEP2        0.0000 
     98 CA         27.8820   10.7210    8.8610 C.3       4 GLC5        0.0000 
     99 CA         28.8060    9.1560    8.8110 C.3      12 GLL5        0.0000 
    100 CA         26.9580   12.2860    8.9110 C.3       8 GLP5        0.0000 
    101 CA         26.9140    9.2290    9.4535 C.3       4 GLC5        0.0000 
    102 CA         25.0220    9.3020   10.0960 C.3       8 GLP5        0.0000 
    103 CA         28.2410    9.7770   10.3540 C.3       4 GLC5        0.0000 
    104 CA         27.6760   10.3980   11.8970 C.3       8 GLP5        0.0000 
    105 CA         29.2450   10.4030    7.4515 C.3       4 GLC5        0.0000 
    106 CA         29.6840   11.6500    6.0920 C.3       8 GLP5        0.0000 
    107 O          30.8645    9.3695    7.8535 O.2       1 ALC1        0.0000 
    108 O          29.8590   10.0960    8.9370 O.2       9 ALL1        0.0000 
    109 O          31.8700    8.6430    6.7700 O.2       5 ALP1        0.0000 
    110 N          13.5595   -0.6840   -0.8810 N.am      2 SEC2        0.0000 
    111 N          14.6260   -0.1180   -1.6880 N.am     10 SEL2        0.0000 
    112 N          12.4930   -1.2500   -0.0740 N.am      6 SEP2        0.0000 
    113 CA         15.0285    1.2370   -5.8860 C.3       4 GLC5        0.0000 
    114 CA         14.3130    0.5070   -3.9810 C.3      12 GLL5        0.0000 
    115 CA         15.7440    1.9670   -7.7910 C.3       8 GLP5        0.0000 
    116 CA         13.7785   -1.0130   -4.7415 C.3       4 GLC5        0.0000 
    117 CA         13.2440   -2.5330   -5.5020 C.3       8 GLP5        0.0000 
    118 CA         13.2100    2.0805   -3.3180 C.3       4 GLC5        0.0000 
    119 CA         12.1070    3.6540   -2.6550 C.3       8 GLP5        0.0000 
    120 CA         18.2797   -0.4260   -3.2335 C.3       4 GLC5        0.0000 
    121 CA         17.1840    0.9630   -1.5320 C.3      12 GLL5        0.0000 
    122 CA         18.8430   -1.2710   -4.8660 C.3       8 GLP5        0.0000 
    123 CA         17.8518    6.1768   -1.1220 C.3       4 GLC5        0.0000 
    124 CA         17.6080    5.0230    0.6840 C.3      12 GLL5        0.0000 
    125 CA         17.7920    6.6550   -3.1100 C.3       8 GLP5        0.0000 
    126 CA         21.0070    1.1390    2.6293 C.3       4 GLC5        0.0000 
    127 CA         21.7550    3.4360    2.4390 C.3      12 GLL5        0.0000 
    128 CA         19.8760   -0.5010    2.9700 C.3       8 GLP5        0.0000 
    129 CA         24.1005    2.9195    2.1627 C.3       4 GLC5        0.0000 
    130 CA         26.0630    3.0600    2.0370 C.3       8 GLP5        0.0000 
@<TRIPOS>BOND
@<TRIPOS>SUBSTRUCTURE
     1 ALC1        1 GROUP        1 X    ALC  0     ROOT ALC X 1
     2 SEC2        4 GROUP        1 X    SEC  0     **** SEC X 2
     3 LYC4       28 GROUP        1 X    LYC  0     **** LYC X 4
     4 GLC5        7 GROUP        1 X    GLC  0     **** GLC X 6
     5 ALP1        3 GROUP        1 Y    ALP  0     ROOT ALP Y 8
     6 SEP2        6 GROUP        1 Y    SEP  0     **** SEP Y 9
     7 LYP4       30 GROUP        1 Y    LYP  0     **** LYP Y 11
     8 GLP5        9 GROUP        1 Y    GLP  0     **** GLP Y 13
     9 ALL1        2 GROUP        1 Z    ALL  0     ROOT ALL Z 15
    10 SEL2        5 GROUP        1 Z    SEL  0     **** SEL Z 16
    11 LYL4       29 GROUP        1 Z    LYL  0     **** LYL Z 18
    12 GLL5        8 GROUP        1 Z    GLL  0     **** GLL Z 20
@<TRIPOS>SET

