#    Name: 1lk6_SER_GLU_ALA_ALA_ALA_SER_ACE_1_ligand
#    Modification time : Tue Mar 25 11:09:23 2014

@<TRIPOS>MOLECULE
1lk6_SER_GLU_ALA_ALA_ALA_SER_ACE_1_ligand
   75    74     7     0     0
SMALL
NO_CHARGES


@<TRIPOS>ATOM
      1 N          16.3120    0.9940   -2.6990 N.am      1 SER2        0.0000
      2 CA         17.1840    0.9630   -1.5320 C.3       1 SER2        0.0000
      3 C          17.8930    2.2830   -1.3220 C.2       1 SER2        0.0000
      4 O          18.3910    2.8970   -2.2750 O.2       1 SER2        0.0000
      5 CB         18.2490   -0.1250   -1.6700 C.3       1 SER2        0.0000
      6 OG         17.6810   -1.4100   -1.5990 O.3       1 SER2        0.0000
      7 HNCA       16.7096    1.4383   -3.5521 H         1 SER2        0.0000
      8 HA         16.6127    0.7429   -0.6329 H         1 SER2        0.0000
      9 HB2        18.9953    0.0446   -0.8722 H         1 SER2        0.0000
     10 HB3        18.7701    0.0470   -2.6298 H         1 SER2        0.0000
     11 HG         16.6929   -1.2562   -1.5955 H         1 SER2        0.0000
     12 N          17.9440    2.7050   -0.0620 N.am      2 GLU3        0.0000
     13 CA         18.6260    3.9330    0.3230 C.3       2 GLU3        0.0000
     14 C          19.5010    3.5850    1.5310 C.2       2 GLU3        0.0000
     15 O          18.9990    3.1610    2.5760 O.2       2 GLU3        0.0000
     16 CB         17.6080    5.0230    0.6840 C.3       2 GLU3        0.0000
     17 CG         18.2150    6.3740    1.0480 C.3       2 GLU3        0.0000
     18 CD         17.1810    7.3500    1.5890 C.2       2 GLU3        0.0000
     19 OE1        16.1540    6.8810    2.1310 O.co2     2 GLU3        0.0000
     20 OE2        17.3980    8.5770    1.4930 O.co2     2 GLU3        0.0000
     21 HNCA       17.4950    2.1741    0.7194 H         2 GLU3        0.0000
     22 HA         19.2566    4.2803   -0.4636 H         2 GLU3        0.0000
     23 HB2        16.9932    4.6651    1.5311 H         2 GLU3        0.0000
     24 HB3        16.9172    5.1574   -0.1695 H         2 GLU3        0.0000
     25 HG2        18.6872    6.8059    0.1571 H         2 GLU3        0.0000
     26 HG3        18.9977    6.2234    1.8016 H         2 GLU3        0.0000
     27 N          20.8110    3.7330    1.3680 N.am      3 ALA4        0.0000
     28 CA         21.7550    3.4360    2.4390 C.3       3 ALA4        0.0000
     29 C          22.7440    4.5870    2.6310 C.2       3 ALA4        0.0000
     30 O          23.1200    5.2740    1.6710 O.2       3 ALA4        0.0000
     31 CB         22.5210    2.1220    2.1380 C.3       3 ALA4        0.0000
     32 H          21.2293    4.0660    0.4748 H         3 ALA4        0.0000
     33 HA         21.2253    3.2903    3.3783 H         3 ALA4        0.0000
     34 HB1        23.0410    2.1821    1.2860 H         3 ALA4        0.0000
     35 HB2        23.1717    1.8970    2.8632 H         3 ALA4        0.0000
     36 HB3        21.9008    1.3427    2.0485 H         3 ALA4        0.0000
     37 N          23.1630    4.7850    3.8780 N.am      4 ALA5        0.0000
     38 CA         24.0980    5.8450    4.2140 C.3       4 ALA5        0.0000
     39 C          24.8830    5.4390    5.4410 C.2       4 ALA5        0.0000
     40 O          24.4320    4.6090    6.2310 O.2       4 ALA5        0.0000
     41 CB         23.3350    7.1340    4.4840 C.3       4 ALA5        0.0000
     42 H          22.8423    4.1915    4.6729 H         4 ALA5        0.0000
     43 HA         24.7841    6.0147    3.4042 H         4 ALA5        0.0000
     44 HB1        23.9496    7.8872    4.7183 H         4 ALA5        0.0000
     45 HB2        22.8046    7.4253    3.6879 H         4 ALA5        0.0000
     46 HB3        22.6923    7.0330    5.2434 H         4 ALA5        0.0000
     47 N          26.0600    6.0280    5.6080 N.am      5 ALA6        0.0000
     48 CA         26.9020    5.7100    6.7550 C.3       5 ALA6        0.0000
     49 C          27.9090    6.8030    7.0380 C.2       5 ALA6        0.0000
     50 O          28.2420    7.6230    6.1820 O.2       5 ALA6        0.0000
     51 CB         27.6450    4.3880    6.5110 C.3       5 ALA6        0.0000
     52 H          26.4370    6.7310    4.9467 H         5 ALA6        0.0000
     53 HA         26.2892    5.5722    7.6447 H         5 ALA6        0.0000
     54 HB1        28.2284    4.4341    5.7001 H         5 ALA6        0.0000
     55 HB2        28.2335    4.1449    7.2821 H         5 ALA6        0.0000
     56 HB3        27.0120    3.6261    6.3738 H         5 ALA6        0.0000
     57 N          28.3880    6.8110    8.2670 N.am      6 SER7        0.0000
     58 CA         29.4020    7.7640    8.6590 C.3       6 SER7        0.0000
     59 C          30.0410    7.3290    9.9650 C.2       6 SER7        0.0000
     60 O          29.5370    6.3540   10.5690 O.2       6 SER7        0.0000
     61 CB         28.8060    9.1560    8.8110 C.3       6 SER7        0.0000
     62 OG         29.8590   10.0960    8.9370 O.3       6 SER7        0.0000
     63 OXT        31.0350    7.9730   10.3640 O.3       6 SER7        0.0000
     64 HNCA       28.0702    6.1494    9.0007 H         6 SER7        0.0000
     65 HA         30.1842    7.8147    7.9062 H         6 SER7        0.0000
     66 HB2        28.1555    9.1473    9.6916 H         6 SER7        0.0000
     67 HB3        28.1838    9.3516    7.9317 H         6 SER7        0.0000
     68 HG         30.4530    9.9259    8.1508 H         6 SER7        0.0000
     69 H          30.9074    8.8963   10.0018 H         6 SER7        0.0000
     70 C          15.0820    0.4830   -2.6690 C.2       7 ACE1        0.0000
     71 O          14.6260   -0.1180   -1.6880 O.2       7 ACE1        0.0000
     72 CH3        14.3130    0.5070   -3.9810 C.3       7 ACE1        0.0000
     73 H          14.1892    1.4389   -4.3220 H         7 ACE1        0.0000
     74 H          14.7847   -0.0070   -4.6974 H         7 ACE1        0.0000
     75 H          13.4017    0.1067   -3.8847 H         7 ACE1        0.0000
@<TRIPOS>BOND
     1    2    1 1
     2    7    1 1
     3    3    2 1
     4    5    2 1
     5    8    2 1
     6    4    3 2
     7    6    5 1
     8    9    5 1
     9   10    5 1
    10   11    6 1
    11   13   12 1
    12   21   12 1
    13   14   13 1
    14   16   13 1
    15   22   13 1
    16   15   14 2
    17   17   16 1
    18   23   16 1
    19   24   16 1
    20   18   17 1
    21   25   17 1
    22   26   17 1
    23   19   18 ar
    24   20   18 ar
    25   28   27 1
    26   32   27 1
    27   29   28 1
    28   31   28 1
    29   33   28 1
    30   30   29 2
    31   34   31 1
    32   35   31 1
    33   36   31 1
    34   38   37 1
    35   42   37 1
    36   39   38 1
    37   41   38 1
    38   43   38 1
    39   40   39 2
    40   44   41 1
    41   45   41 1
    42   46   41 1
    43   48   47 1
    44   52   47 1
    45   49   48 1
    46   51   48 1
    47   53   48 1
    48   50   49 2
    49   54   51 1
    50   55   51 1
    51   56   51 1
    52   58   57 1
    53   64   57 1
    54   59   58 1
    55   61   58 1
    56   65   58 1
    57   60   59 2
    58   63   59 1
    59   62   61 1
    60   66   61 1
    61   67   61 1
    62   68   62 1
    63   69   63 1
    64   71   70 2
    65   72   70 1
    66   73   72 1
    67   74   72 1
    68   75   72 1
    69   70    1 1 
    70   12    3 am
    71   27   14 am
    72   37   29 am
    73   47   39 am
    74   57   49 am
@<TRIPOS>SUBSTRUCTURE
     1 SER2        1 RESIDUE
     2 GLU3       12 RESIDUE
     3 ALA4       27 RESIDUE
     4 ALA5       37 RESIDUE
     5 ALA6       47 RESIDUE
     6 SER7       57 RESIDUE
     7 ACE1       70 GROUP
@<TRIPOS>SET

