#    Name: 2uw5_GVN_1_INTS_M
#    Modification time : Tue Mar 25 00:23:38 2014

@<TRIPOS>MOLECULE
2uw5_GVN_1_INTS_M
   65     0     6     0     0
SMALL
NO_CHARGES


@<TRIPOS>ATOM
      1 O          12.4035    6.3020    2.0065 O.2       1 ALC1        0.0000 
      2 O          12.5210    7.4910    3.0520 O.2       5 ALL1        0.0000 
      3 O          12.2860    5.1130    0.9610 O.2       3 ALP1        0.0000 
      4 CA          9.2930    7.1030    1.7805 C.3       2 GLC5        0.0000 
      5 CA         11.0550    7.7400    2.9990 C.3       6 GLL5        0.0000 
      6 CA          7.5310    6.4660    0.5620 C.3       4 GLP5        0.0000 
      7 CA         11.1720    8.5150   -0.5275 C.3       2 GLC5        0.0000 
      8 CA         11.5580    9.9570    1.0370 C.3       6 GLL5        0.0000 
      9 CA         10.7860    7.0730   -2.0920 C.3       4 GLP5        0.0000 
     10 CA         14.2095   15.2480   -0.2545 C.3       2 GLC5        0.0000 
     11 CA         13.4240   13.2530   -0.2420 C.3       6 GLL5        0.0000 
     12 CA         14.9950   17.2430   -0.2670 C.3       4 GLP5        0.0000 
     13 CA         12.9790   14.8430    1.1305 C.3       2 GLC5        0.0000 
     14 CA         12.5340   16.4330    2.5030 C.3       4 GLP5        0.0000 
     15 CA         12.1715   12.8650   -1.6785 C.3       2 GLC5        0.0000 
     16 CA         10.9190   12.4770   -3.1150 C.3       4 GLP5        0.0000 
     17 CA         12.9460   14.5470   -1.8400 C.3       2 GLC5        0.0000 
     18 CA         12.4680   15.8410   -3.4380 C.3       4 GLP5        0.0000 
     19 CA         12.5160   14.3760    2.3155 C.3       2 GLC5        0.0000 
     20 CA         12.4980   12.3190    2.1280 C.3       6 GLL5        0.0000 
     21 CA         11.7445   11.9810    4.8110 C.3       2 GLC5        0.0000 
     22 CA         11.8830   11.3870    2.9350 C.3       6 GLL5        0.0000 
     23 CA         11.6060   12.5750    6.6870 C.3       4 GLP5        0.0000 
     24 CA          8.5530   11.6855    3.7385 C.3       2 GLC5        0.0000 
     25 CA          8.5230    9.6000    4.4960 C.3       6 GLL5        0.0000 
     26 CA          8.5830   13.7710    2.9810 C.3       4 GLP5        0.0000 
     27 CA          7.1310   11.3860    5.9935 C.3       2 GLC5        0.0000 
     28 CA          7.1520    9.7520    4.4920 C.3       6 GLL5        0.0000 
     29 CA          7.1100   13.0200    7.4950 C.3       4 GLP5        0.0000 
     30 CA          6.5210    8.3250    5.2405 C.3       2 GLC5        0.0000 
     31 CA          5.8900    6.8980    5.9890 C.3       4 GLP5        0.0000 
     32 CA          5.7735    9.7125    0.3880 C.3       2 GLC5        0.0000 
     33 CA          7.1270    9.4660    2.1160 C.3       6 GLL5        0.0000 
     34 CA          4.4200    9.9590   -1.3400 C.3       4 GLP5        0.0000 
     35 CA          5.1145    7.8085    3.4250 C.3       2 GLC5        0.0000 
     36 CA          4.9780    9.8130    3.2960 C.3       6 GLL5        0.0000 
     37 CA          5.2510    5.8040    3.5540 C.3       4 GLP5        0.0000 
     38 CA          4.4190   11.5330    5.5965 C.3       2 GLC5        0.0000 
     39 CA          4.1210    9.8490    4.3900 C.3       6 GLL5        0.0000 
     40 CA          4.7170   13.2170    6.8030 C.3       4 GLP5        0.0000 
     41 CA          5.0055    8.3735    5.1895 C.3       2 GLC5        0.0000 
     42 CA         10.2715   11.6175    1.6950 C.3       2 GLC5        0.0000 
     43 CA         11.4100   10.1950    2.4010 C.3       6 GLL5        0.0000 
     44 CA          9.0590   13.1590    1.6710 C.3       4 GLP5        0.0000 
     45 CA         10.7350   12.3212    1.0857 C.3       2 GLC5        0.0000 
     46 CA         12.1740   10.8910    0.2290 C.3       6 GLL5        0.0000 
     47 CA         11.6650   11.9803   -1.3073 C.3       2 GLC5        0.0000 
     48 CA         12.6480   12.0760    0.7720 C.3       6 GLL5        0.0000 
     49 CA         13.4588   12.8240    3.7618 C.3       2 GLC5        0.0000 
     50 CA         14.7270   13.7950    4.9920 C.3       4 GLP5        0.0000 
     51 CA         14.7775   12.7864    1.5268 C.3       2 GLC5        0.0000 
     52 CA         16.7880   13.0810    1.8570 C.3       4 GLP5        0.0000 
     53 CA         10.6247   12.5060    2.1013 C.3       2 GLC5        0.0000 
     54 CA          7.7680    7.7622    4.2715 C.3       2 GLC5        0.0000 
     55 CA          9.2110    9.3850    3.3080 C.3       6 GLL5        0.0000 
     56 CA          6.6690    6.0320    4.6410 C.3       4 GLP5        0.0000 
     57 CA          8.1925    7.9080    1.6378 C.3       2 GLC5        0.0000 
     58 CA          6.7263    7.8075    3.6747 C.3       2 GLC5        0.0000 
     59 CA          6.4400    9.7000    3.3010 C.3       6 GLL5        0.0000 
     60 CA          7.1572    8.0245    1.6353 C.3       2 GLC5        0.0000 
     61 CA          8.5247   11.2835    2.0429 C.3       2 GLC5        0.0000 
     62 CA          6.4780   11.6737    3.3716 C.3       2 GLC5        0.0000 
     63 CA          7.0690   13.5780    3.1470 C.3       4 GLP5        0.0000 
     64 CA          3.8967   11.4110    3.2220 C.3       2 GLC5        0.0000 
     65 CA          3.2440   12.9910    2.6010 C.3       4 GLP5        0.0000 
@<TRIPOS>BOND
@<TRIPOS>SUBSTRUCTURE
     1 ALC1        1 GROUP        1 X    ALC  0     ROOT ALC X 1
     2 GLC5        4 GROUP        1 X    GLC  0     **** GLC X 6
     3 ALP1        3 GROUP        1 Y    ALP  0     ROOT ALP Y 8
     4 GLP5        6 GROUP        1 Y    GLP  0     **** GLP Y 13
     5 ALL1        2 GROUP        1 Z    ALL  0     ROOT ALL Z 15
     6 GLL5        5 GROUP        1 Z    GLL  0     **** GLL Z 20
@<TRIPOS>SET

