#    Name: 2uw5_GVN_1_ligand
#    Modification time : Tue Mar 25 00:23:39 2014

@<TRIPOS>MOLECULE
2uw5_GVN_1_ligand
   38    40     1     0     0
SMALL
NO_CHARGES


@<TRIPOS>ATOM
      1 N1         12.5210    7.4910    3.0520 N.4       1 GVN1351     0.0000 
      2 C2         11.0550    7.7400    2.9990 C.3       1 GVN1351     0.0000 
      3 C3         10.7180    9.1970    3.3120 C.3       1 GVN1351     0.0000 
      4 C4         11.4100   10.1950    2.4010 C.ar      1 GVN1351     0.0000 
      5 C5         11.5580    9.9570    1.0370 C.ar      1 GVN1351     0.0000 
      6 C6         12.1740   10.8910    0.2290 C.ar      1 GVN1351     0.0000 
      7 C7         12.6480   12.0760    0.7720 C.ar      1 GVN1351     0.0000 
      8 CL8        13.4240   13.2530   -0.2420 Cl        1 GVN1351     0.0000 
      9 C9         12.4980   12.3190    2.1280 C.ar      1 GVN1351     0.0000 
     10 C10        11.8830   11.3870    2.9350 C.ar      1 GVN1351     0.0000 
     11 C11         9.2110    9.3850    3.3080 C.ar      1 GVN1351     0.0000 
     12 C12         8.5230    9.6000    4.4960 C.ar      1 GVN1351     0.0000 
     13 C13         7.1520    9.7520    4.4920 C.ar      1 GVN1351     0.0000 
     14 C14         6.4400    9.7000    3.3010 C.ar      1 GVN1351     0.0000 
     15 C15         7.1270    9.4660    2.1160 C.ar      1 GVN1351     0.0000 
     16 C16         8.4970    9.3150    2.1190 C.ar      1 GVN1351     0.0000 
     17 C17         4.9780    9.8130    3.2960 C.2       1 GVN1351     0.0000 
     18 C18         4.1210    9.8490    4.3900 C.2       1 GVN1351     0.0000 
     19 N19         2.8490    9.8960    4.0050 N.pl3     1 GVN1351     0.0000 
     20 N20         2.8910    9.8690    2.6490 N.2       1 GVN1351     0.0000 
     21 C21         4.1580    9.8080    2.2100 C.2       1 GVN1351     0.0000 
     22 H          10.5369    7.0991    3.7230 H         1 GVN1351     0.0000 
     23 H          10.6671    7.4990    2.0016 H         1 GVN1351     0.0000 
     24 H          11.0601    9.3922    4.3503 H         1 GVN1351     0.0000 
     25 H          11.2033    9.0757    0.6334 H         1 GVN1351     0.0000 
     26 H          12.2835   10.7105   -0.7805 H         1 GVN1351     0.0000 
     27 H          12.8494   13.2022    2.5313 H         1 GVN1351     0.0000 
     28 H          11.7702   11.5714    3.9462 H         1 GVN1351     0.0000 
     29 H           9.0460    9.6456    5.3861 H         1 GVN1351     0.0000 
     30 H           6.6466    9.9061    5.3810 H         1 GVN1351     0.0000 
     31 H           6.6016    9.4055    1.2273 H         1 GVN1351     0.0000 
     32 H           9.0011    9.1482    1.2317 H         1 GVN1351     0.0000 
     33 H           4.4457    9.8397    5.3151 H         1 GVN1351     0.0000 
     34 H           2.0725    9.9391    4.5450 H         1 GVN1351     0.0000 
     35 H           4.4463    9.7676    1.2934 H         1 GVN1351     0.0000 
     36 H          12.8184    7.2169    3.9665 H         1 GVN1351     0.0000 
     37 H          12.7971    6.7636    2.4238 H         1 GVN1351     0.0000 
     38 H          13.0453    8.3060    2.8053 H         1 GVN1351     0.0000 
@<TRIPOS>BOND
     1    2    1 1    
     2   36    1 1    
     3   37    1 1    
     4   38    1 1    
     5    3    2 1    
     6   22    2 1    
     7   23    2 1    
     8    4    3 1    
     9   11    3 1    
    10   24    3 1    
    11    5    4 ar   
    12   10    4 ar   
    13    6    5 ar   
    14   25    5 1    
    15    7    6 ar   
    16   26    6 1    
    17    8    7 1    
    18    9    7 ar   
    19   10    9 ar   
    20   27    9 1    
    21   28   10 1    
    22   12   11 ar   
    23   16   11 ar   
    24   13   12 ar   
    25   29   12 1    
    26   14   13 ar   
    27   30   13 1    
    28   15   14 ar   
    29   17   14 1    
    30   16   15 ar   
    31   31   15 1    
    32   32   16 1    
    33   18   17 2    
    34   21   17 1    
    35   19   18 1    
    36   33   18 1    
    37   20   19 1    
    38   34   19 1    
    39   21   20 2    
    40   35   21 1    
@<TRIPOS>SUBSTRUCTURE
     1 GVN1351     1 GROUP   
@<TRIPOS>SET

