#    Name: 2uzo_C62_1_INTS_M
#    Modification time : Tue Mar 25 00:36:35 2014

@<TRIPOS>MOLECULE
2uzo_C62_1_INTS_M
   47     0     9     0     0
SMALL
NO_CHARGES


@<TRIPOS>ATOM
      1 N           5.7030   -8.4590    9.4925 N.am      2 SEC2        0.0000 
      2 N           5.7300   -9.3600    8.2290 N.am      8 SEL2        0.0000 
      3 N           5.6760   -7.5580   10.7560 N.am      5 SEP2        0.0000 
      4 O           7.7615   -7.9050    7.0935 O.2       1 ALC1        0.0000 
      5 O           7.4760   -9.4520    6.3660 O.2       7 ALL1        0.0000 
      6 O           8.0470   -6.3580    7.8210 O.2       4 ALP1        0.0000 
      7 CA          7.4425  -11.9925   12.2615 C.3       3 GLC5        0.0000 
      8 CA          9.0770  -11.1160   11.0280 C.3       9 GLL5        0.0000 
      9 CA          5.8080  -12.8690   13.4950 C.3       6 GLP5        0.0000 
     10 CA          9.6210  -11.1930   14.7160 C.3       3 GLC5        0.0000 
     11 CA         11.1140  -10.7680   13.2160 C.3       9 GLL5        0.0000 
     12 CA          8.1280  -11.6180   16.2160 C.3       6 GLP5        0.0000 
     13 CA         12.2405   -7.1780   13.1695 C.3       3 GLC5        0.0000 
     14 CA         13.7070   -6.9050   11.5770 C.3       9 GLL5        0.0000 
     15 CA         10.7740   -7.4510   14.7620 C.3       6 GLP5        0.0000 
     16 O          16.8170   -5.0955   11.9020 O.2       1 ALC1        0.0000 
     17 O          16.0930   -6.1880   11.9120 O.2       7 ALL1        0.0000 
     18 O          17.5410   -4.0030   11.8920 O.2       4 ALP1        0.0000 
     19 CA         10.0505  -10.9652    8.8758 C.3       3 GLC5        0.0000 
     20 CA          9.1570   -9.2210    8.9690 C.3       9 GLL5        0.0000 
     21 CA         11.4480  -12.2340    8.7740 C.3       6 GLP5        0.0000 
     22 CA          8.4928   -7.5382    9.7568 C.3       3 GLC5        0.0000 
     23 CA          7.3440   -5.8570   10.0470 C.3       6 GLP5        0.0000 
     24 CA          9.7962   -8.1640   11.5890 C.3       3 GLC5        0.0000 
     25 CA         10.0950  -10.1700   10.9880 C.3       9 GLL5        0.0000 
     26 CA          9.4820   -6.6340   12.7020 C.3       6 GLP5        0.0000 
     27 CA         10.0175  -11.6760    9.6502 C.3       3 GLC5        0.0000 
     28 CA          6.7420  -10.2890   10.9169 C.3       3 GLC5        0.0000 
     29 CA          4.8840   -9.6970   11.5670 C.3       6 GLP5        0.0000 
     30 CA         11.0349  -11.0760   10.0092 C.3       3 GLC5        0.0000 
     31 CA         10.1260   -9.2180    9.9640 C.3       9 GLL5        0.0000 
     32 CA         11.6502  -11.9015   15.2175 C.3       3 GLC5        0.0000 
     33 CA         11.6150  -13.2030   16.9000 C.3       6 GLP5        0.0000 
     34 CA         12.9179  -11.6255   11.9742 C.3       3 GLC5        0.0000 
     35 CA         12.9620   -9.5880   13.0320 C.3       9 GLL5        0.0000 
     36 CA         13.5120  -13.1570   10.6650 C.3       6 GLP5        0.0000 
     37 CA         15.5325   -9.7863   11.7300 C.3       3 GLC5        0.0000 
     38 CA         14.2460   -8.9760   13.3250 C.3       9 GLL5        0.0000 
     39 CA         16.6040  -11.1690   10.4910 C.3       6 GLP5        0.0000 
     40 CA         14.3444  -10.9290   13.7270 C.3       3 GLC5        0.0000 
     41 CA         15.2610  -12.3650   14.0700 C.3       6 GLP5        0.0000 
     42 CA         12.6175   -7.9272   13.8655 C.3       3 GLC5        0.0000 
     43 CA         13.8838   -5.8505   13.5360 C.3       3 GLC5        0.0000 
     44 CA         14.6760   -7.8310   12.6130 C.3       9 GLL5        0.0000 
     45 CA         13.5760   -4.3330   14.9770 C.3       6 GLP5        0.0000 
     46 CA         11.3202   -8.8417   13.8954 C.3       3 GLC5        0.0000 
     47 CA         12.2570  -10.4320   13.8540 C.3       9 GLL5        0.0000 
@<TRIPOS>BOND
@<TRIPOS>SUBSTRUCTURE
     1 ALC1        4 GROUP        1 X    ALC  0     ROOT ALC X 1
     2 SEC2        1 GROUP        1 X    SEC  0     **** SEC X 2
     3 GLC5        7 GROUP        1 X    GLC  0     **** GLC X 6
     4 ALP1        6 GROUP        1 Y    ALP  0     ROOT ALP Y 8
     5 SEP2        3 GROUP        1 Y    SEP  0     **** SEP Y 9
     6 GLP5        9 GROUP        1 Y    GLP  0     **** GLP Y 13
     7 ALL1        5 GROUP        1 Z    ALL  0     ROOT ALL Z 15
     8 SEL2        2 GROUP        1 Z    SEL  0     **** SEL Z 16
     9 GLL5        8 GROUP        1 Z    GLL  0     **** GLL Z 20
@<TRIPOS>SET

