#    Name: 2uzo_C62_1_ligand
#    Modification time : Tue Mar 25 00:36:35 2014

@<TRIPOS>MOLECULE
2uzo_C62_1_ligand
   33    35     1     0     0
SMALL
NO_CHARGES


@<TRIPOS>ATOM
      1 O4          6.4560  -11.5500    7.4290 O.2       1 C621297     0.0000 
      2 S2          6.8920  -10.1480    7.7320 S.o2      1 C621297     0.0000 
      3 O3          5.7300   -9.3600    8.2290 O.2       1 C621297     0.0000 
      4 N6          7.4760   -9.4520    6.3660 N.pl3     1 C621297     0.0000 
      5 C16         8.1490  -10.1720    8.9860 C.ar      1 C621297     0.0000 
      6 C15         9.1570   -9.2210    8.9690 C.ar      1 C621297     0.0000 
      7 C14        10.1260   -9.2180    9.9640 C.ar      1 C621297     0.0000 
      8 C13        10.0950  -10.1700   10.9880 C.ar      1 C621297     0.0000 
      9 C18         9.0770  -11.1160   11.0280 C.ar      1 C621297     0.0000 
     10 C17         8.0970  -11.1200   10.0250 C.ar      1 C621297     0.0000 
     11 C4         11.1330  -10.1420   12.0130 C.2       1 C621297     0.0000 
     12 O2         12.2860   -9.4300   11.9350 O.3       1 C621297     0.0000 
     13 C3         11.1140  -10.7680   13.2160 C.2       1 C621297     0.0000 
     14 C2         12.2570  -10.4320   13.8540 C.2       1 C621297     0.0000 
     15 C1         12.9620   -9.5880   13.0320 C.2       1 C621297     0.0000 
     16 C6         14.2460   -8.9760   13.3250 C.2       1 C621297     0.0000 
     17 C7         14.6760   -7.8310   12.6130 C.2       1 C621297     0.0000 
     18 S1         13.7070   -6.9050   11.5770 S.3       1 C621297     0.0000 
     19 C9         14.9500   -5.8580   11.2450 C.2       1 C621297     0.0000 
     20 N2         16.0930   -6.1880   11.9120 N.am      1 C621297     0.0000 
     21 C8         15.9580   -7.3060   12.6900 C.2       1 C621297     0.0000 
     22 O1         16.8650   -7.7910   13.3690 O.2       1 C621297     0.0000 
     23 O5         14.8490   -4.8900   10.4880 O.2       1 C621297     0.0000 
     24 H           7.8402   -8.5260    6.4651 H         1 C621297     0.0000 
     25 H           7.4250  -10.0047    5.5342 H         1 C621297     0.0000 
     26 H           9.1887   -8.5162    8.2194 H         1 C621297     0.0000 
     27 H          10.8755   -8.5105    9.9514 H         1 C621297     0.0000 
     28 H           9.0383  -11.8068   11.7818 H         1 C621297     0.0000 
     29 H           7.3427  -11.8116   10.0465 H         1 C621297     0.0000 
     30 H          10.4227  -11.3376   13.5468 H         1 C621297     0.0000 
     31 H          12.5360  -10.7227   14.7213 H         1 C621297     0.0000 
     32 H          14.8296   -9.3860   14.0512 H         1 C621297     0.0000 
     33 H          16.9356   -5.6731   11.8422 H         1 C621297     0.0000 
@<TRIPOS>BOND
     1    2    1 2    
     2    3    2 2    
     3    4    2 1    
     4    5    2 1    
     5   24    4 1    
     6   25    4 1    
     7    6    5 ar   
     8   10    5 ar   
     9    7    6 ar   
    10   26    6 1    
    11    8    7 ar   
    12   27    7 1    
    13    9    8 ar   
    14   11    8 1    
    15   10    9 ar   
    16   28    9 1    
    17   29   10 1    
    18   12   11 1    
    19   13   11 2    
    20   15   12 1    
    21   14   13 1    
    22   30   13 1    
    23   15   14 2    
    24   31   14 1    
    25   16   15 1    
    26   17   16 2    
    27   32   16 1    
    28   18   17 1    
    29   21   17 1    
    30   19   18 1    
    31   20   19 am   
    32   23   19 2    
    33   21   20 am   
    34   33   20 1    
    35   22   21 2    
@<TRIPOS>SUBSTRUCTURE
     1 C621297     1 GROUP   
@<TRIPOS>SET

