#    Name: 1w82_L10_1_INTS_M
#    Modification time : Tue Mar 25 08:46:12 2014

@<TRIPOS>MOLECULE
1w82_L10_1_INTS_M
   83     0     9     0     0
SMALL
NO_CHARGES


@<TRIPOS>ATOM
      1 CA          3.6450   10.0875   29.4020 C.3       3 GLC5        0.0000 
      2 CA          4.8900    9.7710   30.9510 C.3       9 GLL5        0.0000 
      3 CA          2.4000   10.4040   27.8530 C.3       6 GLP5        0.0000 
      4 CA          4.1965    8.3395   30.5110 C.3       3 GLC5        0.0000 
      5 CA          3.5030    6.9080   30.0710 C.3       6 GLP5        0.0000 
      6 CA          5.9335    9.0035   29.1145 C.3       3 GLC5        0.0000 
      7 CA          6.9770    8.2360   27.2780 C.3       6 GLP5        0.0000 
      8 CA          3.9835   13.8940   33.8965 C.3       3 GLC5        0.0000 
      9 CA          5.2550   12.3190   33.9510 C.3       9 GLL5        0.0000 
     10 CA          2.7120   15.4690   33.8420 C.3       6 GLP5        0.0000 
     11 O           8.0260   14.6240   34.2915 O.2       1 ALC1        0.0000 
     12 O           7.2840   13.4230   34.8490 O.2       7 ALL1        0.0000 
     13 O           8.7680   15.8250   33.7340 O.2       4 ALP1        0.0000 
     14 N           4.8945   13.8970   37.3970 N.am      2 SEC2        0.0000 
     15 N           5.9870   13.3850   36.7030 N.am      8 SEL2        0.0000 
     16 N           3.8020   14.4090   38.0910 N.am      5 SEP2        0.0000 
     17 O           8.1960   15.3755   35.1440 O.2       1 ALC1        0.0000 
     18 O           7.6240   14.9260   36.5540 O.2       7 ALL1        0.0000 
     19 CA          7.2000   12.6715   39.1170 C.3       3 GLC5        0.0000 
     20 CA          7.3800   14.7730   38.9880 C.3       9 GLL5        0.0000 
     21 CA          7.0200   10.5700   39.2460 C.3       6 GLP5        0.0000 
     22 CA          8.3730   17.1940   43.7610 C.3       3 GLC5        0.0000 
     23 CA          7.0550   16.5960   42.2890 C.3       9 GLL5        0.0000 
     24 CA          9.6910   17.7920   45.2330 C.3       6 GLP5        0.0000 
     25 CA         10.3000   15.7435   41.6195 C.3       3 GLC5        0.0000 
     26 CA          8.5890   14.6270   41.9220 C.3       9 GLL5        0.0000 
     27 CA         12.0110   16.8600   41.3170 C.3       6 GLP5        0.0000 
     28 CA          9.7640   13.3515   42.9835 C.3       3 GLC5        0.0000 
     29 CA         10.9390   12.0760   44.0450 C.3       6 GLP5        0.0000 
     30 CA          6.6185   12.3135   42.4885 C.3       3 GLC5        0.0000 
     31 CA          6.1220   14.3520   41.7140 C.3       9 GLL5        0.0000 
     32 CA          7.1150   10.2750   43.2630 C.3       6 GLP5        0.0000 
     33 CA          4.4220   13.6640   42.6340 C.3       3 GLC5        0.0000 
     34 CA          2.7220   12.9760   43.5540 C.3       6 GLP5        0.0000 
     35 CA          4.8330   13.3645   40.5545 C.3       3 GLC5        0.0000 
     36 CA          3.5440   12.3770   39.3950 C.3       6 GLP5        0.0000 
     37 CA          9.7885   21.4305   34.5460 C.3       3 GLC5        0.0000 
     38 CA          8.8340   19.9350   35.5660 C.3       9 GLL5        0.0000 
     39 CA         10.7430   22.9260   33.5260 C.3       6 GLP5        0.0000 
     40 CA         10.9750   21.0415   37.8495 C.3       3 GLC5        0.0000 
     41 CA          9.5520   19.7470   36.7290 C.3       9 GLL5        0.0000 
     42 CA         12.3980   22.3360   38.9700 C.3       6 GLP5        0.0000 
     43 CA         10.0155   17.5685   36.1525 C.3       3 GLC5        0.0000 
     44 CA          9.2360   18.7020   37.5710 C.3       9 GLL5        0.0000 
     45 CA         10.7950   16.4350   34.7340 C.3       6 GLP5        0.0000 
     46 CA          6.4125   10.4010   34.1427 C.3       3 GLC5        0.0000 
     47 CA          5.5580   10.8320   32.1200 C.3       9 GLL5        0.0000 
     48 CA          6.5850    9.8580   36.1720 C.3       6 GLP5        0.0000 
     49 CA          6.5535   11.7619   30.3301 C.3       3 GLC5        0.0000 
     50 CA          6.9220   11.0560   32.1070 C.3       9 GLL5        0.0000 
     51 CA          7.0340   12.8450   28.8390 C.3       6 GLP5        0.0000 
     52 CA          9.0985   11.4492   31.6780 C.3       3 GLC5        0.0000 
     53 CA         11.0080   11.4100   30.7920 C.3       6 GLP5        0.0000 
     54 CA          7.1800   13.6487   32.2435 C.3       3 GLC5        0.0000 
     55 CA          7.4560   11.9210   33.0210 C.3       9 GLL5        0.0000 
     56 CA          7.3180   15.0560   30.9980 C.3       6 GLP5        0.0000 
     57 CA          8.8480   12.3792   34.3490 C.3       3 GLC5        0.0000 
     58 CA         10.6540   12.5170   35.2090 C.3       6 GLP5        0.0000 
     59 CA          6.8135   11.0497   34.8305 C.3       3 GLC5        0.0000 
     60 CA          5.7858   10.8710   34.8312 C.3       3 GLC5        0.0000 
     61 CA          5.6463    9.1784   33.0293 C.3       3 GLC5        0.0000 
     62 CA          4.7180   11.4490   33.0300 C.3       9 GLL5        0.0000 
     63 CA          5.8970    7.2930   33.6330 C.3       6 GLP5        0.0000 
     64 CA          3.4997   11.6520   34.7488 C.3       3 GLC5        0.0000 
     65 CA          2.0130   11.4200   36.0070 C.3       6 GLP5        0.0000 
     66 CA          8.6923   13.7417   38.0130 C.3       3 GLC5        0.0000 
     67 CA          7.6090   15.4520   37.8440 C.3       9 GLL5        0.0000 
     68 CA          9.8900   12.3710   37.6100 C.3       6 GLP5        0.0000 
     69 CA          5.8338   15.9842   38.3560 C.3       3 GLC5        0.0000 
     70 CA          4.1730   16.8560   38.2960 C.3       6 GLP5        0.0000 
     71 CA          4.9202   15.7468   42.3817 C.3       3 GLC5        0.0000 
     72 CA          3.1930   16.3400   42.9620 C.3       6 GLP5        0.0000 
     73 CA          9.9090   18.0455   39.0343 C.3       3 GLC5        0.0000 
     74 CA          8.1960   17.8280   37.2860 C.3       9 GLL5        0.0000 
     75 CA         11.1020   17.8260   40.6400 C.3       6 GLP5        0.0000 
     76 CA          6.0060   17.3968   37.4960 C.3       3 GLC5        0.0000 
     77 CA          5.8180   18.8072   34.6492 C.3       3 GLC5        0.0000 
     78 CA          7.4820   18.0470   36.1060 C.3       9 GLL5        0.0000 
     79 CA          3.9960   19.0490   33.6190 C.3       6 GLP5        0.0000 
     80 CA          9.3068   17.4729   35.3543 C.3       3 GLC5        0.0000 
     81 CA          7.7980   19.0840   35.2530 C.3       9 GLL5        0.0000 
     82 CA         10.5385   18.6640   35.4283 C.3       3 GLC5        0.0000 
     83 CA         11.8840   17.4870   34.7090 C.3       6 GLP5        0.0000 
@<TRIPOS>BOND
@<TRIPOS>SUBSTRUCTURE
     1 ALC1       11 GROUP        1 X    ALC  0     ROOT ALC X 1
     2 SEC2       14 GROUP        1 X    SEC  0     **** SEC X 2
     3 GLC5        1 GROUP        1 X    GLC  0     **** GLC X 6
     4 ALP1       13 GROUP        1 Y    ALP  0     ROOT ALP Y 8
     5 SEP2       16 GROUP        1 Y    SEP  0     **** SEP Y 9
     6 GLP5        3 GROUP        1 Y    GLP  0     **** GLP Y 13
     7 ALL1       12 GROUP        1 Z    ALL  0     ROOT ALL Z 15
     8 SEL2       15 GROUP        1 Z    SEL  0     **** SEL Z 16
     9 GLL5        2 GROUP        1 Z    GLL  0     **** GLL Z 20
@<TRIPOS>SET

