#    Name: 1w82_L10_1_ligand
#    Modification time : Tue Mar 25 08:46:12 2014

@<TRIPOS>MOLECULE
1w82_L10_1_ligand
   47    49     1     0     0
SMALL
NO_CHARGES


@<TRIPOS>ATOM
      1 CL16        4.8900    9.7710   30.9510 Cl        1 L101356     0.0000 
      2 C15         5.5580   10.8320   32.1200 C.ar      1 L101356     0.0000 
      3 C14         6.9220   11.0560   32.1070 C.ar      1 L101356     0.0000 
      4 C13         7.4560   11.9210   33.0210 C.ar      1 L101356     0.0000 
      5 C17         4.7180   11.4490   33.0300 C.ar      1 L101356     0.0000 
      6 C18         5.2550   12.3190   33.9510 C.ar      1 L101356     0.0000 
      7 C12         6.6280   12.5620   33.9570 C.ar      1 L101356     0.0000 
      8 N11         7.2840   13.4230   34.8490 N.am      1 L101356     0.0000 
      9 C9          6.8910   13.8890   36.0640 C.2       1 L101356     0.0000 
     10 O10         5.9870   13.3850   36.7030 O.2       1 L101356     0.0000 
     11 N8          7.6240   14.9260   36.5540 N.am      1 L101356     0.0000 
     12 C7          7.6090   15.4520   37.8440 C.2       1 L101356     0.0000 
     13 C6          7.3800   14.7730   38.9880 C.2       1 L101356     0.0000 
     14 N19         7.8820   16.7540   38.1660 N.pl3     1 L101356     0.0000 
     15 N20         7.7840   16.8430   39.5490 N.2       1 L101356     0.0000 
     16 C5          7.4760   15.6710   40.0350 C.2       1 L101356     0.0000 
     17 C2          7.2910   15.3140   41.4890 C.3       1 L101356     0.0000 
     18 C4          7.0550   16.5960   42.2890 C.3       1 L101356     0.0000 
     19 C3          8.5890   14.6270   41.9220 C.3       1 L101356     0.0000 
     20 C1          6.1220   14.3520   41.7140 C.3       1 L101356     0.0000 
     21 C21         8.1960   17.8280   37.2860 C.ar      1 L101356     0.0000 
     22 C26         7.4820   18.0470   36.1060 C.ar      1 L101356     0.0000 
     23 C25         7.7980   19.0840   35.2530 C.ar      1 L101356     0.0000 
     24 C24         8.8340   19.9350   35.5660 C.ar      1 L101356     0.0000 
     25 C23         9.5520   19.7470   36.7290 C.ar      1 L101356     0.0000 
     26 C22         9.2360   18.7020   37.5710 C.ar      1 L101356     0.0000 
     27 H           7.5164   10.5786   31.4214 H         1 L101356     0.0000 
     28 H           8.4694   12.1149   33.0369 H         1 L101356     0.0000 
     29 H           3.7108   11.2585   33.0155 H         1 L101356     0.0000 
     30 H           4.6520   12.7930   34.6368 H         1 L101356     0.0000 
     31 H           8.2711   13.7672   34.4961 H         1 L101356     0.0000 
     32 H           8.3100   15.4121   35.8617 H         1 L101356     0.0000 
     33 H           7.1857   13.8430   39.0781 H         1 L101356     0.0000 
     34 H           6.6947   17.4092   35.8713 H         1 L101356     0.0000 
     35 H           7.2596   19.2203   34.3846 H         1 L101356     0.0000 
     36 H           9.0743   20.7131   34.9322 H         1 L101356     0.0000 
     37 H          10.3243   20.3878   36.9679 H         1 L101356     0.0000 
     38 H           9.7885   18.5616   38.4428 H         1 L101356     0.0000 
     39 H           7.8240   17.2302   42.2095 H         1 L101356     0.0000 
     40 H           6.2395   17.0836   41.9771 H         1 L101356     0.0000 
     41 H           6.9295   16.4081   43.2631 H         1 L101356     0.0000 
     42 H           9.3811   15.2278   41.8140 H         1 L101356     0.0000 
     43 H           8.5600   14.3499   42.8824 H         1 L101356     0.0000 
     44 H           8.7704   13.8034   41.3847 H         1 L101356     0.0000 
     45 H           6.2512   13.4896   41.2245 H         1 L101356     0.0000 
     46 H           6.0081   14.1258   42.6814 H         1 L101356     0.0000 
     47 H           5.2557   14.7404   41.3998 H         1 L101356     0.0000 
@<TRIPOS>BOND
     1    2    1 1    
     2    3    2 ar   
     3    5    2 ar   
     4    4    3 ar   
     5   27    3 1    
     6    7    4 ar   
     7   28    4 1    
     8    6    5 ar   
     9   29    5 1    
    10    7    6 ar   
    11   30    6 1    
    12    8    7 1    
    13    9    8 am   
    14   31    8 1    
    15   10    9 2    
    16   11    9 am   
    17   12   11 am   
    18   32   11 1    
    19   13   12 2    
    20   14   12 1    
    21   16   13 1    
    22   33   13 1    
    23   15   14 1    
    24   21   14 1    
    25   16   15 2    
    26   17   16 1    
    27   18   17 1    
    28   19   17 1    
    29   20   17 1    
    30   39   18 1    
    31   40   18 1    
    32   41   18 1    
    33   42   19 1    
    34   43   19 1    
    35   44   19 1    
    36   45   20 1    
    37   46   20 1    
    38   47   20 1    
    39   22   21 ar   
    40   26   21 ar   
    41   23   22 ar   
    42   34   22 1    
    43   24   23 ar   
    44   35   23 1    
    45   25   24 ar   
    46   36   24 1    
    47   26   25 ar   
    48   37   25 1    
    49   38   26 1    
@<TRIPOS>SUBSTRUCTURE
     1 L101356     1 GROUP   
@<TRIPOS>SET

