#    Name: 4hyp_1A1_3_INTS_M
#    Modification time : Tue Mar 25 02:00:30 2014

@<TRIPOS>MOLECULE
4hyp_1A1_3_INTS_M
   58     0     9     0     0
SMALL
NO_CHARGES


@<TRIPOS>ATOM
      1 CA        -14.7940  -34.2710   28.3950 C.3       3 GLC5        0.0000 
      2 CA        -13.3740  -33.0840   29.5770 C.3       9 GLL5        0.0000 
      3 CA        -16.2140  -35.4580   27.2130 C.3       6 GLP5        0.0000 
      4 CA        -13.6445  -34.1535   32.2625 C.3       3 GLC5        0.0000 
      5 CA        -12.4420  -33.5420   30.7020 C.3       9 GLL5        0.0000 
      6 CA        -14.8470  -34.7650   33.8230 C.3       6 GLP5        0.0000 
      7 CA        -11.4715  -35.4980   30.5670 C.3       3 GLC5        0.0000 
      8 CA        -10.5010  -37.4540   30.4320 C.3       6 GLP5        0.0000 
      9 CA        -10.6850  -33.4155   31.3875 C.3       3 GLC5        0.0000 
     10 CA         -8.9280  -33.2890   32.0730 C.3       6 GLP5        0.0000 
     11 CA        -14.8370  -33.5420   31.9900 C.3       3 GLC5        0.0000 
     12 CA        -13.6150  -32.6340   31.0140 C.3       9 GLL5        0.0000 
     13 CA        -16.0590  -34.4500   32.9660 C.3       6 GLP5        0.0000 
     14 O         -13.9550  -32.7410   27.0540 O.2       1 ALC1        0.0000 
     15 O         -13.2980  -31.7010   27.5180 O.2       7 ALL1        0.0000 
     16 O         -14.6120  -33.7810   26.5900 O.2       4 ALP1        0.0000 
     17 CA        -13.3470  -29.3490   27.8620 C.3       3 GLC5        0.0000 
     18 CA        -12.7560  -30.8390   26.5920 C.3       9 GLL5        0.0000 
     19 CA        -13.9380  -27.8590   29.1320 C.3       6 GLP5        0.0000 
     20 CA        -10.8870  -30.9775   26.2960 C.3       3 GLC5        0.0000 
     21 CA         -9.0180  -31.1160   26.0000 C.3       6 GLP5        0.0000 
     22 CA        -11.8475  -32.7275   26.6840 C.3       3 GLC5        0.0000 
     23 CA        -10.9390  -34.6160   26.7760 C.3       6 GLP5        0.0000 
     24 CA        -12.8125  -28.2940   27.6160 C.3       3 GLC5        0.0000 
     25 CA        -11.6870  -28.7290   26.1000 C.3       9 GLL5        0.0000 
     26 CA         -8.8595  -26.0360   27.5325 C.3       3 GLC5        0.0000 
     27 CA        -10.5380  -25.5520   26.5150 C.3       9 GLL5        0.0000 
     28 CA         -7.1810  -26.5200   28.5500 C.3       6 GLP5        0.0000 
     29 CA        -14.1635  -31.2025   22.9465 C.3       3 GLC5        0.0000 
     30 CA        -12.1010  -30.6510   22.6690 C.3       9 GLL5        0.0000 
     31 CA        -16.2260  -31.7540   23.2240 C.3       6 GLP5        0.0000 
     32 CA        -12.4450  -31.9430   20.8695 C.3       3 GLC5        0.0000 
     33 CA        -12.7890  -33.2350   19.0700 C.3       6 GLP5        0.0000 
     34 CA        -11.1185  -32.6630   22.5615 C.3       3 GLC5        0.0000 
     35 CA        -10.1360  -34.6750   22.4540 C.3       6 GLP5        0.0000 
     36 CA        -10.1705  -31.1365   23.1570 C.3       3 GLC5        0.0000 
     37 CA         -8.2400  -31.6220   23.6450 C.3       6 GLP5        0.0000 
     38 CA        -14.3895  -30.4850   24.2420 C.3       3 GLC5        0.0000 
     39 CA        -12.2290  -30.3750   24.3240 C.3       9 GLL5        0.0000 
     40 CA        -16.5500  -30.5950   24.1600 C.3       6 GLP5        0.0000 
     41 CA        -11.8195  -31.4105   19.5315 C.3       3 GLC5        0.0000 
     42 CA        -10.8500  -29.5860   19.9930 C.3       9 GLL5        0.0000 
     43 N         -10.0580  -30.6245   18.7035 N.am      2 SEC2        0.0000 
     44 N         -10.5100  -29.1560   18.7680 N.am      8 SEL2        0.0000 
     45 N          -9.6060  -32.0930   18.6390 N.am      5 SEP2        0.0000 
     46 CA        -15.3042  -32.6255   29.8298 C.3       3 GLC5        0.0000 
     47 CA        -17.1140  -32.3920   29.3640 C.3       6 GLP5        0.0000 
     48 CA        -11.5135  -33.6340   28.9958 C.3       3 GLC5        0.0000 
     49 CA        -10.1190  -33.9550   27.8520 C.3       6 GLP5        0.0000 
     50 CA        -12.6837  -32.4020   32.5030 C.3       3 GLC5        0.0000 
     51 CA        -12.3390  -31.7160   34.1480 C.3       6 GLP5        0.0000 
     52 CA        -10.4842  -30.3764   25.4285 C.3       3 GLC5        0.0000 
     53 CA         -9.3140  -29.2858   21.1207 C.3       3 GLC5        0.0000 
     54 CA        -10.9700  -28.6710   21.0440 C.3       9 GLL5        0.0000 
     55 CA         -7.7180  -29.4430   21.7230 C.3       6 GLP5        0.0000 
     56 CA         -8.9011  -28.0446   20.1958 C.3       3 GLC5        0.0000 
     57 CA        -10.4050  -26.8660   19.5520 C.3       9 GLL5        0.0000 
     58 CA         -7.2540  -28.7630   20.4540 C.3       6 GLP5        0.0000 
@<TRIPOS>BOND
@<TRIPOS>SUBSTRUCTURE
     1 ALC1       14 GROUP        1 X    ALC  0     ROOT ALC X 1
     2 SEC2       43 GROUP        1 X    SEC  0     **** SEC X 2
     3 GLC5        1 GROUP        1 X    GLC  0     **** GLC X 6
     4 ALP1       16 GROUP        1 Y    ALP  0     ROOT ALP Y 8
     5 SEP2       45 GROUP        1 Y    SEP  0     **** SEP Y 9
     6 GLP5        3 GROUP        1 Y    GLP  0     **** GLP Y 13
     7 ALL1       15 GROUP        1 Z    ALL  0     ROOT ALL Z 15
     8 SEL2       44 GROUP        1 Z    SEL  0     **** SEL Z 16
     9 GLL5        2 GROUP        1 Z    GLL  0     **** GLL Z 20
@<TRIPOS>SET

