#    Name: 4hyp_1A1_3_ligand
#    Modification time : Tue Mar 25 02:00:30 2014

@<TRIPOS>MOLECULE
4hyp_1A1_3_ligand
   39    43     1     0     0
SMALL
NO_CHARGES


@<TRIPOS>ATOM
      1 O9        -11.9600  -31.2410   29.2880 O.2       1 1A1301      0.0000 
      2 C8        -12.8170  -31.9320   28.7650 C.2       1 1A1301      0.0000 
      3 C10       -13.3740  -33.0840   29.5770 C.3       1 1A1301      0.0000 
      4 C12       -12.4420  -33.5420   30.7020 C.3       1 1A1301      0.0000 
      5 C11       -13.6150  -32.6340   31.0140 C.3       1 1A1301      0.0000 
      6 N7        -13.2980  -31.7010   27.5180 N.am      1 1A1301      0.0000 
      7 C6        -12.7560  -30.8390   26.5920 C.ar      1 1A1301      0.0000 
      8 N1        -12.7460  -31.1890   25.2870 N.ar      1 1A1301      0.0000 
      9 N5        -12.2510  -29.6280   26.9530 N.ar      1 1A1301      0.0000 
     10 C4        -11.6870  -28.7290   26.1000 C.ar      1 1A1301      0.0000 
     11 N22       -11.1930  -27.5600   26.4940 N.pl3     1 1A1301      0.0000 
     12 C26       -11.0630  -26.5340   25.6820 C.2       1 1A1301      0.0000 
     13 C25       -10.5380  -25.5520   26.5150 C.2       1 1A1301      0.0000 
     14 N24       -10.3970  -26.0380   27.7720 N.2       1 1A1301      0.0000 
     15 C23       -10.8050  -27.3240   27.7510 C.2       1 1A1301      0.0000 
     16 C3        -11.6570  -29.0680   24.6800 C.ar      1 1A1301      0.0000 
     17 N13       -11.1990  -28.4110   23.5780 N.2       1 1A1301      0.0000 
     18 C14       -11.3460  -29.0980   22.4160 C.2       1 1A1301      0.0000 
     19 S15       -12.1010  -30.6510   22.6690 S.3       1 1A1301      0.0000 
     20 C2        -12.2290  -30.3750   24.3240 C.ar      1 1A1301      0.0000 
     21 C16       -10.9700  -28.6710   21.0440 C.ar      1 1A1301      0.0000 
     22 C21       -10.8500  -29.5860   19.9930 C.ar      1 1A1301      0.0000 
     23 N20       -10.5100  -29.1560   18.7680 N.ar      1 1A1301      0.0000 
     24 C19       -10.3020  -27.8290   18.5400 C.ar      1 1A1301      0.0000 
     25 C18       -10.4050  -26.8660   19.5520 C.ar      1 1A1301      0.0000 
     26 C17       -10.7430  -27.3050   20.8290 C.ar      1 1A1301      0.0000 
     27 H         -13.9506  -33.7351   29.3631 H         1 1A1301      0.0000 
     28 H         -11.6627  -33.0073   30.6586 H         1 1A1301      0.0000 
     29 H         -12.6887  -34.4262   30.9309 H         1 1A1301      0.0000 
     30 H         -14.3121  -33.1684   31.3688 H         1 1A1301      0.0000 
     31 H         -13.2861  -31.7495   31.0965 H         1 1A1301      0.0000 
     32 H         -14.1833  -32.2364   27.2181 H         1 1A1301      0.0000 
     33 H         -11.2571  -26.4392   24.7786 H         1 1A1301      0.0000 
     34 H         -10.3130  -24.6588   26.2210 H         1 1A1301      0.0000 
     35 H         -10.8119  -27.9306   28.4836 H         1 1A1301      0.0000 
     36 H         -11.0282  -30.5866   20.1855 H         1 1A1301      0.0000 
     37 H         -10.0545  -27.4996   17.5753 H         1 1A1301      0.0000 
     38 H         -10.2392  -25.8890   19.3579 H         1 1A1301      0.0000 
     39 H         -10.8255  -26.6436   21.6018 H         1 1A1301      0.0000 
@<TRIPOS>BOND
     1    2    1 2    
     2    3    2 1    
     3    6    2 am   
     4    4    3 1    
     5    5    3 1    
     6   27    3 1    
     7    5    4 1    
     8   28    4 1    
     9   29    4 1    
    10   30    5 1    
    11   31    5 1    
    12    7    6 1    
    13   32    6 1    
    14    8    7 ar   
    15    9    7 ar   
    16   20    8 ar   
    17   10    9 ar   
    18   11   10 1    
    19   16   10 ar   
    20   12   11 1    
    21   15   11 1    
    22   13   12 2    
    23   33   12 1    
    24   14   13 1    
    25   34   13 1    
    26   15   14 2    
    27   35   15 1    
    28   17   16 1    
    29   20   16 ar   
    30   18   17 2    
    31   19   18 1    
    32   21   18 1    
    33   20   19 1    
    34   22   21 ar   
    35   26   21 ar   
    36   23   22 ar   
    37   36   22 1    
    38   24   23 ar   
    39   25   24 ar   
    40   37   24 1    
    41   26   25 ar   
    42   38   25 1    
    43   39   26 1    
@<TRIPOS>SUBSTRUCTURE
     1 1A1301      1 GROUP   
@<TRIPOS>SET

