#    Name: 3osi_XDH_1_INTS_M
#    Modification time : Tue Mar 25 05:16:17 2014

@<TRIPOS>MOLECULE
3osi_XDH_1_INTS_M
   63     0     6     0     0
SMALL
NO_CHARGES


@<TRIPOS>ATOM
      1 CA         16.0645   15.0630    8.6720 C.3       2 GLC5        0.0000 
      2 CA         15.7440   16.3290    9.8580 C.3       6 GLL5        0.0000 
      3 CA         16.3850   13.7970    7.4860 C.3       4 GLP5        0.0000 
      4 CA         18.3605   19.3065   10.6385 C.3       2 GLC5        0.0000 
      5 CA         17.2780   18.1900    9.8520 C.3       6 GLL5        0.0000 
      6 CA         19.4430   20.4230   11.4250 C.3       4 GLP5        0.0000 
      7 N          10.6425   20.7670    7.9510 N.am      1 SEC2        0.0000 
      8 N          11.7550   21.1770    9.1510 N.am      5 SEL2        0.0000 
      9 N           9.5300   20.3570    6.7510 N.am      3 SEP2        0.0000 
     10 CA         13.9330   18.5410   16.5915 C.3       2 GLC5        0.0000 
     11 CA         13.9280   17.3240   15.2000 C.3       6 GLL5        0.0000 
     12 CA         13.9380   19.7580   17.9830 C.3       4 GLP5        0.0000 
     13 CA         12.3195   17.3505   16.4555 C.3       2 GLC5        0.0000 
     14 CA         10.7110   17.3770   17.7110 C.3       4 GLP5        0.0000 
     15 CA         14.4060   15.7915   16.3950 C.3       2 GLC5        0.0000 
     16 CA         14.8840   14.2590   17.5900 C.3       4 GLP5        0.0000 
     17 CA         21.0675   18.0705   13.6850 C.3       2 GLC5        0.0000 
     18 CA         19.2610   17.2560   14.4820 C.3       6 GLL5        0.0000 
     19 CA         22.8740   18.8850   12.8880 C.3       4 GLP5        0.0000 
     20 CA         20.3535   16.4460   13.1915 C.3       2 GLC5        0.0000 
     21 CA         21.4460   15.6360   11.9010 C.3       4 GLP5        0.0000 
     22 CA          9.5910   16.9450    8.2620 C.3       2 GLC5        0.0000 
     23 CA         10.9410   18.3880    9.1160 C.3       6 GLL5        0.0000 
     24 CA          8.2410   15.5020    7.4080 C.3       4 GLP5        0.0000 
     25 CA         11.2985   16.3055    9.2245 C.3       2 GLC5        0.0000 
     26 CA         11.6560   14.2230    9.3330 C.3       4 GLP5        0.0000 
     27 CA          9.6225   18.9775    7.9065 C.3       2 GLC5        0.0000 
     28 CA          8.3040   19.5670    6.6970 C.3       4 GLP5        0.0000 
     29 CA         18.8675   16.0295   11.7685 C.3       2 GLC5        0.0000 
     30 CA         17.4920   17.4770   12.4400 C.3       6 GLL5        0.0000 
     31 CA         20.2430   14.5820   11.0970 C.3       4 GLP5        0.0000 
     32 CA         12.6260   16.1460    9.5735 C.3       2 GLC5        0.0000 
     33 CA         13.5960   18.0690    9.8140 C.3       6 GLL5        0.0000 
     34 CA         13.5860   18.5210    7.9115 C.3       2 GLC5        0.0000 
     35 CA         13.5760   18.9730    6.0090 C.3       4 GLP5        0.0000 
     36 CA         14.4530   20.3105    7.8810 C.3       2 GLC5        0.0000 
     37 CA         14.0580   20.8020    9.7440 C.3       6 GLL5        0.0000 
     38 CA         14.8480   19.8190    6.0180 C.3       4 GLP5        0.0000 
     39 CA         17.8245   18.9865   11.6705 C.3       2 GLC5        0.0000 
     40 CA         16.2060   17.5500   11.9160 C.3       6 GLL5        0.0000 
     41 CA         15.5945   15.2730   10.7985 C.3       2 GLC5        0.0000 
     42 CA         16.0100   17.6710   10.4420 C.3       6 GLL5        0.0000 
     43 CA         15.3120   13.5460   11.4470 C.3       4 GLP5        0.0000 
     44 CA         16.2952   18.3195    8.2995 C.3       2 GLC5        0.0000 
     45 CA         16.0130   19.0440    6.5980 C.3       4 GLP5        0.0000 
     46 CA         13.2178   21.0785   11.2423 C.3       2 GLC5        0.0000 
     47 CA         12.2160   20.5120   12.7650 C.3       4 GLP5        0.0000 
     48 CA         11.9808   19.5900   11.0340 C.3       2 GLC5        0.0000 
     49 CA         12.5500   18.9480    9.4900 C.3       6 GLL5        0.0000 
     50 CA         12.6608   18.8205    7.6560 C.3       2 GLC5        0.0000 
     51 CA         14.1085   19.2001   13.6880 C.3       2 GLC5        0.0000 
     52 CA         15.1050   17.4980   12.7630 C.3       6 GLL5        0.0000 
     53 CA         13.3600   20.9750   13.6610 C.3       4 GLP5        0.0000 
     54 CA         15.4838   15.5350   11.8933 C.3       2 GLC5        0.0000 
     55 CA         18.5135   19.0589   13.2287 C.3       2 GLC5        0.0000 
     56 CA         19.0470   20.7270   13.1640 C.3       4 GLP5        0.0000 
     57 CA         17.4393   15.3510   13.0570 C.3       2 GLC5        0.0000 
     58 CA         17.6750   17.3530   13.8120 C.3       6 GLL5        0.0000 
     59 CA         17.2950   13.2870   12.9880 C.3       4 GLP5        0.0000 
     60 CA         15.4948   19.1500    8.3420 C.3       2 GLC5        0.0000 
     61 CA         15.0890   19.9400   10.0670 C.3       6 GLL5        0.0000 
     62 CA         13.2511   19.5873   11.3575 C.3       2 GLC5        0.0000 
     63 CA         14.8640   18.5720   10.1050 C.3       6 GLL5        0.0000 
@<TRIPOS>BOND
@<TRIPOS>SUBSTRUCTURE
     1 SEC2        7 GROUP        1 X    SEC  0     ROOT SEC X 2
     2 GLC5        1 GROUP        1 X    GLC  0     **** GLC X 6
     3 SEP2        9 GROUP        1 Y    SEP  0     ROOT SEP Y 9
     4 GLP5        3 GROUP        1 Y    GLP  0     **** GLP Y 13
     5 SEL2        8 GROUP        1 Z    SEL  0     ROOT SEL Z 16
     6 GLL5        2 GROUP        1 Z    GLL  0     **** GLL Z 20
@<TRIPOS>SET

