#    Name: 3osi_XDH_1_ligand
#    Modification time : Tue Mar 25 05:16:17 2014

@<TRIPOS>MOLECULE
3osi_XDH_1_ligand
   31    32     1     0     0
SMALL
NO_CHARGES


@<TRIPOS>ATOM
      1 CAA        15.7440   16.3290    9.8580 C.3       1 XDH1        0.0000 
      2 CAB        17.2780   18.1900    9.8520 C.3       1 XDH1        0.0000 
      3 OAC        16.7510   17.1800   16.0150 O.co2     1 XDH1        0.0000 
      4 OAD        11.7550   21.1770    9.1510 O.co2     1 XDH1        0.0000 
      5 CLAE       13.9280   17.3240   15.2000 Cl        1 XDH1        0.0000 
      6 CLAF       19.2610   17.2560   14.4820 Cl        1 XDH1        0.0000 
      7 CLAG       14.3810   22.4880    9.6950 Cl        1 XDH1        0.0000 
      8 CLAH       10.9410   18.3880    9.1160 Cl        1 XDH1        0.0000 
      9 CAI        15.1050   17.4980   12.7630 C.ar      1 XDH1        0.0000 
     10 CAJ        17.4920   17.4770   12.4400 C.ar      1 XDH1        0.0000 
     11 CAK        15.0890   19.9400   10.0670 C.ar      1 XDH1        0.0000 
     12 CAL        13.5960   18.0690    9.8140 C.ar      1 XDH1        0.0000 
     13 CAM        16.5740   17.3060   14.6560 C.ar      1 XDH1        0.0000 
     14 CAN        12.7890   20.3160    9.4580 C.ar      1 XDH1        0.0000 
     15 CAO        15.2900   17.3810   14.1340 C.ar      1 XDH1        0.0000 
     16 CAP        17.6750   17.3530   13.8120 C.ar      1 XDH1        0.0000 
     17 CAQ        14.0580   20.8020    9.7440 C.ar      1 XDH1        0.0000 
     18 CAR        12.5500   18.9480    9.4900 C.ar      1 XDH1        0.0000 
     19 CAS        16.2060   17.5500   11.9160 C.ar      1 XDH1        0.0000 
     20 CAT        14.8640   18.5720   10.1050 C.ar      1 XDH1        0.0000 
     21 CAU        16.0100   17.6710   10.4420 C.3       1 XDH1        0.0000 
     22 H          14.1544   17.5462   12.3736 H         1 XDH1        0.0000 
     23 H          18.3056   17.5147   11.8132 H         1 XDH1        0.0000 
     24 H          16.0262   20.3119   10.2801 H         1 XDH1        0.0000 
     25 H          13.4236   17.0587    9.8355 H         1 XDH1        0.0000 
     26 H          16.4840   15.6855   10.0538 H         1 XDH1        0.0000 
     27 H          14.9026   15.9269   10.2192 H         1 XDH1        0.0000 
     28 H          15.6462   16.3694    8.8636 H         1 XDH1        0.0000 
     29 H          18.0533   17.5909   10.0521 H         1 XDH1        0.0000 
     30 H          17.2190   18.2705    8.8570 H         1 XDH1        0.0000 
     31 H          17.5088   19.0962   10.2062 H         1 XDH1        0.0000 
@<TRIPOS>BOND
     1   21    1 1    
     2   26    1 1    
     3   27    1 1    
     4   28    1 1    
     5   21    2 1    
     6   29    2 1    
     7   30    2 1    
     8   31    2 1    
     9   13    3 ar   
    10   14    4 ar   
    11   15    5 1    
    12   16    6 1    
    13   17    7 1    
    14   18    8 1    
    15   15    9 ar   
    16   19    9 ar   
    17   22    9 1    
    18   16   10 ar   
    19   19   10 ar   
    20   23   10 1    
    21   17   11 ar   
    22   20   11 ar   
    23   24   11 1    
    24   18   12 ar   
    25   20   12 ar   
    26   25   12 1    
    27   15   13 ar   
    28   16   13 ar   
    29   17   14 ar   
    30   18   14 ar   
    31   21   19 1    
    32   21   20 1    
@<TRIPOS>SUBSTRUCTURE
     1 XDH1        1 GROUP   
@<TRIPOS>SET

