#    Name: 3tye_XTZ_1_INTS_M
#    Modification time : Mon Mar 24 21:09:30 2014

@<TRIPOS>MOLECULE
3tye_XTZ_1_INTS_M
   57     0     9     0     0
SMALL
NO_CHARGES


@<TRIPOS>ATOM
      1 O         -78.5515   83.2630   90.1985 O.2       1 ALC1        0.0000 
      2 O         -78.2910   83.6570   91.4130 O.2       7 ALL1        0.0000 
      3 O         -78.8120   82.8690   88.9840 O.2       4 ALP1        0.0000 
      4 N         -78.8390   86.8215   93.7145 N.am      2 SEC2        0.0000 
      5 N         -77.7990   85.9650   94.2340 N.am      8 SEL2        0.0000 
      6 N         -79.8790   87.6780   93.1950 N.am      5 SEP2        0.0000 
      7 CA        -74.5025   84.8255   94.0170 C.3       3 GLC5        0.0000 
      8 CA        -75.9560   85.0190   95.6600 C.3       9 GLL5        0.0000 
      9 CA        -73.0490   84.6320   92.3740 C.3       6 GLP5        0.0000 
     10 O         -74.8755   83.2335   95.6265 O.2       1 ALC1        0.0000 
     11 O         -75.8720   83.9050   94.7170 O.2       7 ALL1        0.0000 
     12 O         -73.8790   82.5620   96.5360 O.2       4 ALP1        0.0000 
     13 CA        -74.8580   84.2405   93.0120 C.3       3 GLC5        0.0000 
     14 CA        -76.6670   83.8490   93.6500 C.3       9 GLL5        0.0000 
     15 N         -76.0145   81.3195   93.0315 N.am      2 SEC2        0.0000 
     16 N         -76.5740   82.8190   92.7850 N.am      8 SEL2        0.0000 
     17 N         -75.4550   79.8200   93.2780 N.am      5 SEP2        0.0000 
     18 O         -75.8715   80.9955   91.0695 O.2       1 ALC1        0.0000 
     19 O         -77.2160   81.6690   90.8660 O.2       7 ALL1        0.0000 
     20 O         -74.5270   80.3220   91.2730 O.2       4 ALP1        0.0000 
     21 O         -78.0140   82.2690   89.9250 O.2       1 ALC1        0.0000 
     22 CA        -75.8075   87.3810   98.0640 C.3       3 GLC5        0.0000 
     23 CA        -77.1450   87.2110   96.3110 C.3       9 GLL5        0.0000 
     24 CA        -74.4700   87.5510   99.8170 C.3       6 GLP5        0.0000 
     25 CA        -76.2345   87.7975   94.4590 C.3       3 GLC5        0.0000 
     26 CA        -75.3240   88.3840   92.6070 C.3       6 GLP5        0.0000 
     27 CA        -78.8760   87.7030   95.3340 C.3       3 GLC5        0.0000 
     28 CA        -80.6070   88.1950   94.3570 C.3       6 GLP5        0.0000 
     29 O         -75.0095   88.1235   96.1305 O.2       1 ALC1        0.0000 
     30 O         -76.6770   88.5340   95.9770 O.2       7 ALL1        0.0000 
     31 O         -73.3420   87.7130   96.2840 O.2       4 ALP1        0.0000 
     32 CA        -79.0360   91.9975   93.1625 C.3       3 GLC5        0.0000 
     33 CA        -78.1880   91.7320   95.1150 C.3       9 GLL5        0.0000 
     34 CA        -79.8840   92.2630   91.2100 C.3       6 GLP5        0.0000 
     35 CA        -79.5200   88.9910   95.7395 C.3       3 GLC5        0.0000 
     36 CA        -78.4330   89.7870   97.1220 C.3       9 GLL5        0.0000 
     37 N         -82.3415   93.4410   96.7420 N.am      2 SEC2        0.0000 
     38 N         -81.0970   93.2240   97.0320 N.am      8 SEL2        0.0000 
     39 N         -83.5860   93.6580   96.4520 N.am      5 SEP2        0.0000 
     40 N         -82.0895   93.5595   95.6055 N.am      2 SEC2        0.0000 
     41 N         -80.5930   93.4610   94.7590 N.am      8 SEL2        0.0000 
     42 CA        -76.5853   85.0280   91.5970 C.3       3 GLC5        0.0000 
     43 CA        -77.6680   84.9130   93.3940 C.3       9 GLL5        0.0000 
     44 CA        -76.0030   85.6750   89.6720 C.3       6 GLP5        0.0000 
     45 CA        -78.3868   82.9445   94.0760 C.3       3 GLC5        0.0000 
     46 CA        -79.6060   81.5080   94.6300 C.3       6 GLP5        0.0000 
     47 CA        -79.2119   89.5556   94.8552 C.3       3 GLC5        0.0000 
     48 CA        -80.7638   90.5525   95.9743 C.3       3 GLC5        0.0000 
     49 CA        -79.2350   90.9430   97.1350 C.3       9 GLL5        0.0000 
     50 CA        -82.3470   89.6660   95.3160 C.3       6 GLP5        0.0000 
     51 CA        -77.2990   92.1921   96.8399 C.3       3 GLC5        0.0000 
     52 CA        -75.6520   92.9960   97.3010 C.3       6 GLP5        0.0000 
     53 CA        -76.5321   90.7639   96.9450 C.3       3 GLC5        0.0000 
     54 CA        -75.1250   91.5840   97.5330 C.3       6 GLP5        0.0000 
     55 CA        -76.5184   94.5950   98.8512 C.3       3 GLC5        0.0000 
     56 CA        -77.8940   96.3390   98.0310 C.3       9 GLL5        0.0000 
     57 CA        -75.0300   93.8460   98.3470 C.3       6 GLP5        0.0000 
@<TRIPOS>BOND
@<TRIPOS>SUBSTRUCTURE
     1 ALC1        1 GROUP        1 X    ALC  0     ROOT ALC X 1
     2 SEC2        4 GROUP        1 X    SEC  0     **** SEC X 2
     3 GLC5        7 GROUP        1 X    GLC  0     **** GLC X 6
     4 ALP1        3 GROUP        1 Y    ALP  0     ROOT ALP Y 8
     5 SEP2        6 GROUP        1 Y    SEP  0     **** SEP Y 9
     6 GLP5        9 GROUP        1 Y    GLP  0     **** GLP Y 13
     7 ALL1        2 GROUP        1 Z    ALL  0     ROOT ALL Z 15
     8 SEL2        5 GROUP        1 Z    SEL  0     **** SEL Z 16
     9 GLL5        8 GROUP        1 Z    GLL  0     **** GLL Z 20
@<TRIPOS>SET

