#    Name: 3tye_XTZ_1_ligand
#    Modification time : Mon Mar 24 21:09:30 2014

@<TRIPOS>MOLECULE
3tye_XTZ_1_ligand
   45    48     1     0     0
SMALL
NO_CHARGES


@<TRIPOS>ATOM
      1 O3        -79.3570   85.5520   91.8520 O.2       1 XTZ801      0.0000 
      2 C16       -78.4860   84.7350   92.1730 C.2       1 XTZ801      0.0000 
      3 N2        -78.2910   83.6570   91.4130 N.am      1 XTZ801      0.0000 
      4 C3        -77.6680   84.9130   93.3940 C.2       1 XTZ801      0.0000 
      5 N4        -77.7990   85.9650   94.2340 N.2       1 XTZ801      0.0000 
      6 C4        -76.9950   86.0740   95.3210 C.2       1 XTZ801      0.0000 
      7 C15       -75.9560   85.0190   95.6600 C.3       1 XTZ801      0.0000 
      8 N8        -75.8720   83.9050   94.7170 N.pl3     1 XTZ801      0.0000 
      9 C2        -76.6670   83.8490   93.6500 C.2       1 XTZ801      0.0000 
     10 N3        -76.5740   82.8190   92.7850 N.2       1 XTZ801      0.0000 
     11 C1        -77.3640   82.7290   91.6950 C.2       1 XTZ801      0.0000 
     12 N1        -77.2160   81.6690   90.8660 N.pl3     1 XTZ801      0.0000 
     13 C5        -77.1450   87.2110   96.3110 C.3       1 XTZ801      0.0000 
     14 N5        -76.6770   88.5340   95.9770 N.pl3     1 XTZ801      0.0000 
     15 C6        -77.5010   89.6120   96.0860 C.ar      1 XTZ801      0.0000 
     16 C14       -77.3900   90.5890   95.0980 C.ar      1 XTZ801      0.0000 
     17 C13       -78.1880   91.7320   95.1150 C.ar      1 XTZ801      0.0000 
     18 C9        -79.1260   91.9350   96.1300 C.ar      1 XTZ801      0.0000 
     19 C8        -79.2350   90.9430   97.1350 C.ar      1 XTZ801      0.0000 
     20 C7        -78.4330   89.7870   97.1220 C.ar      1 XTZ801      0.0000 
     21 S1        -80.0240   93.2880   96.0790 S.o2      1 XTZ801      0.0000 
     22 O1        -81.0970   93.2240   97.0320 O.2       1 XTZ801      0.0000 
     23 O2        -80.5930   93.4610   94.7590 O.2       1 XTZ801      0.0000 
     24 N6        -79.1280   94.5770   96.4070 N.pl3     1 XTZ801      0.0000 
     25 C10       -78.6810   94.8530   97.6560 C.2       1 XTZ801      0.0000 
     26 S2        -77.8940   96.3390   98.0310 S.3       1 XTZ801      0.0000 
     27 C12       -77.6770   95.8690   99.6930 C.2       1 XTZ801      0.0000 
     28 C11       -78.2280   94.5840   99.8490 C.2       1 XTZ801      0.0000 
     29 N7        -78.7830   94.0190   98.7250 N.2       1 XTZ801      0.0000 
     30 H         -78.8939   83.5239   90.5459 H         1 XTZ801      0.0000 
     31 H         -76.1756   84.6385   96.6857 H         1 XTZ801      0.0000 
     32 H         -74.9660   85.5270   95.7438 H         1 XTZ801      0.0000 
     33 H         -75.1671   83.1786   94.9315 H         1 XTZ801      0.0000 
     34 H         -77.7977   81.6620   90.0526 H         1 XTZ801      0.0000 
     35 H         -76.5381   80.9870   91.1405 H         1 XTZ801      0.0000 
     36 H         -76.6620   86.8672   97.2874 H         1 XTZ801      0.0000 
     37 H         -78.2489   87.2554   96.6012 H         1 XTZ801      0.0000 
     38 H         -75.7023   88.6269   95.6557 H         1 XTZ801      0.0000 
     39 H         -76.6998   90.4632   94.3347 H         1 XTZ801      0.0000 
     40 H         -78.0854   92.4379   94.3687 H         1 XTZ801      0.0000 
     41 H         -79.9220   91.0752   97.8953 H         1 XTZ801      0.0000 
     42 H         -78.5279   89.0873   97.8544 H         1 XTZ801      0.0000 
     43 H         -78.9437   95.1456   95.5770 H         1 XTZ801      0.0000 
     44 H         -77.2688   96.4643  100.2072 H         1 XTZ801      0.0000 
     45 H         -78.2094   94.1190  100.7369 H         1 XTZ801      0.0000 
@<TRIPOS>BOND
     1    2    1 2    
     2    3    2 am   
     3    4    2 1    
     4   11    3 1    
     5   30    3 1    
     6    5    4 1    
     7    9    4 2    
     8    6    5 2    
     9    7    6 1    
    10   13    6 1    
    11    8    7 1    
    12   31    7 1    
    13   32    7 1    
    14    9    8 1    
    15   33    8 1    
    16   10    9 1    
    17   11   10 2    
    18   12   11 1    
    19   34   12 1    
    20   35   12 1    
    21   14   13 1    
    22   36   13 1    
    23   37   13 1    
    24   15   14 1    
    25   38   14 1    
    26   16   15 ar   
    27   20   15 ar   
    28   17   16 ar   
    29   39   16 1    
    30   18   17 ar   
    31   40   17 1    
    32   19   18 ar   
    33   21   18 1    
    34   20   19 ar   
    35   41   19 1    
    36   42   20 1    
    37   22   21 2    
    38   23   21 2    
    39   24   21 1    
    40   25   24 1    
    41   43   24 1    
    42   26   25 1    
    43   29   25 2    
    44   27   26 1    
    45   28   27 2    
    46   44   27 1    
    47   29   28 1    
    48   45   28 1    
@<TRIPOS>SUBSTRUCTURE
     1 XTZ801      1 GROUP   
@<TRIPOS>SET

