#    Name: 1xpu_FPD_9_INTS_M
#    Modification time : Tue Mar 25 10:34:03 2014

@<TRIPOS>MOLECULE
1xpu_FPD_9_INTS_M
   57     0     9     0     0
SMALL
NO_CHARGES


@<TRIPOS>ATOM
      1 N          28.5290   18.8300   39.8120 N.am      2 SEC2        0.0000 
      2 N          27.2310   18.6290   40.2180 N.am      8 SEL2        0.0000 
      3 N          29.8270   19.0310   39.4060 N.am      5 SEP2        0.0000 
      4 CA         25.2480   16.2100   40.9150 C.3       3 GLC5        0.0000 
      5 CA         24.3440   17.6400   42.0420 C.3       9 GLL5        0.0000 
      6 CA         26.1520   14.7800   39.7880 C.3       6 GLP5        0.0000 
      7 CA         24.9570   15.9675   37.0520 C.3       3 GLC5        0.0000 
      8 CA         25.4000   17.7000   38.0340 C.3       9 GLL5        0.0000 
      9 CA         24.5140   14.2350   36.0700 C.3       6 GLP5        0.0000 
     10 N          23.3465   16.3715   37.1205 N.am      2 SEC2        0.0000 
     11 N          24.2200   17.4530   37.2700 N.am      8 SEL2        0.0000 
     12 N          22.4730   15.2900   36.9710 N.am      5 SEP2        0.0000 
     13 CA         24.9625   17.6135   34.4495 C.3       3 GLC5        0.0000 
     14 CA         25.9600   18.5570   35.7490 C.3       9 GLL5        0.0000 
     15 CA         23.9650   16.6700   33.1500 C.3       6 GLP5        0.0000 
     16 CA         25.9785   19.8395   34.4510 C.3       3 GLC5        0.0000 
     17 CA         25.9970   21.1220   33.1530 C.3       6 GLP5        0.0000 
     18 O          27.7655   19.9865   36.6685 O.2       1 ALC1        0.0000 
     19 O          26.6740   19.7730   37.6630 O.2       7 ALL1        0.0000 
     20 O          28.8570   20.2000   35.6740 O.2       4 ALP1        0.0000 
     21 CA         29.5900   17.4485   36.1795 C.3       3 GLC5        0.0000 
     22 CA         27.7550   17.6760   37.2420 C.3       9 GLL5        0.0000 
     23 CA         31.4250   17.2210   35.1170 C.3       6 GLP5        0.0000 
     24 CA         27.9250   15.7350   37.0820 C.3       3 GLC5        0.0000 
     25 CA         28.0950   13.7940   36.9220 C.3       6 GLP5        0.0000 
     26 CA         26.9535   16.2280   38.5150 C.3       3 GLC5        0.0000 
     27 N          28.5110   18.7260   35.8110 N.am      2 SEC2        0.0000 
     28 N          28.1650   17.2520   35.9480 N.am      8 SEL2        0.0000 
     29 N          28.8570   20.2000   35.6740 N.am      5 SEP2        0.0000 
     30 O          27.9555   15.9775   35.9220 O.2       1 ALC1        0.0000 
     31 O          28.1650   17.2520   35.9480 O.2       7 ALL1        0.0000 
     32 O          27.7460   14.7030   35.8960 O.2       4 ALP1        0.0000 
     33 N          24.5500   21.4765   39.1560 N.am      2 SEC2        0.0000 
     34 N          24.7850   19.7800   39.3220 N.am      8 SEL2        0.0000 
     35 N          24.3150   23.1730   38.9900 N.am      5 SEP2        0.0000 
     36 CA         21.4165   19.8130   41.7980 C.3       3 GLC5        0.0000 
     37 CA         22.5500   19.1950   43.1340 C.3       9 GLL5        0.0000 
     38 CA         20.2830   20.4310   40.4620 C.3       6 GLP5        0.0000 
     39 CA         23.2555   17.5885   45.6775 C.3       3 GLC5        0.0000 
     40 CA         22.0830   18.0540   44.3950 C.3       9 GLL5        0.0000 
     41 CA         24.4280   17.1230   46.9600 C.3       6 GLP5        0.0000 
     42 CA         21.6605   16.3350   43.8320 C.3       3 GLC5        0.0000 
     43 CA         21.2380   14.6160   43.2690 C.3       6 GLP5        0.0000 
     44 N          22.2095   24.6365   46.6660 N.am      2 SEC2        0.0000 
     45 N          21.1870   23.4110   46.4160 N.am      8 SEL2        0.0000 
     46 N          23.2320   25.8620   46.9160 N.am      5 SEP2        0.0000 
     47 CA         25.6775   16.4045   39.2452 C.3       3 GLC5        0.0000 
     48 CA         25.0060   18.3580   39.3710 C.3       9 GLL5        0.0000 
     49 CA         22.2380   20.3395   40.7840 C.3       3 GLC5        0.0000 
     50 CA         23.9220   20.2920   40.3790 C.3       9 GLL5        0.0000 
     51 CA         24.0590   18.8190   44.8628 C.3       3 GLC5        0.0000 
     52 CA         24.8380   18.5420   46.8040 C.3       6 GLP5        0.0000 
     53 CA         23.1013   19.1088   46.1935 C.3       3 GLC5        0.0000 
     54 CA         21.1170   19.0660   45.3510 C.3       9 GLL5        0.0000 
     55 CA         17.9763   17.5980   45.5207 C.3       3 GLC5        0.0000 
     56 CA         19.8220   18.6610   45.6800 C.3       9 GLL5        0.0000 
     57 CA         16.5330   16.1250   44.9680 C.3       6 GLP5        0.0000 
@<TRIPOS>BOND
@<TRIPOS>SUBSTRUCTURE
     1 ALC1       18 GROUP        1 X    ALC  0     ROOT ALC X 1
     2 SEC2        1 GROUP        1 X    SEC  0     **** SEC X 2
     3 GLC5        4 GROUP        1 X    GLC  0     **** GLC X 6
     4 ALP1       20 GROUP        1 Y    ALP  0     ROOT ALP Y 8
     5 SEP2        3 GROUP        1 Y    SEP  0     **** SEP Y 9
     6 GLP5        6 GROUP        1 Y    GLP  0     **** GLP Y 13
     7 ALL1       19 GROUP        1 Z    ALL  0     ROOT ALL Z 15
     8 SEL2        2 GROUP        1 Z    SEL  0     **** SEL Z 16
     9 GLL5        5 GROUP        1 Z    GLL  0     **** GLL Z 20
@<TRIPOS>SET

