#    Name: 1xpu_FPD_9_ligand
#    Modification time : Tue Mar 25 10:34:04 2014

@<TRIPOS>MOLECULE
1xpu_FPD_9_ligand
   54    56     1     0     0
SMALL
NO_CHARGES


@<TRIPOS>ATOM
      1 O4         22.1510   17.2270   41.2050 O.2       1 FPD5701     0.0000 
      2 C11        23.3110   17.5260   40.9540 C.2       1 FPD5701     0.0000 
      3 N2         23.6810   17.8800   39.7350 N.am      1 FPD5701     0.0000 
      4 C5         25.0060   18.3580   39.3710 C.3       1 FPD5701     0.0000 
      5 C6         26.0830   18.2750   40.4390 C.2       1 FPD5701     0.0000 
      6 O6         27.2310   18.6290   40.2180 O.2       1 FPD5701     0.0000 
      7 N1         25.7070   17.9210   41.6610 N.am      1 FPD5701     0.0000 
      8 C10        24.3440   17.6400   42.0420 C.3       1 FPD5701     0.0000 
      9 O7         24.2870   16.5490   42.9610 O.3       1 FPD5701     0.0000 
     10 C4         25.4000   17.7000   38.0340 C.3       1 FPD5701     0.0000 
     11 O3         24.2200   17.4530   37.2700 O.3       1 FPD5701     0.0000 
     12 C1         26.4400   18.4450   37.1840 C.3       1 FPD5701     0.0000 
     13 C3         25.9600   18.5570   35.7490 C.3       1 FPD5701     0.0000 
     14 O2         26.6740   19.7730   37.6630 O.3       1 FPD5701     0.0000 
     15 C2         27.7550   17.6760   37.2420 C.3       1 FPD5701     0.0000 
     16 O1         28.1650   17.2520   35.9480 O.3       1 FPD5701     0.0000 
     17 O5         24.7850   19.7800   39.3220 O.3       1 FPD5701     0.0000 
     18 C7         23.9220   20.2920   40.3790 C.3       1 FPD5701     0.0000 
     19 C8         24.4640   20.2040   41.8330 C.3       1 FPD5701     0.0000 
     20 C9         24.0100   18.9970   42.7090 C.3       1 FPD5701     0.0000 
     21 C12        22.5500   19.1950   43.1340 C.3       1 FPD5701     0.0000 
     22 S1         22.0830   18.0540   44.3950 S.3       1 FPD5701     0.0000 
     23 C          21.1170   19.0660   45.3510 C.ar      1 FPD5701     0.0000 
     24 C54        21.6120   20.2850   45.8150 C.ar      1 FPD5701     0.0000 
     25 C53        20.8060   21.1060   46.6020 C.ar      1 FPD5701     0.0000 
     26 C13        21.3290   22.4040   47.0900 C.2       1 FPD5701     0.0000 
     27 O8         21.1870   23.4110   46.4160 O.2       1 FPD5701     0.0000 
     28 C52        19.5110   20.7020   46.9270 C.ar      1 FPD5701     0.0000 
     29 C51        19.0170   19.4810   46.4670 C.ar      1 FPD5701     0.0000 
     30 C50        19.8220   18.6610   45.6800 C.ar      1 FPD5701     0.0000 
     31 H          22.9947   17.8303   38.9210 H         1 FPD5701     0.0000 
     32 H          26.4196   17.8253   42.4418 H         1 FPD5701     0.0000 
     33 H          25.8518   16.7085   38.2963 H         1 FPD5701     0.0000 
     34 H          27.6109   16.8204   37.9247 H         1 FPD5701     0.0000 
     35 H          28.5059   18.3349   37.7120 H         1 FPD5701     0.0000 
     36 H          22.9329   19.7647   40.3696 H         1 FPD5701     0.0000 
     37 H          23.6674   21.3676   40.1929 H         1 FPD5701     0.0000 
     38 H          24.1890   21.1427   42.3667 H         1 FPD5701     0.0000 
     39 H          25.5775   20.2035   41.7922 H         1 FPD5701     0.0000 
     40 H          24.6300   19.0655   43.6411 H         1 FPD5701     0.0000 
     41 H          21.8582   18.9944   42.3427 H         1 FPD5701     0.0000 
     42 H          22.3756   20.1513   43.5812 H         1 FPD5701     0.0000 
     43 H          22.5665   20.5759   45.5774 H         1 FPD5701     0.0000 
     44 H          21.8001   22.3330   48.0236 H         1 FPD5701     0.0000 
     45 H          18.9166   21.3079   47.5093 H         1 FPD5701     0.0000 
     46 H          18.0638   19.1891   46.7082 H         1 FPD5701     0.0000 
     47 H          19.4652   17.7602   45.3417 H         1 FPD5701     0.0000 
     48 H          26.6193   19.0409   35.1735 H         1 FPD5701     0.0000 
     49 H          25.8136   17.6585   35.3351 H         1 FPD5701     0.0000 
     50 H          25.0946   19.0539   35.6846 H         1 FPD5701     0.0000 
     51 H          23.5462   16.7804   43.5916 H         1 FPD5701     0.0000 
     52 H          24.5322   16.9405   36.4701 H         1 FPD5701     0.0000 
     53 H          27.4527   20.1063   37.1315 H         1 FPD5701     0.0000 
     54 H          27.5877   16.4624   35.7395 H         1 FPD5701     0.0000 
@<TRIPOS>BOND
     1    2    1 2    
     2    3    2 am   
     3    8    2 1    
     4    4    3 1    
     5   31    3 1    
     6    5    4 1    
     7   10    4 1    
     8   17    4 1    
     9    6    5 2    
    10    7    5 am   
    11    8    7 1    
    12   32    7 1    
    13    9    8 1    
    14   20    8 1    
    15   51    9 1    
    16   11   10 1    
    17   12   10 1    
    18   33   10 1    
    19   52   11 1    
    20   13   12 1    
    21   14   12 1    
    22   15   12 1    
    23   48   13 1    
    24   49   13 1    
    25   50   13 1    
    26   53   14 1    
    27   16   15 1    
    28   34   15 1    
    29   35   15 1    
    30   54   16 1    
    31   18   17 1    
    32   19   18 1    
    33   36   18 1    
    34   37   18 1    
    35   20   19 1    
    36   38   19 1    
    37   39   19 1    
    38   21   20 1    
    39   40   20 1    
    40   22   21 1    
    41   41   21 1    
    42   42   21 1    
    43   23   22 1    
    44   24   23 ar   
    45   30   23 ar   
    46   25   24 ar   
    47   43   24 1    
    48   26   25 1    
    49   28   25 ar   
    50   27   26 2    
    51   44   26 1    
    52   29   28 ar   
    53   45   28 1    
    54   30   29 ar   
    55   46   29 1    
    56   47   30 1    
@<TRIPOS>SUBSTRUCTURE
     1 FPD5701     1 GROUP   
@<TRIPOS>SET

