#    Name: 2x97_RX4_1_INTS_M
#    Modification time : Tue Mar 25 05:33:21 2014

@<TRIPOS>MOLECULE
2x97_RX4_1_INTS_M
   67     0    12     0     0
SMALL
NO_CHARGES


@<TRIPOS>ATOM
      1 CA         29.9740    3.4315   45.2095 C.3       4 GLC5        0.0000 
      2 CA         28.1710    3.2650   44.7320 C.3      12 GLL5        0.0000 
      3 CA         31.7770    3.5980   45.6870 C.3       8 GLP5        0.0000 
      4 CA         28.0060   -0.1030   42.1875 C.3       4 GLC5        0.0000 
      5 CA         27.8500    0.8490   44.1030 C.3      12 GLL5        0.0000 
      6 CA         28.1620   -1.0550   40.2720 C.3       8 GLP5        0.0000 
      7 CA         24.6485    0.5465   43.7315 C.3       4 GLC5        0.0000 
      8 CA         26.5070    0.3890   44.7880 C.3      12 GLL5        0.0000 
      9 CA         22.7900    0.7040   42.6750 C.3       8 GLP5        0.0000 
     10 O          27.3820    1.2585   46.9265 O.2       1 ALC1        0.0000 
     11 O          26.2730    1.1280   46.0250 O.2       9 ALL1        0.0000 
     12 O          28.4910    1.3890   47.8280 O.2       5 ALP1        0.0000 
     13 N          22.9340    1.6195   44.9025 N.am      2 SEC2        0.0000 
     14 N          24.3460    1.9450   45.1700 N.am     10 SEL2        0.0000 
     15 N          21.5220    1.2940   44.6350 N.am      6 SEP2        0.0000 
     16 CA         23.7470    0.6650   49.1290 C.3       4 GLC5        0.0000 
     17 CA         24.4600    2.2840   48.4670 C.3      12 GLL5        0.0000 
     18 CA         23.0340   -0.9540   49.7910 C.3       8 GLP5        0.0000 
     19 CA         22.5005    2.8155   49.2490 C.3       4 GLC5        0.0000 
     20 CA         20.5410    3.3470   50.0310 C.3       8 GLP5        0.0000 
     21 O          22.8245    3.7015   46.5035 O.2       1 ALC1        0.0000 
     22 O          24.1720    3.9980   46.6650 O.2       9 ALL1        0.0000 
     23 O          21.4770    3.4050   46.3420 O.2       5 ALP1        0.0000 
     24 CA         21.9320    6.2990   44.4860 C.3       4 GLC5        0.0000 
     25 CA         23.5820    6.2410   45.8480 C.3      12 GLL5        0.0000 
     26 CA         20.2820    6.3570   43.1240 C.3       8 GLP5        0.0000 
     27 Zn         25.8640   -2.0330   46.8905 Zn        3 ZIC7        0.0000 
     28 Zn         25.1720   -1.7630   45.8360 Zn       11 ZIL7        0.0000 
     29 Zn         26.5560   -2.3030   47.9450 Zn        7 ZIP7        0.0000 
     30 N          23.9575   -2.0485   45.4085 N.am      2 SEC2        0.0000 
     31 N          25.1720   -1.7630   45.8360 N.am     10 SEL2        0.0000 
     32 N          22.7430   -2.3340   44.9810 N.am      6 SEP2        0.0000 
     33 Zn         26.9955   -1.9805   47.1875 Zn        3 ZIC7        0.0000 
     34 Zn         27.4350   -1.6580   46.4300 Zn       11 ZIL7        0.0000 
     35 N          28.8080   -1.2705   46.3095 N.am      2 SEC2        0.0000 
     36 N          27.4350   -1.6580   46.4300 N.am     10 SEL2        0.0000 
     37 N          30.1810   -0.8830   46.1890 N.am      6 SEP2        0.0000 
     38 CA         27.5340   -1.6775   42.0365 C.3       4 GLC5        0.0000 
     39 CA         26.9060   -2.3000   43.8010 C.3      12 GLL5        0.0000 
     40 CA         26.2480   -4.2995   45.5645 C.3       4 GLC5        0.0000 
     41 CA         27.3550   -3.7500   44.0110 C.3      12 GLL5        0.0000 
     42 CA         25.1410   -4.8490   47.1180 C.3       8 GLP5        0.0000 
     43 CA         25.3385   -4.0480   41.7080 C.3       4 GLC5        0.0000 
     44 CA         27.0550   -4.6990   42.7460 C.3      12 GLL5        0.0000 
     45 CA         23.6220   -3.3970   40.6700 C.3       8 GLP5        0.0000 
     46 CA         25.3800   -5.9505   42.4515 C.3       4 GLC5        0.0000 
     47 CA         23.7050   -7.2020   42.1570 C.3       8 GLP5        0.0000 
     48 N          29.2770   -2.3845   42.2070 N.am      2 SEC2        0.0000 
     49 N          29.5620   -2.7930   43.5480 N.am     10 SEL2        0.0000 
     50 N          28.9920   -1.9760   40.8660 N.am      6 SEP2        0.0000 
     51 CA         30.8315   -3.7975   46.1265 C.3       4 GLC5        0.0000 
     52 CA         31.0420   -4.7760   44.6880 C.3      12 GLL5        0.0000 
     53 CA         30.6210   -2.8190   47.5650 C.3       8 GLP5        0.0000 
     54 CA         33.1865   -6.3580   46.2680 C.3       4 GLC5        0.0000 
     55 CA         31.5230   -5.9830   45.5060 C.3      12 GLL5        0.0000 
     56 CA         34.8500   -6.7330   47.0300 C.3       8 GLP5        0.0000 
     57 CA         31.5195   -4.7905   46.8965 C.3       4 GLC5        0.0000 
     58 CA         31.5160   -3.5980   48.2870 C.3       8 GLP5        0.0000 
     59 O          33.7280   -4.5440   43.5920 O.2       1 ALC1        0.0000 
     60 O          32.6800   -4.5350   42.8430 O.2       9 ALL1        0.0000 
     61 O          34.7760   -4.5530   44.3410 O.2       5 ALP1        0.0000 
     62 CA         29.5493    4.8773   43.8332 C.3       4 GLC5        0.0000 
     63 CA         28.0420    4.6420   44.6150 C.3      12 GLL5        0.0000 
     64 CA         31.4160    4.9010   43.6220 C.3       8 GLP5        0.0000 
     65 CA         24.9535    2.7802   42.3432 C.3       4 GLC5        0.0000 
     66 CA         26.7730    4.1780   42.5190 C.3      12 GLL5        0.0000 
     67 CA         23.0520    2.0760   42.0930 C.3       8 GLP5        0.0000 
@<TRIPOS>BOND
@<TRIPOS>SUBSTRUCTURE
     1 ALC1       10 GROUP        1 X    ALC  0     ROOT ALC X 1
     2 SEC2       13 GROUP        1 X    SEC  0     **** SEC X 2
     3 ZIC7       27 GROUP        1 X    ZIC  0     **** ZIC X 5
     4 GLC5        1 GROUP        1 X    GLC  0     **** GLC X 6
     5 ALP1       12 GROUP        1 Y    ALP  0     ROOT ALP Y 8
     6 SEP2       15 GROUP        1 Y    SEP  0     **** SEP Y 9
     7 ZIP7       29 GROUP        1 Y    ZIP  0     **** ZIP Y 12
     8 GLP5        3 GROUP        1 Y    GLP  0     **** GLP Y 13
     9 ALL1       11 GROUP        1 Z    ALL  0     ROOT ALL Z 15
    10 SEL2       14 GROUP        1 Z    SEL  0     **** SEL Z 16
    11 ZIL7       28 GROUP        1 Z    ZIL  0     **** ZIL Z 19
    12 GLL5        2 GROUP        1 Z    GLL  0     **** GLL Z 20
@<TRIPOS>SET

