#    Name: 2x97_RX4_1_ligand
#    Modification time : Tue Mar 25 05:33:21 2014

@<TRIPOS>MOLECULE
2x97_RX4_1_ligand
   63    63     1     0     0
SMALL
NO_CHARGES


@<TRIPOS>ATOM
      1 CAP        28.1710    3.2650   44.7320 C.ar      1 RX41615     0.0000 
      2 CAN        28.0420    4.6420   44.6150 C.ar      1 RX41615     0.0000 
      3 CAM        27.3230    5.0650   43.4740 C.ar      1 RX41615     0.0000 
      4 CAO        26.7730    4.1780   42.5190 C.ar      1 RX41615     0.0000 
      5 CAQ        26.9370    2.7910   42.6680 C.ar      1 RX41615     0.0000 
      6 CBC        27.6600    2.3520   43.7750 C.ar      1 RX41615     0.0000 
      7 CAS        27.8500    0.8490   44.1030 C.3       1 RX41615     0.0000 
      8 CBG        26.5070    0.3890   44.7880 C.3       1 RX41615     0.0000 
      9 NAW        26.2730    1.1280   46.0250 N.am      1 RX41615     0.0000 
     10 CBB        25.1810    1.8950   46.0910 C.2       1 RX41615     0.0000 
     11 OAI        24.3460    1.9450   45.1700 O.2       1 RX41615     0.0000 
     12 CBF        25.0390    2.9090   47.2380 C.3       1 RX41615     0.0000 
     13 CAR        24.4600    2.2840   48.4670 C.3       1 RX41615     0.0000 
     14 CAZ        24.8140    3.2310   49.6380 C.2       1 RX41615     0.0000 
     15 OAK        26.0220    3.3730   49.9820 O.co2     1 RX41615     0.0000 
     16 OAG        23.8730    3.8480   50.1300 O.co2     1 RX41615     0.0000 
     17 NAU        24.1720    3.9980   46.6650 N.am      1 RX41615     0.0000 
     18 CAX        24.6000    5.2640   46.5060 C.2       1 RX41615     0.0000 
     19 CAA        23.5820    6.2410   45.8480 C.3       1 RX41615     0.0000 
     20 OAE        25.7340    5.6680   46.8590 O.2       1 RX41615     0.0000 
     21 P1         26.5190   -1.3530   45.2660 P.3       1 RX41615     0.0000 
     22 O4         25.1720   -1.7630   45.8360 O.co2     1 RX41615     0.0000 
     23 O3         27.4350   -1.6580   46.4300 O.co2     1 RX41615     0.0000 
     24 CAT        26.9060   -2.3000   43.8010 C.3       1 RX41615     0.0000 
     25 CBD        27.3550   -3.7500   44.0110 C.3       1 RX41615     0.0000 
     26 CAB        27.0550   -4.6990   42.7460 C.3       1 RX41615     0.0000 
     27 CBA        28.9300   -3.7150   44.0870 C.2       1 RX41615     0.0000 
     28 OAH        29.5620   -2.7930   43.5480 O.2       1 RX41615     0.0000 
     29 N          29.5320   -4.7480   44.6610 N.am      1 RX41615     0.0000 
     30 CA         31.0420   -4.7760   44.6880 C.3       1 RX41615     0.0000 
     31 CB         31.5230   -5.9830   45.5060 C.3       1 RX41615     0.0000 
     32 C          31.4750   -4.9500   43.1920 C.2       1 RX41615     0.0000 
     33 O          30.6480   -5.4480   42.3560 O.2       1 RX41615     0.0000 
     34 NAD        32.6800   -4.5350   42.8430 N.am      1 RX41615     0.0000 
     35 H          28.6685    2.8684   45.5641 H         1 RX41615     0.0000 
     36 H          28.4154    5.2815   45.2655 H         1 RX41615     0.0000 
     37 H          27.1896    6.0931   43.3268 H         1 RX41615     0.0000 
     38 H          26.2555    4.5519   41.7198 H         1 RX41615     0.0000 
     39 H          26.5472    2.1471   42.0014 H         1 RX41615     0.0000 
     40 H          28.6449    0.7284   44.7936 H         1 RX41615     0.0000 
     41 H          27.9829    0.2985   43.2071 H         1 RX41615     0.0000 
     42 H          25.6927    0.4437   44.1193 H         1 RX41615     0.0000 
     43 H          26.9470    1.0242   46.7709 H         1 RX41615     0.0000 
     44 H          26.0162    3.3136   47.4312 H         1 RX41615     0.0000 
     45 H          24.9052    1.3277   48.6527 H         1 RX41615     0.0000 
     46 H          23.3938    2.2151   48.3919 H         1 RX41615     0.0000 
     47 H          23.2138    3.6931   46.4013 H         1 RX41615     0.0000 
     48 H          27.6717   -1.6901   43.3145 H         1 RX41615     0.0000 
     49 H          25.9857   -2.2265   43.2158 H         1 RX41615     0.0000 
     50 H          26.9878   -4.1750   44.8656 H         1 RX41615     0.0000 
     51 H          29.0693   -5.5369   45.0923 H         1 RX41615     0.0000 
     52 H          31.4276   -3.8850   45.0550 H         1 RX41615     0.0000 
     53 H          33.2579   -4.1901   43.5826 H         1 RX41615     0.0000 
     54 H          32.9046   -4.6035   41.8710 H         1 RX41615     0.0000 
     55 H          23.9587    7.1626   45.7549 H         1 RX41615     0.0000 
     56 H          23.3161    5.9392   44.9325 H         1 RX41615     0.0000 
     57 H          22.7426    6.3204   46.3857 H         1 RX41615     0.0000 
     58 H          27.5232   -4.3790   41.9224 H         1 RX41615     0.0000 
     59 H          27.3554   -5.6391   42.9074 H         1 RX41615     0.0000 
     60 H          26.0787   -4.7358   42.5326 H         1 RX41615     0.0000 
     61 H          32.5210   -6.0294   45.5478 H         1 RX41615     0.0000 
     62 H          31.1915   -5.9486   46.4488 H         1 RX41615     0.0000 
     63 H          31.2055   -6.8469   45.1150 H         1 RX41615     0.0000 
@<TRIPOS>BOND
     1    2    1 ar   
     2    6    1 ar   
     3   35    1 1    
     4    3    2 ar   
     5   36    2 1    
     6    4    3 ar   
     7   37    3 1    
     8    5    4 ar   
     9   38    4 1    
    10    6    5 ar   
    11   39    5 1    
    12    7    6 1    
    13    8    7 1    
    14   40    7 1    
    15   41    7 1    
    16    9    8 1    
    17   21    8 1    
    18   42    8 1    
    19   10    9 am   
    20   43    9 1    
    21   11   10 2    
    22   12   10 1    
    23   13   12 1    
    24   17   12 1    
    25   44   12 1    
    26   14   13 1    
    27   45   13 1    
    28   46   13 1    
    29   15   14 ar   
    30   16   14 ar   
    31   18   17 am   
    32   47   17 1    
    33   19   18 1    
    34   20   18 2    
    35   55   19 1    
    36   56   19 1    
    37   57   19 1    
    38   22   21 ar   
    39   23   21 ar   
    40   24   21 1    
    41   25   24 1    
    42   48   24 1    
    43   49   24 1    
    44   26   25 1    
    45   27   25 1    
    46   50   25 1    
    47   58   26 1    
    48   59   26 1    
    49   60   26 1    
    50   28   27 2    
    51   29   27 am   
    52   30   29 1    
    53   51   29 1    
    54   31   30 1    
    55   32   30 1    
    56   52   30 1    
    57   61   31 1    
    58   62   31 1    
    59   63   31 1    
    60   33   32 2    
    61   34   32 am   
    62   53   34 1    
    63   54   34 1    
@<TRIPOS>SUBSTRUCTURE
     1 RX41615     1 GROUP   
@<TRIPOS>SET

