#    Name: 2p4i_MR9_2_INTS_M
#    Modification time : Mon Mar 24 18:17:39 2014

@<TRIPOS>MOLECULE
2p4i_MR9_2_INTS_M
  100     0     9     0     0
SMALL
NO_CHARGES


@<TRIPOS>ATOM
      1 CA         52.1080   17.6585   41.8755 C.3       3 GLC5        0.0000 
      2 CA         50.4430   17.0370   42.8130 C.3       9 GLL5        0.0000 
      3 CA         53.7730   18.2800   40.9380 C.3       6 GLP5        0.0000 
      4 CA         47.2110   15.7265   45.2710 C.3       3 GLC5        0.0000 
      5 CA         48.7270   16.7750   45.0530 C.3       9 GLL5        0.0000 
      6 CA         45.6950   14.6780   45.4890 C.3       6 GLP5        0.0000 
      7 CA         50.0150   18.6215   46.9305 C.3       3 GLC5        0.0000 
      8 CA         49.6800   17.9820   44.9360 C.3       9 GLL5        0.0000 
      9 CA         50.3500   19.2610   48.9250 C.3       6 GLP5        0.0000 
     10 CA         48.4780   19.5095   44.9025 C.3       3 GLC5        0.0000 
     11 CA         47.2760   21.0370   44.8690 C.3       6 GLP5        0.0000 
     12 CA         56.2815   21.6055   41.9270 C.3       3 GLC5        0.0000 
     13 CA         54.5980   22.0940   41.7780 C.3       9 GLL5        0.0000 
     14 CA         57.9650   21.1170   42.0760 C.3       6 GLP5        0.0000 
     15 CA         54.1855   20.1870   41.3580 C.3       3 GLC5        0.0000 
     16 CA         53.5180   23.5850   45.3130 C.3       3 GLC5        0.0000 
     17 CA         54.2540   22.7730   43.7820 C.3       9 GLL5        0.0000 
     18 CA         52.7820   24.3970   46.8440 C.3       6 GLP5        0.0000 
     19 CA         55.6520   24.4025   44.0035 C.3       3 GLC5        0.0000 
     20 CA         57.0500   26.0320   44.2250 C.3       6 GLP5        0.0000 
     21 CA         56.1095   21.9450   42.9290 C.3       3 GLC5        0.0000 
     22 CA         51.5295   24.1065   41.4245 C.3       3 GLC5        0.0000 
     23 CA         53.1300   23.5510   42.1190 C.3       9 GLL5        0.0000 
     24 CA         49.9290   24.6620   40.7300 C.3       6 GLP5        0.0000 
     25 CA         52.5695   21.7020   40.2580 C.3       3 GLC5        0.0000 
     26 CA         51.5660   21.1950   42.0520 C.3       9 GLL5        0.0000 
     27 CA         53.5730   22.2090   38.4640 C.3       6 GLP5        0.0000 
     28 N          51.9680   20.0525   39.2970 N.am      2 SEC2        0.0000 
     29 N          50.6890   20.2310   39.5020 N.am      8 SEL2        0.0000 
     30 N          53.2470   19.8740   39.0920 N.am      5 SEP2        0.0000 
     31 CA         48.6325   21.6990   40.2770 C.3       3 GLC5        0.0000 
     32 CA         48.3260   19.7920   39.4290 C.3       9 GLL5        0.0000 
     33 CA         48.9390   23.6060   41.1250 C.3       6 GLP5        0.0000 
     34 CA         46.6685   19.8140   42.1285 C.3       3 GLC5        0.0000 
     35 CA         47.2640   19.1870   40.0990 C.3       9 GLL5        0.0000 
     36 CA         46.0730   20.4410   44.1580 C.3       6 GLP5        0.0000 
     37 CA         44.7620   18.5445   41.0025 C.3       3 GLC5        0.0000 
     38 CA         46.0520   18.9560   39.4520 C.3       9 GLL5        0.0000 
     39 CA         43.4720   18.1330   42.5530 C.3       6 GLP5        0.0000 
     40 CA         44.1445   17.5055   36.2595 C.3       3 GLC5        0.0000 
     41 CA         44.5710   19.0690   37.4210 C.3       9 GLL5        0.0000 
     42 CA         43.7180   15.9420   35.0980 C.3       6 GLP5        0.0000 
     43 CA         43.3250   17.9340   37.9455 C.3       3 GLC5        0.0000 
     44 CA         42.0790   16.7990   38.4700 C.3       6 GLP5        0.0000 
     45 CA         45.0335   21.2590   37.4875 C.3       3 GLC5        0.0000 
     46 CA         45.4960   23.4490   37.5540 C.3       6 GLP5        0.0000 
     47 CA         45.6345   16.5305   34.8815 C.3       3 GLC5        0.0000 
     48 CA         47.5510   17.1190   34.6650 C.3       9 GLL5        0.0000 
     49 CA         46.0310   16.2145   33.0845 C.3       3 GLC5        0.0000 
     50 CA         47.6870   17.4390   33.3110 C.3       9 GLL5        0.0000 
     51 CA         44.3750   14.9900   32.8580 C.3       6 GLP5        0.0000 
     52 CA         45.7055   24.9545   33.1675 C.3       3 GLC5        0.0000 
     53 CA         46.8540   23.4560   33.7900 C.3       9 GLL5        0.0000 
     54 CA         44.5570   26.4530   32.5450 C.3       6 GLP5        0.0000 
     55 N          46.8595   25.1600   32.0070 N.am      2 SEC2        0.0000 
     56 N          46.9650   23.6730   32.4900 N.am      8 SEL2        0.0000 
     57 N          46.7540   26.6470   31.5240 N.am      5 SEP2        0.0000 
     58 CA         49.0425   22.9280   31.8100 C.3       3 GLC5        0.0000 
     59 CA         47.1750   22.6570   31.6380 C.3       9 GLL5        0.0000 
     60 CA         50.9100   23.1990   31.9820 C.3       6 GLP5        0.0000 
     61 O          47.5525   24.3050   29.7055 O.2       1 ALC1        0.0000 
     62 O          47.2840   22.9080   30.3370 O.2       7 ALL1        0.0000 
     63 O          47.8210   25.7020   29.0740 O.2       4 ALP1        0.0000 
     64 CA         45.8795   22.5745   29.2815 C.3       3 GLC5        0.0000 
     65 CA         47.6130   21.8510   29.3710 C.3       9 GLL5        0.0000 
     66 CA         44.1460   23.2980   29.1920 C.3       6 GLP5        0.0000 
     67 CA         49.3005   22.7095   28.6180 C.3       3 GLC5        0.0000 
     68 CA         50.9880   23.5680   27.8650 C.3       6 GLP5        0.0000 
     69 CA         49.2615   22.5250   30.6765 C.3       3 GLC5        0.0000 
     70 CA         52.5945   18.8100   42.3453 C.3       3 GLC5        0.0000 
     71 CA         50.8580   19.2640   43.3350 C.3       9 GLL5        0.0000 
     72 CA         53.2722   19.5900   42.1780 C.3       3 GLC5        0.0000 
     73 CA         52.6700   21.3470   42.8880 C.3       9 GLL5        0.0000 
     74 CA         52.2032   23.6265   43.7237 C.3       3 GLC5        0.0000 
     75 CA         53.6810   22.4830   42.6400 C.3       9 GLL5        0.0000 
     76 CA         51.0010   24.2360   45.0680 C.3       6 GLP5        0.0000 
     77 CA         54.9277   21.9350   44.7075 C.3       3 GLC5        0.0000 
     78 CA         55.8880   21.2420   46.2040 C.3       6 GLP5        0.0000 
     79 CA         55.2609   23.5289   41.2230 C.3       3 GLC5        0.0000 
     80 CA         56.8870   24.1380   40.2820 C.3       6 GLP5        0.0000 
     81 CA         53.6039   22.5644   40.3140 C.3       3 GLC5        0.0000 
     82 CA         49.6565   21.1196   43.1599 C.3       3 GLC5        0.0000 
     83 CA         48.1490   21.7870   43.8920 C.3       6 GLP5        0.0000 
     84 CA         51.5849   22.6417   43.9015 C.3       3 GLC5        0.0000 
     85 CA         50.0275   22.1405   41.6435 C.3       3 GLC5        0.0000 
     86 CA         52.4445   19.4775   41.5500 C.3       3 GLC5        0.0000 
     87 CA         44.9943   17.4303   39.1955 C.3       3 GLC5        0.0000 
     88 CA         44.0080   15.7180   39.6060 C.3       6 GLP5        0.0000 
     89 CA         45.6347   21.0386   39.4554 C.3       3 GLC5        0.0000 
     90 CA         45.9090   19.3290   38.1180 C.3       9 GLL5        0.0000 
     91 CA         44.9860   22.8770   39.9640 C.3       6 GLP5        0.0000 
     92 CA         47.2970   21.7632   37.7784 C.3       3 GLC5        0.0000 
     93 CA         46.9870   19.9290   37.4370 C.3       9 GLL5        0.0000 
     94 CA         46.9720   23.5740   37.4560 C.3       6 GLP5        0.0000 
     95 CA         46.9387   23.1910   35.7475 C.3       3 GLC5        0.0000 
     96 CA         46.9570   22.1600   34.2880 C.3       9 GLL5        0.0000 
     97 CA         44.9469   22.2149   33.7276 C.3       3 GLC5        0.0000 
     98 CA         42.9360   21.8870   33.6360 C.3       6 GLP5        0.0000 
     99 CA         48.6399   23.1369   34.0906 C.3       3 GLC5        0.0000 
    100 CA         50.3220   23.7310   34.3620 C.3       6 GLP5        0.0000 
@<TRIPOS>BOND
@<TRIPOS>SUBSTRUCTURE
     1 ALC1       61 GROUP        1 X    ALC  0     ROOT ALC X 1
     2 SEC2       28 GROUP        1 X    SEC  0     **** SEC X 2
     3 GLC5        1 GROUP        1 X    GLC  0     **** GLC X 6
     4 ALP1       63 GROUP        1 Y    ALP  0     ROOT ALP Y 8
     5 SEP2       30 GROUP        1 Y    SEP  0     **** SEP Y 9
     6 GLP5        3 GROUP        1 Y    GLP  0     **** GLP Y 13
     7 ALL1       62 GROUP        1 Z    ALL  0     ROOT ALL Z 15
     8 SEL2       29 GROUP        1 Z    SEL  0     **** SEL Z 16
     9 GLL5        2 GROUP        1 Z    GLL  0     **** GLL Z 20
@<TRIPOS>SET

