#    Name: 2p4i_MR9_2_ligand
#    Modification time : Mon Mar 24 18:17:39 2014

@<TRIPOS>MOLECULE
2p4i_MR9_2_ligand
   68    72     1     0     0
SMALL
NO_CHARGES


@<TRIPOS>ATOM
      1 C26        50.4430   17.0370   42.8130 C.3       1 MR9302      0.0000 
      2 C27        49.3350   15.9610   42.7940 C.3       1 MR9302      0.0000 
      3 O3         48.2600   16.2630   43.7500 O.3       1 MR9302      0.0000 
      4 C28        48.7270   16.7750   45.0530 C.3       1 MR9302      0.0000 
      5 C29        49.6800   17.9820   44.9360 C.3       1 MR9302      0.0000 
      6 N6         49.9730   18.2650   43.5090 N.3       1 MR9302      0.0000 
      7 C20        50.8580   19.2640   43.3350 C.ar      1 MR9302      0.0000 
      8 C21        51.9740   19.4160   44.1700 C.ar      1 MR9302      0.0000 
      9 C22        52.8730   20.4530   43.9480 C.ar      1 MR9302      0.0000 
     10 C23        52.6700   21.3470   42.8880 C.ar      1 MR9302      0.0000 
     11 C25        53.6810   22.4830   42.6400 C.3       1 MR9302      0.0000 
     12 F2         54.5980   22.0940   41.7780 F         1 MR9302      0.0000 
     13 F3         54.2540   22.7730   43.7820 F         1 MR9302      0.0000 
     14 F1         53.1300   23.5510   42.1190 F         1 MR9302      0.0000 
     15 C24        51.5660   21.1950   42.0520 C.ar      1 MR9302      0.0000 
     16 C19        50.6660   20.1550   42.2720 C.ar      1 MR9302      0.0000 
     17 N4         49.6000   19.9870   41.4820 N.am      1 MR9302      0.0000 
     18 C17        49.6580   20.0300   40.1470 C.2       1 MR9302      0.0000 
     19 O2         50.6890   20.2310   39.5020 O.2       1 MR9302      0.0000 
     20 C12        48.3260   19.7920   39.4290 C.ar      1 MR9302      0.0000 
     21 C11        48.1880   20.1600   38.1000 C.ar      1 MR9302      0.0000 
     22 C13        47.2640   19.1870   40.0990 C.ar      1 MR9302      0.0000 
     23 C14        46.0520   18.9560   39.4520 C.ar      1 MR9302      0.0000 
     24 C15        45.9090   19.3290   38.1180 C.ar      1 MR9302      0.0000 
     25 C16        44.5710   19.0690   37.4210 C.3       1 MR9302      0.0000 
     26 C10        46.9870   19.9290   37.4370 C.ar      1 MR9302      0.0000 
     27 O1         46.8780   20.3150   36.1320 O.3       1 MR9302      0.0000 
     28 C9         47.1530   19.3700   35.1850 C.ar      1 MR9302      0.0000 
     29 N3         47.2900   18.0720   35.5440 N.ar      1 MR9302      0.0000 
     30 C8         47.5510   17.1190   34.6650 C.ar      1 MR9302      0.0000 
     31 C7         47.6870   17.4390   33.3110 C.ar      1 MR9302      0.0000 
     32 C6         47.5550   18.7640   32.8960 C.ar      1 MR9302      0.0000 
     33 C5         47.2860   19.7610   33.8390 C.ar      1 MR9302      0.0000 
     34 C2         47.1660   21.0990   33.4090 C.ar      1 MR9302      0.0000 
     35 N1         47.2770   21.3960   32.0970 N.ar      1 MR9302      0.0000 
     36 C3         46.9570   22.1600   34.2880 C.ar      1 MR9302      0.0000 
     37 C4         46.8540   23.4560   33.7900 C.ar      1 MR9302      0.0000 
     38 N2         46.9650   23.6730   32.4900 N.ar      1 MR9302      0.0000 
     39 C1         47.1750   22.6570   31.6380 C.ar      1 MR9302      0.0000 
     40 N5         47.2840   22.9080   30.3370 N.pl3     1 MR9302      0.0000 
     41 C18        47.6130   21.8510   29.3710 C.3       1 MR9302      0.0000 
     42 H          50.7165   17.2635   41.7812 H         1 MR9302      0.0000 
     43 H          51.3147   16.6203   43.3201 H         1 MR9302      0.0000 
     44 H          49.8018   14.9939   43.0250 H         1 MR9302      0.0000 
     45 H          48.9412   15.9022   41.7703 H         1 MR9302      0.0000 
     46 H          49.2548   15.9813   45.6122 H         1 MR9302      0.0000 
     47 H          47.8680   17.0825   45.6765 H         1 MR9302      0.0000 
     48 H          50.5962   17.7475   45.4765 H         1 MR9302      0.0000 
     49 H          49.2033   18.8406   45.4073 H         1 MR9302      0.0000 
     50 H          52.1227   18.7585   44.9443 H         1 MR9302      0.0000 
     51 H          53.6905   20.5686   44.5603 H         1 MR9302      0.0000 
     52 H          51.4161   21.8489   41.2746 H         1 MR9302      0.0000 
     53 H          48.6513   19.8089   41.9426 H         1 MR9302      0.0000 
     54 H          48.9712   20.6035   37.6024 H         1 MR9302      0.0000 
     55 H          47.3772   18.9068   41.0865 H         1 MR9302      0.0000 
     56 H          45.2753   18.5169   39.9520 H         1 MR9302      0.0000 
     57 H          47.6608   16.1256   34.9455 H         1 MR9302      0.0000 
     58 H          47.8830   16.7017   32.6269 H         1 MR9302      0.0000 
     59 H          47.6542   19.0072   31.9064 H         1 MR9302      0.0000 
     60 H          46.8797   21.9866   35.2951 H         1 MR9302      0.0000 
     61 H          46.6901   24.2297   34.4638 H         1 MR9302      0.0000 
     62 H          47.1442   23.8558   29.9338 H         1 MR9302      0.0000 
     63 H          44.5824   19.3754   36.4692 H         1 MR9302      0.0000 
     64 H          44.3392   18.0963   37.4131 H         1 MR9302      0.0000 
     65 H          43.8176   19.5461   37.8735 H         1 MR9302      0.0000 
     66 H          48.4991   21.4312   29.5673 H         1 MR9302      0.0000 
     67 H          46.9334   21.1175   29.3773 H         1 MR9302      0.0000 
     68 H          47.6560   22.2028   28.4359 H         1 MR9302      0.0000 
@<TRIPOS>BOND
     1    2    1 1    
     2    6    1 1    
     3   42    1 1    
     4   43    1 1    
     5    3    2 1    
     6   44    2 1    
     7   45    2 1    
     8    4    3 1    
     9    5    4 1    
    10   46    4 1    
    11   47    4 1    
    12    6    5 1    
    13   48    5 1    
    14   49    5 1    
    15    7    6 1    
    16    8    7 ar   
    17   16    7 ar   
    18    9    8 ar   
    19   50    8 1    
    20   10    9 ar   
    21   51    9 1    
    22   11   10 1    
    23   15   10 ar   
    24   12   11 1    
    25   13   11 1    
    26   14   11 1    
    27   16   15 ar   
    28   52   15 1    
    29   17   16 1    
    30   18   17 am   
    31   53   17 1    
    32   19   18 2    
    33   20   18 1    
    34   21   20 ar   
    35   22   20 ar   
    36   26   21 ar   
    37   54   21 1    
    38   23   22 ar   
    39   55   22 1    
    40   24   23 ar   
    41   56   23 1    
    42   25   24 1    
    43   26   24 ar   
    44   63   25 1    
    45   64   25 1    
    46   65   25 1    
    47   27   26 1    
    48   28   27 1    
    49   29   28 ar   
    50   33   28 ar   
    51   30   29 ar   
    52   31   30 ar   
    53   57   30 1    
    54   32   31 ar   
    55   58   31 1    
    56   33   32 ar   
    57   59   32 1    
    58   34   33 1    
    59   35   34 ar   
    60   36   34 ar   
    61   39   35 ar   
    62   37   36 ar   
    63   60   36 1    
    64   38   37 ar   
    65   61   37 1    
    66   39   38 ar   
    67   40   39 1    
    68   41   40 1    
    69   62   40 1    
    70   66   41 1    
    71   67   41 1    
    72   68   41 1    
@<TRIPOS>SUBSTRUCTURE
     1 MR9302      1 GROUP   
@<TRIPOS>SET

