#    Name: 3UPT_1_CAVITY_N1_6.mol2
#    Modification time : Tue Mar 11 08:58:18 2014

@<TRIPOS>MOLECULE
3UPT_1_CAVITY_N1_6.mol2
   53     0     5     0     0
SMALL
NO_CHARGES


@<TRIPOS>ATOM
      1 CA         41.8786   35.5662  -49.1140 C.3       4 GLY6        0.0000 
      2 O          41.5273   33.6094  -49.8539 O.2       1 ALA2        0.0000 
      3 N          40.8142   34.9252  -49.9543 N.2       1 ALA2        0.0000 
      4 CA         41.1761   31.6525  -50.5937 C.3       4 GLY6        0.0000 
      5 N          40.4630   32.9683  -50.6942 N.2       1 ALA2        0.0000 
      6 CA         39.7499   34.2841  -50.7947 C.3       4 GLY6        0.0000 
      7 N          39.3986   32.3273  -51.5346 N.2       1 ALA2        0.0000 
      8 CA         38.6855   33.6431  -51.6351 C.3       4 GLY6        0.0000 
      9 N          38.3342   31.6863  -52.3750 N.2       1 ALA2        0.0000 
     10 CA         37.6211   33.0021  -52.4754 C.3       4 GLY6        0.0000 
     11 CA         41.8116   33.9222  -47.7751 C.3       4 GLY6        0.0000 
     12 CA         41.0985   35.2380  -47.8755 C.3       4 GLY6        0.0000 
     13 CA         40.3853   36.5538  -47.9760 C.3       4 GLY6        0.0000 
     14 O          41.4603   31.9653  -48.5150 O.2       1 ALA2        0.0000 
     15 CA         40.7472   33.2811  -48.6154 C.3       4 GLY6        0.0000 
     16 CA         40.0341   34.5969  -48.7159 C.3       4 GLY6        0.0000 
     17 CA         39.3210   35.9127  -48.8164 C.3       4 GLY6        0.0000 
     18 CA         40.3960   31.3243  -49.3553 C.3       4 GLY6        0.0000 
     19 DU         39.6829   32.6401  -49.4558 H         5 CUB7        0.0000 
     20 CA         38.9697   33.9559  -49.5563 C.3       4 GLY6        0.0000 
     21 N          39.3316   30.6833  -50.1957 N.2       1 ALA2        0.0000 
     22 N          38.6185   31.9991  -50.2962 N.2       1 ALA2        0.0000 
     23 CA         37.9054   33.3149  -50.3966 C.3       4 GLY6        0.0000 
     24 NZ         38.2673   30.0423  -51.0361 N.2       2 LYS4        0.0000 
     25 CZ         37.5541   31.3581  -51.1365 C.ar      3 PHE5        0.0000 
     26 CZ         36.8410   32.6739  -51.2370 C.ar      3 PHE5        0.0000 
     27 NZ         36.4898   30.7170  -51.9769 N.2       2 LYS4        0.0000 
     28 N          40.6802   31.6371  -47.2765 N.2       1 ALA2        0.0000 
     29 CA         39.9671   32.9529  -47.3770 C.3       4 GLY6        0.0000 
     30 CA         39.2540   34.2687  -47.4775 C.3       4 GLY6        0.0000 
     31 CA         38.5409   35.5845  -47.5780 C.3       4 GLY6        0.0000 
     32 N          37.8277   36.9003  -47.6784 N.2       1 ALA2        0.0000 
     33 N          39.6159   30.9961  -48.1169 N.2       1 ALA2        0.0000 
     34 N          38.9027   32.3119  -48.2174 N.2       1 ALA2        0.0000 
     35 DU         38.1896   33.6277  -48.3179 H         5 CUB7        0.0000 
     36 CA         37.4765   34.9435  -48.4183 C.3       4 GLY6        0.0000 
     37 CA         36.7634   36.2593  -48.5188 C.3       4 GLY6        0.0000 
     38 N          37.8384   31.6709  -49.0577 N.2       1 ALA2        0.0000 
     39 CZ         37.1253   32.9867  -49.1582 C.ar      3 PHE5        0.0000 
     40 CA         39.1870   32.6247  -46.1386 C.3       4 GLY6        0.0000 
     41 CA         38.4739   33.9405  -46.2391 C.3       4 GLY6        0.0000 
     42 CA         37.7607   35.2563  -46.3395 C.3       4 GLY6        0.0000 
     43 N          37.0476   36.5721  -46.4400 N.2       1 ALA2        0.0000 
     44 CZ         38.1226   31.9836  -46.9790 C.ar      3 PHE5        0.0000 
     45 CZ         37.4095   33.2995  -47.0794 C.ar      3 PHE5        0.0000 
     46 CA         36.6964   34.6153  -47.1799 C.3       4 GLY6        0.0000 
     47 CA         35.9833   35.9311  -47.2804 C.3       4 GLY6        0.0000 
     48 CZ         36.3451   32.6584  -47.9198 C.ar      3 PHE5        0.0000 
     49 O          38.4069   32.2964  -44.9002 O.2       1 ALA2        0.0000 
     50 CA         37.6937   33.6123  -45.0006 C.3       4 GLY6        0.0000 
     51 NZ         36.9806   34.9281  -45.1011 N.2       2 LYS4        0.0000 
     52 CZ         36.6294   32.9712  -45.8410 C.ar      3 PHE5        0.0000 
     53 NZ         35.9163   34.2870  -45.9415 N.2       2 LYS4        0.0000 
@<TRIPOS>BOND
@<TRIPOS>SUBSTRUCTURE
     1 ALA2        2 GROUP   
     2 LYS4       24 GROUP   
     3 PHE5       25 GROUP   
     4 GLY6        1 GROUP   
     5 CUB7       19 GROUP   
@<TRIPOS>SET

