#    Name: 3upt_TPP_1_INTS_M
#    Modification time : Mon Mar 24 23:15:51 2014

@<TRIPOS>MOLECULE
3upt_TPP_1_INTS_M
   79     0     9     0     0
SMALL
NO_CHARGES


@<TRIPOS>ATOM
      1 CA         38.1730   35.0920  -43.8535 C.3       3 GLC5        0.0000 
      2 CA         37.5730   32.9690  -43.8410 C.3       9 GLL5        0.0000 
      3 CA         38.7730   37.2150  -43.8660 C.3       6 GLP5        0.0000 
      4 CA         38.6575   30.9425  -42.5930 C.3       3 GLC5        0.0000 
      5 CA         37.6040   32.7540  -42.3470 C.3       9 GLL5        0.0000 
      6 CA         39.7110   29.1310  -42.8390 C.3       6 GLP5        0.0000 
      7 CA         36.2550   31.3985  -42.6275 C.3       3 GLC5        0.0000 
      8 CA         34.9060   30.0430  -42.9080 C.3       6 GLP5        0.0000 
      9 CA         37.6355   32.0805  -40.8510 C.3       3 GLC5        0.0000 
     10 CA         37.6670   31.4070  -39.3550 C.3       6 GLP5        0.0000 
     11 N          39.5265   31.7635  -43.7100 N.am      2 SEC2        0.0000 
     12 N          38.3240   32.1650  -44.6210 N.am      8 SEL2        0.0000 
     13 N          40.7290   31.3620  -42.7990 N.am      5 SEP2        0.0000 
     14 O          39.8180   30.5065  -46.0805 O.2       1 ALC1        0.0000 
     15 O          39.1140   31.4760  -46.6900 O.2       7 ALL1        0.0000 
     16 O          40.5220   29.5370  -45.4710 O.2       4 ALP1        0.0000 
     17 O          39.7290   30.9310  -47.9085 O.2       1 ALC1        0.0000 
     18 O          40.3440   30.3860  -49.1270 O.2       4 ALP1        0.0000 
     19 CA         35.1580   34.7190  -47.1575 C.3       3 GLC5        0.0000 
     20 CA         36.7500   34.1560  -45.7390 C.3       9 GLL5        0.0000 
     21 CA         33.5660   35.2820  -48.5760 C.3       6 GLP5        0.0000 
     22 CA         37.7615   35.6855  -44.8025 C.3       3 GLC5        0.0000 
     23 CA         39.1405   34.1475  -46.7760 C.3       3 GLC5        0.0000 
     24 CA         37.4510   33.5400  -48.1280 C.3       9 GLL5        0.0000 
     25 CA         40.8300   34.7550  -45.4240 C.3       6 GLP5        0.0000 
     26 CA         36.2500   34.5630  -49.3655 C.3       3 GLC5        0.0000 
     27 CA         35.0490   35.5860  -50.6030 C.3       6 GLP5        0.0000 
     28 CA         35.9630   32.5350  -49.1655 C.3       3 GLC5        0.0000 
     29 CA         34.4750   31.5300  -50.2030 C.3       6 GLP5        0.0000 
     30 CA         36.4735   32.1190  -46.8390 C.3       3 GLC5        0.0000 
     31 CA         35.4960   30.6980  -45.5500 C.3       6 GLP5        0.0000 
     32 CA         42.7660   33.0415  -49.7820 C.3       3 GLC5        0.0000 
     33 CA         41.2800   34.2630  -49.2320 C.3       9 GLL5        0.0000 
     34 CA         44.2520   31.8200  -50.3320 C.3       6 GLP5        0.0000 
     35 CA         39.4475   35.6605  -46.7030 C.3       3 GLC5        0.0000 
     36 CA         38.0650   36.5660  -47.9820 C.3       9 GLL5        0.0000 
     37 CA         38.2900   36.4070  -49.8680 C.3       3 GLC5        0.0000 
     38 CA         38.5150   36.2480  -51.7540 C.3       6 GLP5        0.0000 
     39 CA         37.6345   38.4660  -47.9125 C.3       3 GLC5        0.0000 
     40 CA         37.2040   40.3660  -47.8430 C.3       6 GLP5        0.0000 
     41 CA         36.5570   36.0760  -49.2925 C.3       3 GLC5        0.0000 
     42 CA         38.8370   37.8125  -46.6420 C.3       3 GLC5        0.0000 
     43 CA         39.6090   39.0590  -45.3020 C.3       6 GLP5        0.0000 
     44 CA         40.2540   37.2330  -50.4790 C.3       3 GLC5        0.0000 
     45 CA         41.1160   37.0310  -48.8780 C.3       9 GLL5        0.0000 
     46 CA         39.3920   37.4350  -52.0800 C.3       6 GLP5        0.0000 
     47 CA         42.7460   37.4900  -46.2675 C.3       3 GLC5        0.0000 
     48 CA         42.3440   37.0980  -48.0230 C.3       9 GLL5        0.0000 
     49 CA         43.1480   37.8820  -44.5120 C.3       6 GLP5        0.0000 
     50 N          44.6530   37.6305  -46.1340 N.am      2 SEC2        0.0000 
     51 N          44.9690   36.7000  -47.2230 N.am      8 SEL2        0.0000 
     52 N          44.3370   38.5610  -45.0450 N.am      5 SEP2        0.0000 
     53 N          46.1150   39.1450  -46.9820 N.am      2 SEC2        0.0000 
     54 N          45.2270   39.0390  -48.3820 N.am      8 SEL2        0.0000 
     55 N          47.0030   39.2510  -45.5820 N.am      5 SEP2        0.0000 
     56 N          44.7820   38.8000  -46.7135 N.am      2 SEC2        0.0000 
     57 N          44.0675   36.4755  -52.5895 N.am      2 SEC2        0.0000 
     58 N          44.8810   37.1580  -51.9290 N.am      8 SEL2        0.0000 
     59 N          43.2540   35.7930  -53.2500 N.am      5 SEP2        0.0000 
     60 N          48.1765   38.8880  -51.2880 N.am      2 SEC2        0.0000 
     61 N          46.8390   38.3310  -50.8420 N.am      8 SEL2        0.0000 
     62 N          49.5140   39.4450  -51.7340 N.am      5 SEP2        0.0000 
     63 N          47.5735   38.6475  -49.6180 N.am      2 SEC2        0.0000 
     64 N          48.3080   38.9640  -48.3940 N.am      5 SEP2        0.0000 
     65 N          46.1070   34.7525  -50.8420 N.am      2 SEC2        0.0000 
     66 N          46.8150   35.7950  -51.2990 N.am      8 SEL2        0.0000 
     67 N          45.3990   33.7100  -50.3850 N.am      5 SEP2        0.0000 
     68 CA         39.5327   33.2773  -43.1210 C.3       3 GLC5        0.0000 
     69 CA         41.4770   33.6930  -43.1480 C.3       6 GLP5        0.0000 
     70 CA         39.0816   34.1239  -45.7194 C.3       3 GLC5        0.0000 
     71 CA         38.3370   32.3050  -45.9650 C.3       9 GLL5        0.0000 
     72 CA         40.6830   34.2890  -47.2530 C.3       3 GLC5        0.0000 
     73 CA         39.7920   33.3830  -48.9320 C.3       9 GLL5        0.0000 
     74 CA         39.5255   35.0355  -50.4180 C.3       3 GLC5        0.0000 
     75 CA         40.2687   35.1718  -47.0063 C.3       3 GLC5        0.0000 
     76 CA         40.4090   35.7130  -48.7760 C.3       9 GLL5        0.0000 
     77 CA         39.1112   35.9183  -50.1713 C.3       3 GLC5        0.0000 
     78 CA         41.2800   35.9098  -46.9372 C.3       3 GLC5        0.0000 
     79 CA         40.6695   38.0618  -46.8762 C.3       3 GLC5        0.0000 
@<TRIPOS>BOND
@<TRIPOS>SUBSTRUCTURE
     1 ALC1       14 GROUP        1 X    ALC  0     ROOT ALC X 1
     2 SEC2       11 GROUP        1 X    SEC  0     **** SEC X 2
     3 GLC5        1 GROUP        1 X    GLC  0     **** GLC X 6
     4 ALP1       16 GROUP        1 Y    ALP  0     ROOT ALP Y 8
     5 SEP2       13 GROUP        1 Y    SEP  0     **** SEP Y 9
     6 GLP5        3 GROUP        1 Y    GLP  0     **** GLP Y 13
     7 ALL1       15 GROUP        1 Z    ALL  0     ROOT ALL Z 15
     8 SEL2       12 GROUP        1 Z    SEL  0     **** SEL Z 16
     9 GLL5        2 GROUP        1 Z    GLL  0     **** GLL Z 20
@<TRIPOS>SET

