#    Name: 3upt_TPP_1_ligand
#    Modification time : Mon Mar 24 23:15:51 2014

@<TRIPOS>MOLECULE
3upt_TPP_1_ligand
   42    43     1     0     0
SMALL
NO_CHARGES


@<TRIPOS>ATOM
      1 N1'        36.7920   33.9460  -44.3960 N.ar      1 TPP692      0.0000 
      2 C2'        37.5730   32.9690  -43.8410 C.ar      1 TPP692      0.0000 
      3 CM2        37.6040   32.7540  -42.3470 C.3       1 TPP692      0.0000 
      4 N3'        38.3240   32.1650  -44.6210 N.ar      1 TPP692      0.0000 
      5 C4'        38.3370   32.3050  -45.9650 C.ar      1 TPP692      0.0000 
      6 N4'        39.1140   31.4760  -46.6900 N.pl3     1 TPP692      0.0000 
      7 C5'        37.4960   33.3540  -46.6160 C.ar      1 TPP692      0.0000 
      8 C6'        36.7500   34.1560  -45.7390 C.ar      1 TPP692      0.0000 
      9 C7'        37.4510   33.5400  -48.1280 C.3       1 TPP692      0.0000 
     10 N3         38.7390   34.1380  -48.5050 N.pl3     1 TPP692      0.0000 
     11 C2         39.7920   33.3830  -48.9320 C.2       1 TPP692      0.0000 
     12 S1         41.2800   34.2630  -49.2320 S.3       1 TPP692      0.0000 
     13 C5         40.4090   35.7130  -48.7760 C.2       1 TPP692      0.0000 
     14 C4         39.0060   35.4640  -48.4010 C.2       1 TPP692      0.0000 
     15 CM4        38.0650   36.5660  -47.9820 C.3       1 TPP692      0.0000 
     16 C6         41.1160   37.0310  -48.8780 C.3       1 TPP692      0.0000 
     17 C7         42.3440   37.0980  -48.0230 C.3       1 TPP692      0.0000 
     18 O7         43.3130   37.5510  -48.9540 O.3       1 TPP692      0.0000 
     19 PA         44.8190   37.5820  -48.4410 P.3       1 TPP692      0.0000 
     20 O1A        44.9690   36.7000  -47.2230 O.co2     1 TPP692      0.0000 
     21 O2A        45.2270   39.0390  -48.3820 O.co2     1 TPP692      0.0000 
     22 O3A        45.4560   36.6590  -49.5920 O.3       1 TPP692      0.0000 
     23 PB         46.0490   37.0510  -51.0300 P.3       1 TPP692      0.0000 
     24 O1B        44.8810   37.1580  -51.9290 O.co2     1 TPP692      0.0000 
     25 O2B        46.8390   38.3310  -50.8420 O.co2     1 TPP692      0.0000 
     26 O3B        46.8150   35.7950  -51.2990 O.co2     1 TPP692      0.0000 
     27 H          39.0876   31.6031  -47.6815 H         1 TPP692      0.0000 
     28 H          39.6477   30.8077  -46.1719 H         1 TPP692      0.0000 
     29 H          36.1650   34.9136  -46.1387 H         1 TPP692      0.0000 
     30 H          36.6331   34.1960  -48.3733 H         1 TPP692      0.0000 
     31 H          37.3203   32.5775  -48.5929 H         1 TPP692      0.0000 
     32 H          39.9004   32.4528  -49.1088 H         1 TPP692      0.0000 
     33 H          40.4235   37.8389  -48.5854 H         1 TPP692      0.0000 
     34 H          41.3938   37.2143  -49.9302 H         1 TPP692      0.0000 
     35 H          42.5636   36.1204  -47.6519 H         1 TPP692      0.0000 
     36 H          42.1807   37.7992  -47.2336 H         1 TPP692      0.0000 
     37 H          38.2167   32.0059  -42.0921 H         1 TPP692      0.0000 
     38 H          37.9187   33.5693  -41.8609 H         1 TPP692      0.0000 
     39 H          36.6994   32.5281  -41.9854 H         1 TPP692      0.0000 
     40 H          38.5127   37.4601  -47.9912 H         1 TPP692      0.0000 
     41 H          37.2727   36.6286  -48.5889 H         1 TPP692      0.0000 
     42 H          37.7146   36.4232  -47.0564 H         1 TPP692      0.0000 
@<TRIPOS>BOND
     1    2    1 ar   
     2    8    1 ar   
     3    3    2 1    
     4    4    2 ar   
     5   37    3 1    
     6   38    3 1    
     7   39    3 1    
     8    5    4 ar   
     9    6    5 1    
    10    7    5 ar   
    11   27    6 1    
    12   28    6 1    
    13    8    7 ar   
    14    9    7 1    
    15   29    8 1    
    16   10    9 1    
    17   30    9 1    
    18   31    9 1    
    19   11   10 2    
    20   14   10 1    
    21   12   11 1    
    22   32   11 1    
    23   13   12 1    
    24   14   13 2    
    25   16   13 1    
    26   15   14 1    
    27   40   15 1    
    28   41   15 1    
    29   42   15 1    
    30   17   16 1    
    31   33   16 1    
    32   34   16 1    
    33   18   17 1    
    34   35   17 1    
    35   36   17 1    
    36   19   18 1    
    37   20   19 ar   
    38   21   19 ar   
    39   22   19 1    
    40   23   22 1    
    41   24   23 ar   
    42   25   23 ar   
    43   26   23 ar   
@<TRIPOS>SUBSTRUCTURE
     1 TPP692      1 GROUP   
@<TRIPOS>SET

