#    Name: 1wzy_F29_1_INTS_M
#    Modification time : Tue Mar 25 09:29:39 2014

@<TRIPOS>MOLECULE
1wzy_F29_1_INTS_M
   58     0     9     0     0
SMALL
NO_CHARGES


@<TRIPOS>ATOM
      1 N           3.4100    8.2320   45.7220 N.am      2 SEC2        0.0000 
      2 N           3.9230    8.3070   44.4180 N.am      8 SEL2        0.0000 
      3 N           2.8970    8.1570   47.0260 N.am      5 SEP2        0.0000 
      4 CA          6.1645    9.9600   46.1150 C.3       3 GLC5        0.0000 
      5 CA          5.9070    7.7740   45.7160 C.3       9 GLL5        0.0000 
      6 CA          6.4220   12.1460   46.5140 C.3       6 GLP5        0.0000 
      7 CA          5.7295    5.1960   49.2765 C.3       3 GLC5        0.0000 
      8 CA          5.6820    6.2580   47.7760 C.3       9 GLL5        0.0000 
      9 CA          5.7770    4.1340   50.7770 C.3       6 GLP5        0.0000 
     10 CA          6.2745    6.0435   49.8890 C.3       3 GLC5        0.0000 
     11 CA          6.9880    6.6520   48.2680 C.3       9 GLL5        0.0000 
     12 CA          5.5610    5.4350   51.5100 C.3       6 GLP5        0.0000 
     13 CA          9.7715    7.7670   46.7180 C.3       3 GLC5        0.0000 
     14 CA          7.7450    7.6220   47.5000 C.3       9 GLL5        0.0000 
     15 CA         11.7980    7.9120   45.9360 C.3       6 GLP5        0.0000 
     16 CA          8.0305    9.9845   46.2375 C.3       3 GLC5        0.0000 
     17 CA          7.2010    8.1750   46.2730 C.3       9 GLL5        0.0000 
     18 CA          8.8600   11.7940   46.2020 C.3       6 GLP5        0.0000 
     19 CA          5.6770    8.5485   46.7825 C.3       3 GLC5        0.0000 
     20 CA          4.1530    8.9220   47.2920 C.3       6 GLP5        0.0000 
     21 N          13.0915    6.5850   41.8160 N.am      2 SEC2        0.0000 
     22 N          11.8930    7.5550   42.0390 N.am      8 SEL2        0.0000 
     23 N          14.2900    5.6150   41.5930 N.am      5 SEP2        0.0000 
     24 O          11.7680    4.8200   43.4795 O.2       1 ALC1        0.0000 
     25 O          10.5930    5.6300   42.9600 O.2       7 ALL1        0.0000 
     26 O          12.9430    4.0100   43.9990 O.2       4 ALP1        0.0000 
     27 CA         14.1040    9.0400   41.6650 C.3       3 GLC5        0.0000 
     28 CA         12.5110    9.6130   40.7630 C.3       9 GLL5        0.0000 
     29 CA         15.6970    8.4670   42.5670 C.3       6 GLP5        0.0000 
     30 CA          9.9700    7.1315   38.9705 C.3       3 GLC5        0.0000 
     31 CA         11.2810    8.4130   38.8260 C.3       9 GLL5        0.0000 
     32 CA          8.6590    5.8500   39.1150 C.3       6 GLP5        0.0000 
     33 CA          1.2163    7.7903   41.7548 C.3       3 GLC5        0.0000 
     34 CA          2.0450    9.4760   41.2540 C.3       9 GLL5        0.0000 
     35 CA          0.2770    6.3240   41.5720 C.3       6 GLP5        0.0000 
     36 CA          4.1349    7.5032   40.6836 C.3       3 GLC5        0.0000 
     37 CA          4.7630    9.0150   42.3420 C.3       9 GLL5        0.0000 
     38 CA          4.3240    5.5790   40.3400 C.3       6 GLP5        0.0000 
     39 CA          4.8872    8.7053   45.5628 C.3       3 GLC5        0.0000 
     40 CA          5.9080    8.7200   43.2030 C.3       9 GLL5        0.0000 
     41 CA          4.8820    7.8471   47.1201 C.3       3 GLC5        0.0000 
     42 CA          8.7743    8.0010   49.0100 C.3       3 GLC5        0.0000 
     43 CA         10.1820    8.8650   50.1360 C.3       6 GLP5        0.0000 
     44 CA          6.5188    8.4545   48.6225 C.3       3 GLC5        0.0000 
     45 CA          5.6710    9.7720   49.3610 C.3       6 GLP5        0.0000 
     46 CA          7.7235    5.2397   47.4700 C.3       3 GLC5        0.0000 
     47 CA          8.4070    3.4410   47.1790 C.3       6 GLP5        0.0000 
     48 CA         10.9172    8.2752   44.1745 C.3       3 GLC5        0.0000 
     49 CA          9.7430    8.0310   42.6790 C.3       9 GLL5        0.0000 
     50 CA          8.5185    6.7628   41.6461 C.3       3 GLC5        0.0000 
     51 CA          8.2540    5.3140   40.4900 C.3       6 GLP5        0.0000 
     52 CA         12.3852    6.9330   39.3498 C.3       3 GLC5        0.0000 
     53 CA         13.0180    4.9680   39.6070 C.3       6 GLP5        0.0000 
     54 CA         13.6698    8.3105   38.4093 C.3       3 GLC5        0.0000 
     55 CA         15.5870    7.7230   37.7260 C.3       6 GLP5        0.0000 
     56 CA         12.2288    9.0260   37.4202 C.3       3 GLC5        0.0000 
     57 CA         12.2240    9.3830   39.3590 C.3       9 GLL5        0.0000 
     58 CA         12.7050    9.1540   35.7480 C.3       6 GLP5        0.0000 
@<TRIPOS>BOND
@<TRIPOS>SUBSTRUCTURE
     1 ALC1       24 GROUP        1 X    ALC  0     ROOT ALC X 1
     2 SEC2        1 GROUP        1 X    SEC  0     **** SEC X 2
     3 GLC5        4 GROUP        1 X    GLC  0     **** GLC X 6
     4 ALP1       26 GROUP        1 Y    ALP  0     ROOT ALP Y 8
     5 SEP2        3 GROUP        1 Y    SEP  0     **** SEP Y 9
     6 GLP5        6 GROUP        1 Y    GLP  0     **** GLP Y 13
     7 ALL1       25 GROUP        1 Z    ALL  0     ROOT ALL Z 15
     8 SEL2        2 GROUP        1 Z    SEL  0     **** SEL Z 16
     9 GLL5        5 GROUP        1 Z    GLL  0     **** GLL Z 20
@<TRIPOS>SET

