#    Name: 1wzy_F29_1_ligand
#    Modification time : Tue Mar 25 09:29:39 2014

@<TRIPOS>MOLECULE
1wzy_F29_1_ligand
   42    46     1     0     0
SMALL
NO_CHARGES


@<TRIPOS>ATOM
      1 C1          2.0450    9.4760   41.2540 C.ar      1 F291001     0.0000 
      2 C2          2.2660    9.0370   42.6210 C.ar      1 F291001     0.0000 
      3 N3          3.5810    8.8170   43.0880 N.pl3     1 F291001     0.0000 
      4 C4          4.7630    9.0150   42.3420 C.ar      1 F291001     0.0000 
      5 C5          4.5680    9.4050   40.9410 C.ar      1 F291001     0.0000 
      6 C6          3.2260    9.6450   40.4130 C.ar      1 F291001     0.0000 
      7 N7          3.9230    8.3070   44.4180 N.ar      1 F291001     0.0000 
      8 C8          5.3350    8.2570   44.4640 C.ar      1 F291001     0.0000 
      9 C9          5.9080    8.7200   43.2030 C.ar      1 F291001     0.0000 
     10 C10         7.3170    8.9150   42.8500 C.ar      1 F291001     0.0000 
     11 C11         5.9070    7.7740   45.7160 C.ar      1 F291001     0.0000 
     12 C12         5.1730    6.7990   46.5250 C.ar      1 F291001     0.0000 
     13 C13         5.6820    6.2580   47.7760 C.ar      1 F291001     0.0000 
     14 C14         6.9880    6.6520   48.2680 C.ar      1 F291001     0.0000 
     15 C15         7.7450    7.6220   47.5000 C.ar      1 F291001     0.0000 
     16 C16         7.2010    8.1750   46.2730 C.ar      1 F291001     0.0000 
     17 C22         8.3290    7.8690   43.0010 C.ar      1 F291001     0.0000 
     18 C23         9.7430    8.0310   42.6790 C.ar      1 F291001     0.0000 
     19 C24        10.3300    9.2460   42.1470 C.ar      1 F291001     0.0000 
     20 N25         9.4080   10.3150   42.0010 N.ar      1 F291001     0.0000 
     21 N26         7.8580   10.1350   42.3520 N.ar      1 F291001     0.0000 
     22 C27        10.7430    6.9950   42.6320 C.2       1 F291001     0.0000 
     23 N28        11.8930    7.5550   42.0390 N.2       1 F291001     0.0000 
     24 N29        11.6460    8.9790   41.6930 N.pl3     1 F291001     0.0000 
     25 N30        10.5930    5.6300   42.9600 N.pl3     1 F291001     0.0000 
     26 C3         12.5110    9.6130   40.7630 C.3       1 F291001     0.0000 
     27 C7         12.2240    9.3830   39.3590 C.2       1 F291001     0.0000 
     28 C17        11.2810    8.4130   38.8260 C.2       1 F291001     0.0000 
     29 H           1.1405    9.6525   40.9072 H         1 F291001     0.0000 
     30 H           1.4648    8.8935   43.2262 H         1 F291001     0.0000 
     31 H           5.3698    9.5080   40.3376 H         1 F291001     0.0000 
     32 H           3.1151    9.9329   39.4486 H         1 F291001     0.0000 
     33 H           4.2530    6.4835   46.1893 H         1 F291001     0.0000 
     34 H           5.1207    5.6041   48.3035 H         1 F291001     0.0000 
     35 H           7.3548    6.2676   49.1093 H         1 F291001     0.0000 
     36 H           8.6581    7.9154   47.8211 H         1 F291001     0.0000 
     37 H           7.7478    8.8846   45.7652 H         1 F291001     0.0000 
     38 H           8.0172    6.9463   43.3632 H         1 F291001     0.0000 
     39 H          13.5831    9.3093   40.9666 H         1 F291001     0.0000 
     40 H          12.5243   10.7301   40.9503 H         1 F291001     0.0000 
     41 H          12.7465    9.9726   38.6610 H         1 F291001     0.0000 
     42 H          11.5009    5.3340   43.2568 H         1 F291001     0.0000 
@<TRIPOS>BOND
     1    2    1 ar   
     2    6    1 ar   
     3   29    1 1    
     4    3    2 ar   
     5   30    2 1    
     6    4    3 ar   
     7    7    3 ar   
     8    5    4 ar   
     9    9    4 ar   
    10    6    5 ar   
    11   31    5 1    
    12   32    6 1    
    13    8    7 ar   
    14    9    8 ar   
    15   11    8 1    
    16   10    9 1    
    17   17   10 ar   
    18   21   10 ar   
    19   12   11 ar   
    20   16   11 ar   
    21   13   12 ar   
    22   33   12 1    
    23   14   13 ar   
    24   34   13 1    
    25   15   14 ar   
    26   35   14 1    
    27   16   15 ar   
    28   36   15 1    
    29   37   16 1    
    30   18   17 ar   
    31   38   17 1    
    32   19   18 ar   
    33   22   18 1    
    34   20   19 ar   
    35   24   19 1    
    36   21   20 ar   
    37   23   22 2    
    38   25   22 1    
    39   24   23 1    
    40   26   24 1    
    41   42   25 1    
    42   27   26 1    
    43   39   26 1    
    44   40   26 1    
    45   28   27 2    
    46   41   27 1    
@<TRIPOS>SUBSTRUCTURE
     1 F291001     1 GROUP   
@<TRIPOS>SET

