#    Name: 3mvl_38P_1_INTS_M
#    Modification time : Mon Mar 24 23:43:09 2014

@<TRIPOS>MOLECULE
3mvl_38P_1_INTS_M
   79     0     9     0     0
SMALL
NO_CHARGES


@<TRIPOS>ATOM
      1 N          -1.4825   -7.7730   37.4700 N.am      2 SEC2        0.0000 
      2 N          -0.9900   -6.4920   37.5130 N.am      8 SEL2        0.0000 
      3 N          -1.9750   -9.0540   37.4270 N.am      5 SEP2        0.0000 
      4 CA          0.2460   -7.7935   38.6640 C.3       3 GLC5        0.0000 
      5 CA          0.0070   -6.2580   40.2330 C.3       9 GLL5        0.0000 
      6 CA          0.4850   -9.3290   37.0950 C.3       6 GLP5        0.0000 
      7 CA         -3.3005   -7.6085   41.4270 C.3       3 GLC5        0.0000 
      8 CA         -1.4400   -7.2210   42.0870 C.3       9 GLL5        0.0000 
      9 CA         -5.1610   -7.9960   40.7670 C.3       6 GLP5        0.0000 
     10 CA         -4.2785   -4.6745   35.7235 C.3       3 GLC5        0.0000 
     11 CA         -2.6070   -5.0050   35.3010 C.3       9 GLL5        0.0000 
     12 CA         -5.9500   -4.3440   36.1460 C.3       6 GLP5        0.0000 
     13 CA         -2.0480   -5.2595   33.2265 C.3       3 GLC5        0.0000 
     14 CA         -1.4890   -5.5140   31.1520 C.3       6 GLP5        0.0000 
     15 CA         -3.4565   -6.7515   36.1315 C.3       3 GLC5        0.0000 
     16 CA         -4.3060   -8.4980   36.9620 C.3       6 GLP5        0.0000 
     17 CA         -1.2215   -3.8055   34.4185 C.3       3 GLC5        0.0000 
     18 CA          0.1640   -2.6060   33.5360 C.3       6 GLP5        0.0000 
     19 CA         -6.9070    0.7045   30.5575 C.3       3 GLC5        0.0000 
     20 CA         -5.0170    0.4910   31.5610 C.3       9 GLL5        0.0000 
     21 CA         -8.7970    0.9180   29.5540 C.3       6 GLP5        0.0000 
     22 N           0.8725    0.7195   31.0565 N.am      2 SEC2        0.0000 
     23 N          -0.2550    0.1860   30.7050 N.am      8 SEL2        0.0000 
     24 N           2.0000    1.2530   31.4080 N.am      5 SEP2        0.0000 
     25 O          -2.1925    2.9300   29.6605 O.2       1 ALC1        0.0000 
     26 O          -1.3260    1.8300   29.5650 O.2       7 ALL1        0.0000 
     27 O          -3.0590    4.0300   29.7560 O.2       4 ALP1        0.0000 
     28 CA          2.0835    2.9295   28.2065 C.3       3 GLC5        0.0000 
     29 CA          0.0980    3.0220   28.4990 C.3       9 GLL5        0.0000 
     30 CA          4.0690    2.8370   27.9140 C.3       6 GLP5        0.0000 
     31 CA         -0.1515    4.5910   29.0890 C.3       3 GLC5        0.0000 
     32 CA         -0.4010    6.1600   29.6790 C.3       6 GLP5        0.0000 
     33 CA         -0.4175    3.7340   25.5265 C.3       3 GLC5        0.0000 
     34 CA         -0.7810    2.7040   27.3370 C.3       9 GLL5        0.0000 
     35 CA         -0.0540    4.7640   23.7160 C.3       6 GLP5        0.0000 
     36 CA         -0.2850    4.6570   27.8550 C.3       3 GLC5        0.0000 
     37 CA          0.2110    6.6100   28.3730 C.3       6 GLP5        0.0000 
     38 CA         -6.1480   -0.6750   35.4170 C.3       3 GLC5        0.0000 
     39 CA         -6.1570   -0.9250   33.3370 C.3       9 GLL5        0.0000 
     40 CA         -6.1390   -0.4250   37.4970 C.3       6 GLP5        0.0000 
     41 CA         -6.0535   -2.6345   34.7415 C.3       3 GLC5        0.0000 
     42 CA         -7.9990   -1.3275   34.3975 C.3       3 GLC5        0.0000 
     43 CA         -9.8410   -1.7300   35.4580 C.3       6 GLP5        0.0000 
     44 CA         -5.5475   -2.5660   32.3965 C.3       3 GLC5        0.0000 
     45 CA         -4.9380   -4.2070   31.4560 C.3       6 GLP5        0.0000 
     46 CA         -4.1067   -3.7893   36.1690 C.3       3 GLC5        0.0000 
     47 CA         -2.3250   -2.5670   36.1360 C.3       9 GLL5        0.0000 
     48 CA         -1.0497   -2.9203   34.8640 C.3       3 GLC5        0.0000 
     49 CA         -2.2020   -3.9020   36.2480 C.3       9 GLL5        0.0000 
     50 CA         -3.1957   -5.0530   38.0808 C.3       3 GLC5        0.0000 
     51 CA         -4.5180   -6.0720   39.2520 C.3       6 GLP5        0.0000 
     52 CA          0.1480   -2.9655   36.6352 C.3       3 GLC5        0.0000 
     53 CA         -1.5450   -4.1660   37.5710 C.3       9 GLL5        0.0000 
     54 CA          1.7180   -2.3500   35.3850 C.3       6 GLP5        0.0000 
     55 CA          0.9789   -7.4477   41.7403 C.3       3 GLC5        0.0000 
     56 CA          2.7410   -8.1420   41.9440 C.3       6 GLP5        0.0000 
     57 CA         -1.4438   -1.6965   33.0403 C.3       3 GLC5        0.0000 
     58 CA         -3.6210   -1.0130   32.9090 C.3       9 GLL5        0.0000 
     59 CA         -6.4398    0.7342   33.5380 C.3       3 GLC5        0.0000 
     60 CA         -4.9180   -0.4780   32.5950 C.3       9 GLL5        0.0000 
     61 CA         -7.3420    2.1700   34.1100 C.3       6 GLP5        0.0000 
     62 CA         -3.1105    0.0398   28.9453 C.3       3 GLC5        0.0000 
     63 CA         -3.8650    0.9270   30.8470 C.3       9 GLL5        0.0000 
     64 CA         -3.0010   -0.5840   26.8900 C.3       6 GLP5        0.0000 
     65 CA         -4.0065    2.0272   32.1190 C.3       3 GLC5        0.0000 
     66 CA         -2.5750    0.4000   31.1540 C.3       9 GLL5        0.0000 
     67 CA         -4.5050    3.5000   33.0590 C.3       6 GLP5        0.0000 
     68 CA         -1.9808   -1.4928   30.4785 C.3       3 GLC5        0.0000 
     69 CA         -1.4330   -2.9050   29.2900 C.3       6 GLP5        0.0000 
     70 CA         -4.1569   -2.4301   31.9610 C.3       3 GLC5        0.0000 
     71 CA         -2.4820   -0.5610   32.1800 C.3       9 GLL5        0.0000 
     72 CA         -1.8420    0.8043   27.3633 C.3       3 GLC5        0.0000 
     73 CA          0.9367    2.5212   29.8193 C.3       3 GLC5        0.0000 
     74 CA         -0.5850    1.6810   28.3360 C.3       9 GLL5        0.0000 
     75 CA          2.1170    2.6910   31.2210 C.3       6 GLP5        0.0000 
     76 CA          0.5710    0.9733   26.5688 C.3       3 GLC5        0.0000 
     77 CA          1.8250   -0.2460   25.3010 C.3       6 GLP5        0.0000 
     78 CA         -2.1746    3.4129   27.7016 C.3       3 GLC5        0.0000 
     79 CA         -3.8370    4.2980   27.5260 C.3       6 GLP5        0.0000 
@<TRIPOS>BOND
@<TRIPOS>SUBSTRUCTURE
     1 ALC1       25 GROUP        1 X    ALC  0     ROOT ALC X 1
     2 SEC2        1 GROUP        1 X    SEC  0     **** SEC X 2
     3 GLC5        4 GROUP        1 X    GLC  0     **** GLC X 6
     4 ALP1       27 GROUP        1 Y    ALP  0     ROOT ALP Y 8
     5 SEP2        3 GROUP        1 Y    SEP  0     **** SEP Y 9
     6 GLP5        6 GROUP        1 Y    GLP  0     **** GLP Y 13
     7 ALL1       26 GROUP        1 Z    ALL  0     ROOT ALL Z 15
     8 SEL2        2 GROUP        1 Z    SEL  0     **** SEL Z 16
     9 GLL5        5 GROUP        1 Z    GLL  0     **** GLL Z 20
@<TRIPOS>SET

