#    Name: 3mvl_38P_1_ligand
#    Modification time : Mon Mar 24 23:43:09 2014

@<TRIPOS>MOLECULE
3mvl_38P_1_ligand
   56    59     1     0     0
SMALL
NO_CHARGES


@<TRIPOS>ATOM
      1 N1         -1.7750   -1.9400   37.3310 N.pl3     1 38P361      0.0000 
      2 N2         -1.7500   -0.6890   37.5150 N.2       1 38P361      0.0000 
      3 C3         -2.2500    0.1800   36.5750 C.2       1 38P361      0.0000 
      4 N4         -2.8010   -0.2780   35.3960 N.2       1 38P361      0.0000 
      5 C5         -2.8770   -1.6300   35.0990 C.2       1 38P361      0.0000 
      6 C6         -2.3250   -2.5670   36.1360 C.2       1 38P361      0.0000 
      7 C7         -2.2020   -3.9020   36.2480 C.2       1 38P361      0.0000 
      8 C8         -1.5450   -4.1660   37.5710 C.2       1 38P361      0.0000 
      9 C9         -1.2990   -2.9960   38.2000 C.2       1 38P361      0.0000 
     10 C10        -1.1700   -5.4880   38.2030 C.2       1 38P361      0.0000 
     11 O11        -0.9900   -6.4920   37.5130 O.2       1 38P361      0.0000 
     12 N12        -1.0470   -5.4900   39.5610 N.am      1 38P361      0.0000 
     13 C13         0.0070   -6.2580   40.2330 C.3       1 38P361      0.0000 
     14 C14        -0.2600   -6.3140   41.7390 C.3       1 38P361      0.0000 
     15 C15        -1.4400   -7.2210   42.0870 C.3       1 38P361      0.0000 
     16 C16        -2.6070   -5.0050   35.3010 C.3       1 38P361      0.0000 
     17 N17        -3.4470   -1.9540   33.8950 N.pl3     1 38P361      0.0000 
     18 C18        -3.6210   -1.0130   32.9090 C.ar      1 38P361      0.0000 
     19 C19        -4.9180   -0.4780   32.5950 C.ar      1 38P361      0.0000 
     20 C20        -5.0170    0.4910   31.5610 C.ar      1 38P361      0.0000 
     21 C21        -3.8650    0.9270   30.8470 C.ar      1 38P361      0.0000 
     22 C22        -2.5750    0.4000   31.1540 C.ar      1 38P361      0.0000 
     23 C23        -2.4820   -0.5610   32.1800 C.ar      1 38P361      0.0000 
     24 C24        -1.3060    0.7900   30.4660 C.2       1 38P361      0.0000 
     25 O25        -0.2550    0.1860   30.7050 O.2       1 38P361      0.0000 
     26 N26        -1.3260    1.8300   29.5650 N.am      1 38P361      0.0000 
     27 C27        -0.5850    1.6810   28.3360 C.3       1 38P361      0.0000 
     28 C28         0.0980    3.0220   28.4990 C.3       1 38P361      0.0000 
     29 C29        -0.7810    2.7040   27.3370 C.3       1 38P361      0.0000 
     30 C30        -6.1570   -0.9250   33.3370 C.3       1 38P361      0.0000 
     31 H          -2.2133    1.2059   36.7542 H         1 38P361      0.0000 
     32 H          -0.9015   -2.8379   39.0347 H         1 38P361      0.0000 
     33 H          -1.6865   -4.9546   40.1678 H         1 38P361      0.0000 
     34 H           0.9848   -5.7966   40.0751 H         1 38P361      0.0000 
     35 H           0.0441   -7.2818   39.8531 H         1 38P361      0.0000 
     36 H          -0.4655   -5.3021   42.1034 H         1 38P361      0.0000 
     37 H           0.6373   -6.6816   42.2476 H         1 38P361      0.0000 
     38 H          -3.7559   -2.9362   33.7223 H         1 38P361      0.0000 
     39 H          -5.9344    0.8845   31.3234 H         1 38P361      0.0000 
     40 H          -3.9615    1.6245   30.1067 H         1 38P361      0.0000 
     41 H          -1.5548   -0.9583   32.4190 H         1 38P361      0.0000 
     42 H          -1.8354    2.6858   29.7305 H         1 38P361      0.0000 
     43 H           0.0666    1.0851   28.1478 H         1 38P361      0.0000 
     44 H           0.9989    2.9174   28.2287 H         1 38P361      0.0000 
     45 H          -0.4047    3.5234   29.1247 H         1 38P361      0.0000 
     46 H          -1.6277    3.1408   27.4675 H         1 38P361      0.0000 
     47 H          -0.2241    2.5348   26.5716 H         1 38P361      0.0000 
     48 H          -1.2873   -8.1617   41.7842 H         1 38P361      0.0000 
     49 H          -1.6053   -7.2536   43.0727 H         1 38P361      0.0000 
     50 H          -2.2876   -6.9089   41.6578 H         1 38P361      0.0000 
     51 H          -2.1443   -4.9250   34.4181 H         1 38P361      0.0000 
     52 H          -2.3856   -5.9088   35.6672 H         1 38P361      0.0000 
     53 H          -3.5902   -4.9955   35.1186 H         1 38P361      0.0000 
     54 H          -6.3144   -1.9077   33.2390 H         1 38P361      0.0000 
     55 H          -6.0921   -0.7349   34.3166 H         1 38P361      0.0000 
     56 H          -6.9777   -0.4619   33.0023 H         1 38P361      0.0000 
@<TRIPOS>BOND
     1    2    1 1    
     2    6    1 1    
     3    9    1 1    
     4    3    2 2    
     5    4    3 1    
     6   31    3 1    
     7    5    4 2    
     8    6    5 1    
     9   17    5 1    
    10    7    6 2    
    11    8    7 1    
    12   16    7 1    
    13    9    8 2    
    14   10    8 1    
    15   32    9 1    
    16   11   10 2    
    17   12   10 am   
    18   13   12 1    
    19   33   12 1    
    20   14   13 1    
    21   34   13 1    
    22   35   13 1    
    23   15   14 1    
    24   36   14 1    
    25   37   14 1    
    26   48   15 1    
    27   49   15 1    
    28   50   15 1    
    29   51   16 1    
    30   52   16 1    
    31   53   16 1    
    32   18   17 1    
    33   38   17 1    
    34   19   18 ar   
    35   23   18 ar   
    36   20   19 ar   
    37   30   19 1    
    38   21   20 ar   
    39   39   20 1    
    40   22   21 ar   
    41   40   21 1    
    42   23   22 ar   
    43   24   22 1    
    44   41   23 1    
    45   25   24 2    
    46   26   24 am   
    47   27   26 1    
    48   42   26 1    
    49   28   27 1    
    50   29   27 1    
    51   43   27 1    
    52   29   28 1    
    53   44   28 1    
    54   45   28 1    
    55   46   29 1    
    56   47   29 1    
    57   54   30 1    
    58   55   30 1    
    59   56   30 1    
@<TRIPOS>SUBSTRUCTURE
     1 38P361      1 GROUP   
@<TRIPOS>SET

