#    Name: 4bqg_50Q_1_INTS_M
#    Modification time : Tue Mar 25 08:05:48 2014

@<TRIPOS>MOLECULE
4bqg_50Q_1_INTS_M
   50     0     6     0     0
SMALL
NO_CHARGES


@<TRIPOS>ATOM
      1 O          -3.8215   11.7265   24.7400 O.2       1 ALC1        0.0000 
      2 O          -2.6500   11.2640   25.1580 O.2       5 ALL1        0.0000 
      3 O          -4.9930   12.1890   24.3220 O.2       3 ALP1        0.0000 
      4 CA         -2.5535    9.8795   25.3175 C.3       2 GLC5        0.0000 
      5 CA         -1.5390   11.6570   24.4650 C.3       6 GLL5        0.0000 
      6 CA         -3.5680    8.1020   26.1700 C.3       4 GLP5        0.0000 
      7 CA          4.8425   10.4400   25.7725 C.3       2 GLC5        0.0000 
      8 CA          4.3400   11.4740   24.1430 C.3       6 GLL5        0.0000 
      9 CA          5.3450    9.4060   27.4020 C.3       4 GLP5        0.0000 
     10 CA          6.3875   15.1430   23.1585 C.3       2 GLC5        0.0000 
     11 CA          7.1640   14.3320   24.4350 C.3       6 GLL5        0.0000 
     12 CA          5.6110   15.9540   21.8820 C.3       4 GLP5        0.0000 
     13 CA          8.4930   13.6380   23.0345 C.3       2 GLC5        0.0000 
     14 CA          9.8220   12.9440   21.6340 C.3       4 GLP5        0.0000 
     15 CA          7.5685   16.2985   24.5070 C.3       2 GLC5        0.0000 
     16 CA          7.9730   18.2650   24.5790 C.3       4 GLP5        0.0000 
     17 CA          4.5895   15.6420   27.6950 C.3       2 GLC5        0.0000 
     18 CA          4.8630   15.7120   25.6620 C.3       6 GLL5        0.0000 
     19 CA          4.3160   15.5720   29.7280 C.3       4 GLP5        0.0000 
     20 CA          4.6050   16.1015   23.8440 C.3       2 GLC5        0.0000 
     21 CA          4.3470   16.4910   22.0260 C.3       4 GLP5        0.0000 
     22 CA          3.5075   16.9385   25.1510 C.3       2 GLC5        0.0000 
     23 CA          2.1520   18.1650   24.6400 C.3       4 GLP5        0.0000 
     24 CA          5.5575   17.3545   25.9435 C.3       2 GLC5        0.0000 
     25 CA          6.2520   18.9970   26.2250 C.3       4 GLP5        0.0000 
     26 CA          5.5065   12.2775   26.1953 C.3       2 GLC5        0.0000 
     27 CA          5.6310   13.4140   24.5000 C.3       6 GLL5        0.0000 
     28 CA          5.4170   11.7940   28.1320 C.3       4 GLP5        0.0000 
     29 CA         -0.9542   10.8140   22.3115 C.3       2 GLC5        0.0000 
     30 CA         -0.3230    9.6590   20.7800 C.3       4 GLP5        0.0000 
     31 CA         -3.1382   10.7605   22.9605 C.3       2 GLC5        0.0000 
     32 CA         -1.6320   12.2810   23.2210 C.3       6 GLL5        0.0000 
     33 CA         -4.6910    9.5520   22.0780 C.3       4 GLP5        0.0000 
     34 CA         -1.1150   14.4960   22.7383 C.3       2 GLC5        0.0000 
     35 CA         -1.1840   16.5270   22.5980 C.3       4 GLP5        0.0000 
     36 CA          5.0669   12.5832   22.3020 C.3       2 GLC5        0.0000 
     37 CA          5.5610   12.1080   24.0170 C.3       6 GLL5        0.0000 
     38 CA          4.8430   12.5640   20.3140 C.3       4 GLP5        0.0000 
     39 CA          2.8566   12.5983   26.6568 C.3       2 GLC5        0.0000 
     40 CA          3.2420   12.1030   24.7210 C.3       6 GLL5        0.0000 
     41 CA          2.1240   12.2790   28.3810 C.3       4 GLP5        0.0000 
     42 CA          4.5031   12.3558   26.5322 C.3       2 GLC5        0.0000 
     43 CA          3.3210   13.4180   25.2090 C.3       6 GLL5        0.0000 
     44 CA          0.0941   10.8880   22.1588 C.3       2 GLC5        0.0000 
     45 CA          0.8610   11.7240   24.2800 C.3       6 GLL5        0.0000 
     46 CA          0.5720   12.4952   26.2512 C.3       2 GLC5        0.0000 
     47 CA          0.8570   13.4390   27.8690 C.3       4 GLP5        0.0000 
     48 CA         -1.4961   13.3765   25.3545 C.3       2 GLC5        0.0000 
     49 CA         -0.2870   11.3790   24.9870 C.3       6 GLL5        0.0000 
     50 CA         -2.0560   15.0790   26.2940 C.3       4 GLP5        0.0000 
@<TRIPOS>BOND
@<TRIPOS>SUBSTRUCTURE
     1 ALC1        1 GROUP        1 X    ALC  0     ROOT ALC X 1
     2 GLC5        4 GROUP        1 X    GLC  0     **** GLC X 6
     3 ALP1        3 GROUP        1 Y    ALP  0     ROOT ALP Y 8
     4 GLP5        6 GROUP        1 Y    GLP  0     **** GLP Y 13
     5 ALL1        2 GROUP        1 Z    ALL  0     ROOT ALL Z 15
     6 GLL5        5 GROUP        1 Z    GLL  0     **** GLL Z 20
@<TRIPOS>SET

