#    Name: 4bqg_50Q_1_ligand
#    Modification time : Tue Mar 25 08:05:48 2014

@<TRIPOS>MOLECULE
4bqg_50Q_1_ligand
   25    26     1     0     0
SMALL
NO_CHARGES


@<TRIPOS>ATOM
      1 C10         5.5610   12.1080   24.0170 C.ar      1 50Q1225     0.0000 
      2 C13         4.5520   14.0460   25.0790 C.ar      1 50Q1225     0.0000 
      3 C15         3.3210   13.4180   25.2090 C.ar      1 50Q1225     0.0000 
      4 O05        -2.6500   11.2640   25.1580 O.3       1 50Q1225     0.0000 
      5 C04        -1.5390   11.6570   24.4650 C.ar      1 50Q1225     0.0000 
      6 C03        -1.6320   12.2810   23.2210 C.ar      1 50Q1225     0.0000 
      7 C02        -0.4600   12.6490   22.5360 C.ar      1 50Q1225     0.0000 
      8 O01        -0.5260   13.2590   21.3400 O.3       1 50Q1225     0.0000 
      9 C19         0.7830   12.3710   23.0540 C.ar      1 50Q1225     0.0000 
     10 C09         4.3400   11.4740   24.1430 C.ar      1 50Q1225     0.0000 
     11 C11         5.6310   13.4140   24.5000 C.ar      1 50Q1225     0.0000 
     12 C16         3.2420   12.1030   24.7210 C.ar      1 50Q1225     0.0000 
     13 CL6         7.1640   14.3320   24.4350 Cl        1 50Q1225     0.0000 
     14 O17         2.0800   11.3850   24.8160 O.3       1 50Q1225     0.0000 
     15 CL5         4.8630   15.7120   25.6620 Cl        1 50Q1225     0.0000 
     16 C18         0.8610   11.7240   24.2800 C.ar      1 50Q1225     0.0000 
     17 C06        -0.2870   11.3790   24.9870 C.ar      1 50Q1225     0.0000 
     18 H           6.3566   11.6590   23.6020 H         1 50Q1225     0.0000 
     19 H           2.5313   13.8684   25.6246 H         1 50Q1225     0.0000 
     20 H          -2.5464   12.4725   22.8041 H         1 50Q1225     0.0000 
     21 H           1.6336   12.6320   22.5530 H         1 50Q1225     0.0000 
     22 H           4.2342   10.4962   23.7963 H         1 50Q1225     0.0000 
     23 H          -0.2015   10.9143   25.9036 H         1 50Q1225     0.0000 
     24 H          -3.4105   11.7453   24.7221 H         1 50Q1225     0.0000 
     25 H           0.0149   14.0935   21.4450 H         1 50Q1225     0.0000 
@<TRIPOS>BOND
     1   10    1 ar   
     2   11    1 ar   
     3   18    1 1    
     4    3    2 ar   
     5   11    2 ar   
     6   15    2 1    
     7   12    3 ar   
     8   19    3 1    
     9    5    4 1    
    10   24    4 1    
    11    6    5 ar   
    12   17    5 ar   
    13    7    6 ar   
    14   20    6 1    
    15    8    7 1    
    16    9    7 ar   
    17   25    8 1    
    18   16    9 ar   
    19   21    9 1    
    20   12   10 ar   
    21   22   10 1    
    22   13   11 1    
    23   14   12 1    
    24   16   14 1    
    25   17   16 ar   
    26   23   17 1    
@<TRIPOS>SUBSTRUCTURE
     1 50Q1225     1 GROUP   
@<TRIPOS>SET

