#    Name: 2OP9_1_CAVITY_N1_ALL.mol2
#    Modification time : Tue Mar 11 03:35:33 2014

@<TRIPOS>MOLECULE
2OP9_1_CAVITY_N1_ALL.mol2
   66     0     3     0     0
SMALL
NO_CHARGES


@<TRIPOS>ATOM
      1 CA         -6.7166   30.9298   75.8948 C.3       2 GLY6        0.0000 
      2 DU         -5.6289   30.2286   75.1364 H         3 CUB7        0.0000 
      3 CA         -8.7898   30.5966   76.1961 C.3       2 GLY6        0.0000 
      4 CA         -7.7021   29.8954   75.4378 C.3       2 GLY6        0.0000 
      5 DU         -6.6143   29.1941   74.6794 H         3 CUB7        0.0000 
      6 CA         -8.6875   28.8610   74.9808 C.3       2 GLY6        0.0000 
      7 DU         -7.5998   28.1597   74.2224 H         3 CUB7        0.0000 
      8 DU         -6.5121   27.4585   73.4640 H         3 CUB7        0.0000 
      9 CA         -9.6730   27.8266   74.5238 C.3       2 GLY6        0.0000 
     10 N          -8.5853   27.1253   73.7654 N.2       1 ALA2        0.0000 
     11 N          -7.4976   26.4241   73.0070 N.2       1 ALA2        0.0000 
     12 CA        -10.6585   26.7921   74.0668 C.3       2 GLY6        0.0000 
     13 N          -9.5708   26.0909   73.3084 N.2       1 ALA2        0.0000 
     14 N          -8.4830   25.3897   72.5500 N.2       1 ALA2        0.0000 
     15 N          -7.3953   24.6885   71.7917 N.2       1 ALA2        0.0000 
     16 N          -9.4685   24.3553   72.0930 N.2       1 ALA2        0.0000 
     17 N          -8.3808   23.6541   71.3347 N.2       1 ALA2        0.0000 
     18 N         -10.4540   23.3209   71.6361 N.2       1 ALA2        0.0000 
     19 N          -9.3663   22.6197   70.8777 N.2       1 ALA2        0.0000 
     20 CA         -8.2785   21.9184   70.1193 C.3       2 GLY6        0.0000 
     21 N         -10.3517   21.5852   70.4207 N.2       1 ALA2        0.0000 
     22 CA         -7.0834   28.2361   77.8593 C.3       2 GLY6        0.0000 
     23 CA         -8.0688   27.2017   77.4024 C.3       2 GLY6        0.0000 
     24 CA         -9.0543   26.1673   76.9454 C.3       2 GLY6        0.0000 
     25 O          -7.9666   25.4661   76.1870 O.2       1 ALA2        0.0000 
     26 CA         -5.9382   31.0582   73.9256 C.3       2 GLY6        0.0000 
     27 N          -8.0114   30.7250   74.2270 N.2       1 ALA2        0.0000 
     28 N          -6.9237   30.0238   73.4686 N.2       1 ALA2        0.0000 
     29 CA        -10.0846   30.3918   74.5284 C.3       2 GLY6        0.0000 
     30 N          -8.9969   29.6906   73.7700 N.2       1 ALA2        0.0000 
     31 CA         -7.9092   28.9894   73.0116 C.3       2 GLY6        0.0000 
     32 DU         -6.8214   28.2881   72.2532 H         3 CUB7        0.0000 
     33 CA        -11.0701   29.3574   74.0714 C.3       2 GLY6        0.0000 
     34 CA         -9.9824   28.6562   73.3130 C.3       2 GLY6        0.0000 
     35 CA         -8.8946   27.9550   72.5546 C.3       2 GLY6        0.0000 
     36 N          -6.7192   26.5525   71.0378 N.2       1 ALA2        0.0000 
     37 N         -10.9678   27.6218   72.8560 N.2       1 ALA2        0.0000 
     38 CA         -9.8801   26.9205   72.0976 C.3       2 GLY6        0.0000 
     39 N          -8.7924   26.2193   71.3392 N.2       1 ALA2        0.0000 
     40 N          -7.7047   25.5181   70.5809 N.2       1 ALA2        0.0000 
     41 N         -10.8656   25.8861   71.6406 N.2       1 ALA2        0.0000 
     42 N          -9.7779   25.1849   70.8822 N.2       1 ALA2        0.0000 
     43 N          -8.6901   24.4837   70.1239 N.2       1 ALA2        0.0000 
     44 N          -7.6024   23.7825   69.3655 N.2       1 ALA2        0.0000 
     45 N         -10.7633   24.1505   70.4253 N.2       1 ALA2        0.0000 
     46 CA         -9.6756   23.4493   69.6669 C.3       2 GLY6        0.0000 
     47 CA         -8.5879   22.7481   68.9085 C.3       2 GLY6        0.0000 
     48 N         -10.6611   22.4149   69.2099 N.2       1 ALA2        0.0000 
     49 O         -10.3940   31.2214   73.3176 O.2       1 ALA2        0.0000 
     50 N          -9.3062   30.5202   72.5592 N.2       1 ALA2        0.0000 
     51 CA        -11.3794   30.1870   72.8606 C.3       2 GLY6        0.0000 
     52 CA        -10.2917   29.4858   72.1022 C.3       2 GLY6        0.0000 
     53 CA        -10.1895   27.7502   70.8868 C.3       2 GLY6        0.0000 
     54 N          -9.1017   27.0490   70.1284 N.2       1 ALA2        0.0000 
     55 CA        -11.1749   26.7158   70.4298 C.3       2 GLY6        0.0000 
     56 N         -10.0872   26.0145   69.6715 N.2       1 ALA2        0.0000 
     57 CA        -11.0727   24.9801   69.2145 C.3       2 GLY6        0.0000 
     58 CA         -9.9850   24.2789   68.4561 C.3       2 GLY6        0.0000 
     59 DU         -6.4072   30.1002   77.1055 H         3 CUB7        0.0000 
     60 CA         -8.4804   29.7670   77.4069 C.3       2 GLY6        0.0000 
     61 DU         -7.3927   29.0657   76.6486 H         3 CUB7        0.0000 
     62 CA         -8.3782   28.0313   76.1916 C.3       2 GLY6        0.0000 
     63 DU         -7.2905   27.3301   75.4332 H         3 CUB7        0.0000 
     64 CA         -9.3637   26.9969   75.7346 C.3       2 GLY6        0.0000 
     65 N          -8.2759   26.2957   74.9762 N.2       1 ALA2        0.0000 
     66 N         -10.3491   25.9625   75.2776 N.2       1 ALA2        0.0000 
@<TRIPOS>BOND
@<TRIPOS>SUBSTRUCTURE
     1 ALA2       10 GROUP   
     2 GLY6        1 GROUP   
     3 CUB7        2 GROUP   
@<TRIPOS>SET

