#    Name: 2op9_WR1_1_INTS_M
#    Modification time : Mon Mar 24 17:45:38 2014

@<TRIPOS>MOLECULE
2op9_WR1_1_INTS_M
   56     0     9     0     0
SMALL
NO_CHARGES


@<TRIPOS>ATOM
      1 N          -6.7865   28.8180   69.6750 N.am      2 SEC2        0.0000 
      2 N          -6.5520   28.5150   71.1060 N.am      8 SEL2        0.0000 
      3 N          -7.0210   29.1210   68.2440 N.am      5 SEP2        0.0000 
      4 CA         -8.5885   31.4570   75.5605 C.3       3 GLC5        0.0000 
      5 CA         -8.1050   29.7830   74.7610 C.3       9 GLL5        0.0000 
      6 CA         -9.0720   33.1310   76.3600 C.3       6 GLP5        0.0000 
      7 CA        -11.6755   25.3225   74.3435 C.3       3 GLC5        0.0000 
      8 CA        -10.5700   27.0350   73.7840 C.3       9 GLL5        0.0000 
      9 CA        -12.7810   23.6100   74.9030 C.3       6 GLP5        0.0000 
     10 CA        -10.3385   31.5140   74.8870 C.3       3 GLC5        0.0000 
     11 CA        -10.2570   29.7940   73.4820 C.3       9 GLL5        0.0000 
     12 CA        -10.4200   33.2340   76.2920 C.3       6 GLP5        0.0000 
     13 CA         -9.8820   29.8530   71.6085 C.3       3 GLC5        0.0000 
     14 CA         -9.5070   29.9120   69.7350 C.3       6 GLP5        0.0000 
     15 O          -7.1990   32.6255   74.8395 O.2       1 ALC1        0.0000 
     16 O          -5.8250   31.7550   74.5470 O.2       7 ALL1        0.0000 
     17 O          -8.5730   33.4960   75.1320 O.2       4 ALP1        0.0000 
     18 CA         -5.2545   34.1205   78.0355 C.3       3 GLC5        0.0000 
     19 CA         -5.1140   33.7280   75.8440 C.3       9 GLL5        0.0000 
     20 CA         -5.3950   34.5130   80.2270 C.3       6 GLP5        0.0000 
     21 CA         -6.1055   35.4735   76.0390 C.3       3 GLC5        0.0000 
     22 CA         -7.0970   37.2190   76.2340 C.3       6 GLP5        0.0000 
     23 CA         -7.0930   33.4295   76.1020 C.3       3 GLC5        0.0000 
     24 N          -1.7680   33.9010   73.5510 N.am      2 SEC2        0.0000 
     25 N          -3.2570   34.0880   73.8110 N.am      8 SEL2        0.0000 
     26 N          -0.2790   33.7140   73.2910 N.am      5 SEP2        0.0000 
     27 N          -3.5100   35.2210   72.6780 N.am      2 SEC2        0.0000 
     28 N          -3.7630   36.3540   71.5450 N.am      5 SEP2        0.0000 
     29 CA         -1.2340   32.1450   71.7720 C.3       3 GLC5        0.0000 
     30 CA         -3.0880   32.6100   71.2980 C.3       9 GLL5        0.0000 
     31 CA          0.6200   31.6800   72.2460 C.3       6 GLP5        0.0000 
     32 CA         -2.2900   34.6665   70.9525 C.3       3 GLC5        0.0000 
     33 CA         -1.4920   36.7230   70.6070 C.3       6 GLP5        0.0000 
     34 CA         -4.9383   27.0882   69.0697 C.3       3 GLC5        0.0000 
     35 CA         -4.1610   26.4210   70.7410 C.3       9 GLL5        0.0000 
     36 CA         -5.0380   28.0570   67.2300 C.3       6 GLP5        0.0000 
     37 CA         -3.6451   27.4340   68.4896 C.3       3 GLC5        0.0000 
     38 CA         -3.4620   25.9000   69.6440 C.3       9 GLL5        0.0000 
     39 CA        -10.7250   28.1033   75.3840 C.3       3 GLC5        0.0000 
     40 CA         -9.4620   27.6780   74.3360 C.3       9 GLL5        0.0000 
     41 CA        -11.4340   28.8500   76.7080 C.3       6 GLP5        0.0000 
     42 CA        -12.8810   27.1355   74.2815 C.3       3 GLC5        0.0000 
     43 CA        -14.7180   26.8650   75.1310 C.3       6 GLP5        0.0000 
     44 CA        -11.4350   28.6578   74.8568 C.3       3 GLC5        0.0000 
     45 CA        -11.5180   27.7770   73.0800 C.3       9 GLL5        0.0000 
     46 CA        -11.7760   28.8212   71.2987 C.3       3 GLC5        0.0000 
     47 CA        -12.1160   29.1770   69.5920 C.3       6 GLP5        0.0000 
     48 CA        -13.1820   29.3188   73.1538 C.3       3 GLC5        0.0000 
     49 CA        -11.3540   29.1540   72.9310 C.3       9 GLL5        0.0000 
     50 CA        -14.9280   30.1720   73.3020 C.3       6 GLP5        0.0000 
     51 CA        -10.4578   29.2288   75.3423 C.3       3 GLC5        0.0000 
     52 CA         -5.4075   33.5975   73.8235 C.3       3 GLC5        0.0000 
     53 CA         -4.6800   32.5560   74.9540 C.3       9 GLL5        0.0000 
     54 CA         -5.9180   34.0530   72.2480 C.3       6 GLP5        0.0000 
     55 CA         -4.7030   33.2080   72.0745 C.3       3 GLC5        0.0000 
     56 CA         -3.8880   32.1160   72.5040 C.3       9 GLL5        0.0000 
@<TRIPOS>BOND
@<TRIPOS>SUBSTRUCTURE
     1 ALC1       15 GROUP        1 X    ALC  0     ROOT ALC X 1
     2 SEC2        1 GROUP        1 X    SEC  0     **** SEC X 2
     3 GLC5        4 GROUP        1 X    GLC  0     **** GLC X 6
     4 ALP1       17 GROUP        1 Y    ALP  0     ROOT ALP Y 8
     5 SEP2        3 GROUP        1 Y    SEP  0     **** SEP Y 9
     6 GLP5        6 GROUP        1 Y    GLP  0     **** GLP Y 13
     7 ALL1       16 GROUP        1 Z    ALL  0     ROOT ALL Z 15
     8 SEL2        2 GROUP        1 Z    SEL  0     **** SEL Z 16
     9 GLL5        5 GROUP        1 Z    GLL  0     **** GLL Z 20
@<TRIPOS>SET

