#    Name: 2op9_WR1_1_ligand
#    Modification time : Mon Mar 24 17:45:38 2014

@<TRIPOS>MOLECULE
2op9_WR1_1_ligand
   55    56     1     0     0
SMALL
NO_CHARGES


@<TRIPOS>ATOM
      1 O4         -6.5520   28.5150   71.1060 O.2       1 WR1601      0.0000 
      2 C15        -6.5250   27.8900   72.1570 C.2       1 WR1601      0.0000 
      3 O5         -6.2310   26.4680   72.1340 O.3       1 WR1601      0.0000 
      4 C16        -5.5160   25.8180   71.0780 C.3       1 WR1601      0.0000 
      5 C17        -4.1610   26.4210   70.7410 C.ar      1 WR1601      0.0000 
      6 C18        -3.4620   25.9000   69.6440 C.ar      1 WR1601      0.0000 
      7 C19        -2.2190   26.4200   69.2890 C.ar      1 WR1601      0.0000 
      8 C20        -1.6640   27.4620   70.0320 C.ar      1 WR1601      0.0000 
      9 C21        -2.3460   27.9720   71.1330 C.ar      1 WR1601      0.0000 
     10 C22        -3.5920   27.4590   71.4880 C.ar      1 WR1601      0.0000 
     11 N2         -6.6950   28.3820   73.3840 N.am      1 WR1601      0.0000 
     12 C7         -6.9660   29.7610   73.7370 C.3       1 WR1601      0.0000 
     13 C8         -8.1050   29.7830   74.7610 C.3       1 WR1601      0.0000 
     14 C9         -9.3070   29.0590   74.1810 C.ar      1 WR1601      0.0000 
     15 C10        -9.4620   27.6780   74.3360 C.ar      1 WR1601      0.0000 
     16 C11       -10.5700   27.0350   73.7840 C.ar      1 WR1601      0.0000 
     17 C12       -11.5180   27.7770   73.0800 C.ar      1 WR1601      0.0000 
     18 C13       -11.3540   29.1540   72.9310 C.ar      1 WR1601      0.0000 
     19 C14       -10.2570   29.7940   73.4820 C.ar      1 WR1601      0.0000 
     20 C6         -5.7340   30.4410   74.3020 C.2       1 WR1601      0.0000 
     21 O3         -4.6870   29.8150   74.4860 O.2       1 WR1601      0.0000 
     22 N1         -5.8250   31.7550   74.5470 N.am      1 WR1601      0.0000 
     23 C4         -4.6800   32.5560   74.9540 C.3       1 WR1601      0.0000 
     24 C5         -5.1140   33.7280   75.8440 C.3       1 WR1601      0.0000 
     25 C3         -3.8920   33.0250   73.7460 C.2       1 WR1601      0.0000 
     26 O2         -3.2570   34.0880   73.8110 O.2       1 WR1601      0.0000 
     27 C2         -3.8880   32.1160   72.5040 C.3       1 WR1601      0.0000 
     28 C1         -3.0880   32.6100   71.2980 C.3       1 WR1601      0.0000 
     29 O1         -2.5760   31.4720   70.6260 O.3       1 WR1601      0.0000 
     30 H          -6.1205   25.8079   70.1347 H         1 WR1601      0.0000 
     31 H          -5.3495   24.7360   71.3165 H         1 WR1601      0.0000 
     32 H          -3.8718   25.1292   69.0998 H         1 WR1601      0.0000 
     33 H          -1.7123   26.0377   68.4827 H         1 WR1601      0.0000 
     34 H          -0.7517   27.8521   69.7655 H         1 WR1601      0.0000 
     35 H          -1.9284   28.7320   71.6883 H         1 WR1601      0.0000 
     36 H          -4.0951   27.8407   72.2973 H         1 WR1601      0.0000 
     37 H          -6.6326   27.7198   74.2323 H         1 WR1601      0.0000 
     38 H          -7.3004   30.3136   72.8670 H         1 WR1601      0.0000 
     39 H          -8.3674   30.8097   74.9789 H         1 WR1601      0.0000 
     40 H          -7.7801   29.2851   75.6649 H         1 WR1601      0.0000 
     41 H          -8.7603   27.1392   74.8557 H         1 WR1601      0.0000 
     42 H         -10.6866   26.0234   73.8952 H         1 WR1601      0.0000 
     43 H         -12.3360   27.3101   72.6717 H         1 WR1601      0.0000 
     44 H         -12.0578   29.6956   72.4055 H         1 WR1601      0.0000 
     45 H         -10.1433   30.8104   73.3756 H         1 WR1601      0.0000 
     46 H          -6.7303   32.2690   74.4562 H         1 WR1601      0.0000 
     47 H          -4.0029   31.9276   75.5625 H         1 WR1601      0.0000 
     48 H          -4.9420   31.9480   72.1893 H         1 WR1601      0.0000 
     49 H          -3.5029   31.1158   72.8030 H         1 WR1601      0.0000 
     50 H          -2.2977   33.2613   71.6682 H         1 WR1601      0.0000 
     51 H          -3.7602   33.1928   70.6700 H         1 WR1601      0.0000 
     52 H          -4.3348   34.2861   76.1292 H         1 WR1601      0.0000 
     53 H          -5.7529   34.3358   75.3724 H         1 WR1601      0.0000 
     54 H          -5.5695   33.4132   76.6767 H         1 WR1601      0.0000 
     55 H          -3.0512   31.4555   69.7463 H         1 WR1601      0.0000 
@<TRIPOS>BOND
     1    2    1 2    
     2    3    2 1    
     3   11    2 am   
     4    4    3 1    
     5    5    4 1    
     6   30    4 1    
     7   31    4 1    
     8    6    5 ar   
     9   10    5 ar   
    10    7    6 ar   
    11   32    6 1    
    12    8    7 ar   
    13   33    7 1    
    14    9    8 ar   
    15   34    8 1    
    16   10    9 ar   
    17   35    9 1    
    18   36   10 1    
    19   12   11 1    
    20   37   11 1    
    21   13   12 1    
    22   20   12 1    
    23   38   12 1    
    24   14   13 1    
    25   39   13 1    
    26   40   13 1    
    27   15   14 ar   
    28   19   14 ar   
    29   16   15 ar   
    30   41   15 1    
    31   17   16 ar   
    32   42   16 1    
    33   18   17 ar   
    34   43   17 1    
    35   19   18 ar   
    36   44   18 1    
    37   45   19 1    
    38   21   20 2    
    39   22   20 am   
    40   23   22 1    
    41   46   22 1    
    42   24   23 1    
    43   25   23 1    
    44   47   23 1    
    45   52   24 1    
    46   53   24 1    
    47   54   24 1    
    48   26   25 2    
    49   27   25 1    
    50   28   27 1    
    51   48   27 1    
    52   49   27 1    
    53   29   28 1    
    54   50   28 1    
    55   51   28 1    
    56   55   29 1    
@<TRIPOS>SUBSTRUCTURE
     1 WR1601      1 GROUP   
@<TRIPOS>SET

