#    Name: 1ywg_NAD_2_INTS_M
#    Modification time : Tue Mar 25 11:18:17 2014

@<TRIPOS>MOLECULE
1ywg_NAD_2_INTS_M
   72     0     9     0     0
SMALL
NO_CHARGES


@<TRIPOS>ATOM
      1 N          40.4805   15.8540  -14.3815 N.am      2 SEC2        0.0000 
      2 N          41.4660   14.7980  -14.8400 N.am      8 SEL2        0.0000 
      3 N          39.4950   16.9100  -13.9230 N.am      5 SEP2        0.0000 
      4 CA         37.3400   13.7745  -19.3280 C.3       3 GLC5        0.0000 
      5 CA         38.9040   13.1250  -18.4160 C.3       9 GLL5        0.0000 
      6 CA         35.7760   14.4240  -20.2400 C.3       6 GLP5        0.0000 
      7 O          36.5150   11.9785  -17.0650 O.2       1 ALC1        0.0000 
      8 O          37.8130   12.1790  -16.4090 O.2       7 ALL1        0.0000 
      9 O          35.2170   11.7780  -17.7210 O.2       4 ALP1        0.0000 
     10 O          36.4665    9.6075  -17.8710 O.2       1 ALC1        0.0000 
     11 O          37.9490    9.6230  -17.7320 O.2       7 ALL1        0.0000 
     12 O          34.9840    9.5920  -18.0100 O.2       4 ALP1        0.0000 
     13 O          36.5830   10.7005  -17.7265 O.2       1 ALC1        0.0000 
     14 CA         36.9035   12.8780  -19.9030 C.3       3 GLC5        0.0000 
     15 CA         38.0310   11.3320  -19.5660 C.3       9 GLL5        0.0000 
     16 CA         38.4120   12.4275  -21.4745 C.3       3 GLC5        0.0000 
     17 CA         38.7930   13.5230  -23.3830 C.3       6 GLP5        0.0000 
     18 CA         35.2840    8.0845  -24.8715 C.3       3 GLC5        0.0000 
     19 CA         36.5370    9.6660  -23.9550 C.3       9 GLL5        0.0000 
     20 CA         34.0310    6.5030  -25.7880 C.3       6 GLP5        0.0000 
     21 O          36.0725    8.3500  -26.1875 O.2       1 ALC1        0.0000 
     22 O          36.8360    8.9260  -25.0040 O.2       7 ALL1        0.0000 
     23 O          35.3090    7.7740  -27.3710 O.2       4 ALP1        0.0000 
     24 CA         35.3735   12.7635  -21.5235 C.3       3 GLC5        0.0000 
     25 CA         34.9710   11.1030  -22.8070 C.3       9 GLL5        0.0000 
     26 CA         33.8110   10.7070  -21.2175 C.3       3 GLC5        0.0000 
     27 CA         32.6510   10.3110  -19.6280 C.3       6 GLP5        0.0000 
     28 CA         34.3995    9.7045  -22.1065 C.3       3 GLC5        0.0000 
     29 CA         33.8280    8.3060  -21.4060 C.3       6 GLP5        0.0000 
     30 CA         36.1270   12.3845  -23.0560 C.3       3 GLC5        0.0000 
     31 CA         37.2830   13.6660  -23.3050 C.3       6 GLP5        0.0000 
     32 CA         36.4060   12.5190  -21.0180 C.3       3 GLC5        0.0000 
     33 CA         37.0360   10.6140  -21.7960 C.3       9 GLL5        0.0000 
     34 N          40.2475   18.5640  -15.9875 N.am      2 SEC2        0.0000 
     35 N          41.0280   17.6370  -16.7900 N.am      8 SEL2        0.0000 
     36 N          39.4670   19.4910  -15.1850 N.am      5 SEP2        0.0000 
     37 N          41.6255   20.3395  -20.9810 N.am      2 SEC2        0.0000 
     38 N          42.7480   20.0400  -20.0120 N.am      8 SEL2        0.0000 
     39 N          40.5030   20.6390  -21.9500 N.am      5 SEP2        0.0000 
     40 CA         42.6025   20.7265  -18.2380 C.3       3 GLC5        0.0000 
     41 CA         44.0330   20.3020  -19.5010 C.3       9 GLL5        0.0000 
     42 CA         41.1720   21.1510  -16.9750 C.3       6 GLP5        0.0000 
     43 CA         42.9355   21.0905  -17.1545 C.3       3 GLC5        0.0000 
     44 CA         44.6990   21.0300  -17.3340 C.3       9 GLL5        0.0000 
     45 N          46.5865   22.6860  -13.2635 N.am      2 SEC2        0.0000 
     46 N          46.1600   22.0810  -14.2910 N.am      8 SEL2        0.0000 
     47 N          47.0130   23.2910  -12.2360 N.am      5 SEP2        0.0000 
     48 CA         46.1880   24.2640  -15.2020 C.3       3 GLC5        0.0000 
     49 CA         45.1070   23.3260  -16.7300 C.3       9 GLL5        0.0000 
     50 CA         47.2690   25.2020  -13.6740 C.3       6 GLP5        0.0000 
     51 CA         43.6380   25.3785  -17.6395 C.3       3 GLC5        0.0000 
     52 CA         44.7800   23.7330  -18.0620 C.3       9 GLL5        0.0000 
     53 CA         42.4960   27.0240  -17.2170 C.3       6 GLP5        0.0000 
     54 CA         42.7955   21.9540  -17.9885 C.3       3 GLC5        0.0000 
     55 CA         44.4190   22.7570  -19.0020 C.3       9 GLL5        0.0000 
     56 CA         39.5170   14.0240  -20.4345 C.3       3 GLC5        0.0000 
     57 CA         39.4710   14.5410  -22.4740 C.3       6 GLP5        0.0000 
     58 CA         38.6330   14.0490  -16.4962 C.3       3 GLC5        0.0000 
     59 CA         40.2220   13.8890  -18.3740 C.3       9 GLL5        0.0000 
     60 CA         38.0680   15.3570  -15.0980 C.3       6 GLP5        0.0000 
     61 CA         37.9153    8.9735  -19.2568 C.3       3 GLC5        0.0000 
     62 CA         38.6700   10.7000  -18.2910 C.3       9 GLL5        0.0000 
     63 CA         37.4800    6.9310  -19.5850 C.3       6 GLP5        0.0000 
     64 CA         35.4186    9.2389  -22.0044 C.3       3 GLC5        0.0000 
     65 CA         37.1461   11.9189  -22.9539 C.3       3 GLC5        0.0000 
     66 CA         44.6450   19.8670  -22.3218 C.3       3 GLC5        0.0000 
     67 CA         44.3580   18.4010  -20.8270 C.3       9 GLL5        0.0000 
     68 CA         44.5310   20.7940  -24.1740 C.3       6 GLP5        0.0000 
     69 CA         45.9592   24.8678  -17.4075 C.3       3 GLC5        0.0000 
     70 CA         46.9750   26.2060  -17.4190 C.3       6 GLP5        0.0000 
     71 CA         43.1330   22.7873  -16.6983 C.3       3 GLC5        0.0000 
     72 CA         41.3340   22.3890  -16.0900 C.3       6 GLP5        0.0000 
@<TRIPOS>BOND
@<TRIPOS>SUBSTRUCTURE
     1 ALC1        7 GROUP        1 X    ALC  0     ROOT ALC X 1
     2 SEC2        1 GROUP        1 X    SEC  0     **** SEC X 2
     3 GLC5        4 GROUP        1 X    GLC  0     **** GLC X 6
     4 ALP1        9 GROUP        1 Y    ALP  0     ROOT ALP Y 8
     5 SEP2        3 GROUP        1 Y    SEP  0     **** SEP Y 9
     6 GLP5        6 GROUP        1 Y    GLP  0     **** GLP Y 13
     7 ALL1        8 GROUP        1 Z    ALL  0     ROOT ALL Z 15
     8 SEL2        2 GROUP        1 Z    SEL  0     **** SEL Z 16
     9 GLL5        5 GROUP        1 Z    GLL  0     **** GLL Z 20
@<TRIPOS>SET

