#    Name: 1ywg_NAD_2_ligand
#    Modification time : Tue Mar 25 11:18:17 2014

@<TRIPOS>MOLECULE
1ywg_NAD_2_ligand
   70    74     1     0     0
SMALL
NO_CHARGES


@<TRIPOS>ATOM
      1 PA         41.7670   14.4870  -16.2800 P.3       1 NAD402      0.0000 
      2 O1A        41.4660   14.7980  -14.8400 O.co2     1 NAD402      0.0000 
      3 O2A        42.4870   13.2000  -16.5470 O.co2     1 NAD402      0.0000 
      4 O5B        40.3750   14.5280  -17.0880 O.3       1 NAD402      0.0000 
      5 C5B        40.2220   13.8890  -18.3740 C.3       1 NAD402      0.0000 
      6 C4B        38.9040   13.1250  -18.4160 C.3       1 NAD402      0.0000 
      7 O4B        38.8260   12.4830  -19.7300 O.3       1 NAD402      0.0000 
      8 C3B        38.8330   11.9750  -17.3940 C.3       1 NAD402      0.0000 
      9 O3B        37.8130   12.1790  -16.4090 O.3       1 NAD402      0.0000 
     10 C2B        38.6700   10.7000  -18.2910 C.3       1 NAD402      0.0000 
     11 O2B        37.9490    9.6230  -17.7320 O.3       1 NAD402      0.0000 
     12 C1B        38.0310   11.3320  -19.5660 C.3       1 NAD402      0.0000 
     13 N9A        38.0540   10.5790  -20.8710 N.pl3     1 NAD402      0.0000 
     14 C8A        39.0550    9.7840  -21.4040 C.2       1 NAD402      0.0000 
     15 N7A        38.6810    9.3230  -22.5810 N.2       1 NAD402      0.0000 
     16 C5A        37.4280    9.7930  -22.8640 C.ar      1 NAD402      0.0000 
     17 C6A        36.5370    9.6660  -23.9550 C.ar      1 NAD402      0.0000 
     18 N6A        36.8360    8.9260  -25.0040 N.pl3     1 NAD402      0.0000 
     19 N1A        35.3110   10.3190  -23.9010 N.ar      1 NAD402      0.0000 
     20 C2A        34.9710   11.1030  -22.8070 C.ar      1 NAD402      0.0000 
     21 N3A        35.8070   11.2380  -21.7600 N.ar      1 NAD402      0.0000 
     22 C4A        37.0360   10.6140  -21.7960 C.ar      1 NAD402      0.0000 
     23 O3         42.6620   15.6270  -16.9000 O.3       1 NAD402      0.0000 
     24 PN         42.4750   17.2400  -16.8940 P.3       1 NAD402      0.0000 
     25 O1N        41.0280   17.6370  -16.7900 O.co2     1 NAD402      0.0000 
     26 O2N        43.3910   17.7720  -15.8420 O.co2     1 NAD402      0.0000 
     27 O5D        43.1090   17.5640  -18.3260 O.3       1 NAD402      0.0000 
     28 C5D        42.3010   17.6110  -19.5620 C.3       1 NAD402      0.0000 
     29 C4D        42.8730   18.6690  -20.4880 C.3       1 NAD402      0.0000 
     30 O4D        42.7480   20.0400  -20.0120 O.3       1 NAD402      0.0000 
     31 C3D        44.3580   18.4010  -20.8270 C.3       1 NAD402      0.0000 
     32 O3D        44.5880   18.3790  -22.2240 O.3       1 NAD402      0.0000 
     33 C2D        45.1600   19.4790  -20.1120 C.3       1 NAD402      0.0000 
     34 O2D        46.0050   20.2100  -20.9670 O.3       1 NAD402      0.0000 
     35 C1D        44.0330   20.3020  -19.5010 C.3       1 NAD402      0.0000 
     36 N1N        44.3920   21.4270  -18.5980 N.pl3     1 NAD402      0.0000 
     37 C2N        44.6990   21.0300  -17.3340 C.ar      1 NAD402      0.0000 
     38 C3N        45.0610   21.9500  -16.3720 C.ar      1 NAD402      0.0000 
     39 C7N        45.3830   21.4280  -14.9980 C.2       1 NAD402      0.0000 
     40 O7N        46.1600   22.0810  -14.2910 O.2       1 NAD402      0.0000 
     41 N7N        44.8680   20.2730  -14.5130 N.am      1 NAD402      0.0000 
     42 C4N        45.1070   23.3260  -16.7300 C.ar      1 NAD402      0.0000 
     43 C5N        44.7800   23.7330  -18.0620 C.ar      1 NAD402      0.0000 
     44 C6N        44.4190   22.7570  -19.0020 C.ar      1 NAD402      0.0000 
     45 H          41.0329   13.1791  -18.5648 H         1 NAD402      0.0000 
     46 H          40.2154   14.6236  -19.1853 H         1 NAD402      0.0000 
     47 H          38.0897   13.7772  -18.2762 H         1 NAD402      0.0000 
     48 H          39.8333   11.9047  -16.9567 H         1 NAD402      0.0000 
     49 H          39.6943   10.4404  -18.5952 H         1 NAD402      0.0000 
     50 H          37.0276   11.6339  -19.3116 H         1 NAD402      0.0000 
     51 H          39.8983    9.6136  -20.9465 H         1 NAD402      0.0000 
     52 H          36.0651    8.4929  -25.4711 H         1 NAD402      0.0000 
     53 H          37.8064    8.8650  -25.2372 H         1 NAD402      0.0000 
     54 H          34.0469   11.5890  -22.8135 H         1 NAD402      0.0000 
     55 H          41.2681   17.8654  -19.3327 H         1 NAD402      0.0000 
     56 H          42.3249   16.6489  -20.0698 H         1 NAD402      0.0000 
     57 H          42.3348   18.5860  -21.4643 H         1 NAD402      0.0000 
     58 H          44.6096   17.4485  -20.3545 H         1 NAD402      0.0000 
     59 H          45.6674   18.9932  -19.2933 H         1 NAD402      0.0000 
     60 H          43.9050   19.3946  -18.4518 H         1 NAD402      0.0000 
     61 H          44.6629   20.0208  -17.0806 H         1 NAD402      0.0000 
     62 H          44.2785   19.7584  -15.1357 H         1 NAD402      0.0000 
     63 H          45.1228   20.0372  -13.5752 H         1 NAD402      0.0000 
     64 H          45.3725   24.0248  -16.0401 H         1 NAD402      0.0000 
     65 H          44.8126   24.7144  -18.3096 H         1 NAD402      0.0000 
     66 H          44.1839   23.0211  -19.9538 H         1 NAD402      0.0000 
     67 H          36.9531   11.9941  -16.8849 H         1 NAD402      0.0000 
     68 H          36.9868    9.8503  -17.8818 H         1 NAD402      0.0000 
     69 H          43.6829   18.2642  -22.6334 H         1 NAD402      0.0000 
     70 H          45.9672   19.7278  -21.8423 H         1 NAD402      0.0000 
@<TRIPOS>BOND
     1    2    1 ar   
     2    3    1 ar   
     3    4    1 1    
     4   23    1 1    
     5    5    4 1    
     6    6    5 1    
     7   45    5 1    
     8   46    5 1    
     9    7    6 1    
    10    8    6 1    
    11   47    6 1    
    12   12    7 1    
    13    9    8 1    
    14   10    8 1    
    15   48    8 1    
    16   67    9 1    
    17   11   10 1    
    18   12   10 1    
    19   49   10 1    
    20   68   11 1    
    21   13   12 1    
    22   50   12 1    
    23   14   13 1    
    24   22   13 1    
    25   15   14 2    
    26   51   14 1    
    27   16   15 1    
    28   17   16 ar   
    29   22   16 ar   
    30   18   17 1    
    31   19   17 ar   
    32   52   18 1    
    33   53   18 1    
    34   20   19 ar   
    35   21   20 ar   
    36   54   20 1    
    37   22   21 ar   
    38   24   23 1    
    39   25   24 ar   
    40   26   24 ar   
    41   27   24 1    
    42   28   27 1    
    43   29   28 1    
    44   55   28 1    
    45   56   28 1    
    46   30   29 1    
    47   31   29 1    
    48   57   29 1    
    49   35   30 1    
    50   32   31 1    
    51   33   31 1    
    52   58   31 1    
    53   69   32 1    
    54   34   33 1    
    55   35   33 1    
    56   59   33 1    
    57   70   34 1    
    58   36   35 1    
    59   60   35 1    
    60   37   36 ar   
    61   44   36 ar   
    62   38   37 ar   
    63   61   37 1    
    64   39   38 1    
    65   42   38 ar   
    66   40   39 2    
    67   41   39 am   
    68   62   41 1    
    69   63   41 1    
    70   43   42 ar   
    71   64   42 1    
    72   44   43 ar   
    73   65   43 1    
    74   66   44 1    
@<TRIPOS>SUBSTRUCTURE
     1 NAD402      1 GROUP   
@<TRIPOS>SET

