#    Name: 2vpz_MGD_3_INTS_M
#    Modification time : Tue Mar 25 02:41:58 2014

@<TRIPOS>MOLECULE
2vpz_MGD_3_INTS_M
  102     0    12     0     0
SMALL
NO_CHARGES


@<TRIPOS>ATOM
      1 N         105.0980  181.2075   97.9400 N.am      2 SEC2        0.0000 
      2 N         105.4990  180.1260   98.9730 N.am     10 SEL2        0.0000 
      3 N         104.6970  182.2890   96.9070 N.am      6 SEP2        0.0000 
      4 NZ        103.2690  176.8205   98.9485 N.4       3 LYC4        0.0000 
      5 NZ        104.0940  177.8920   98.7630 N.4      11 LYL4        0.0000 
      6 NZ        102.9560  174.5360   99.2940 N.4       7 LYP4        0.0000 
      7 N         103.2690  176.8205   98.9485 N.am      2 SEC2        0.0000 
      8 N         104.0940  177.8920   98.7630 N.am     10 SEL2        0.0000 
      9 N         102.4440  175.7490   99.1340 N.am      6 SEP2        0.0000 
     10 N          99.4680  179.8950   98.2415 N.am      2 SEC2        0.0000 
     11 N         100.6510  180.9050   97.6840 N.am     10 SEL2        0.0000 
     12 N          98.2850  178.8850   98.7990 N.am      6 SEP2        0.0000 
     13 N          99.6340  178.8330   99.0220 N.am      2 SEC2        0.0000 
     14 N         100.9830  178.7810   99.2450 N.am     10 SEL2        0.0000 
     15 N         102.0295  181.7710  101.3000 N.am      2 SEC2        0.0000 
     16 N         101.4540  181.3110   99.8840 N.am     10 SEL2        0.0000 
     17 N         102.6050  182.2310  102.7160 N.am      6 SEP2        0.0000 
     18 N         102.0390  182.3385   99.2880 N.am      2 SEC2        0.0000 
     19 N         102.6240  183.3660   98.6920 N.am      6 SEP2        0.0000 
     20 CA        104.2605  176.9625  100.3780 C.3       4 GLC5        0.0000 
     21 CA        103.2730  178.4960  101.6410 C.3      12 GLL5        0.0000 
     22 CA        105.2480  175.4290   99.1150 C.3       8 GLP5        0.0000 
     23 CA        102.3005  178.1275  104.3810 C.3       4 GLC5        0.0000 
     24 CA        103.7750  178.4910  103.0770 C.3      12 GLL5        0.0000 
     25 CA        100.8260  177.7640  105.6850 C.3       8 GLP5        0.0000 
     26 O         106.4045  177.0425  105.8325 O.2       1 ALC1        0.0000 
     27 O         106.7990  176.9800  104.4000 O.2       9 ALL1        0.0000 
     28 O         106.0100  177.1050  107.2650 O.2       5 ALP1        0.0000 
     29 CA        102.6235  177.2110  105.0560 C.3       4 GLC5        0.0000 
     30 CA        104.4210  176.6580  104.4270 C.3      12 GLL5        0.0000 
     31 CA        104.1485  177.0605  106.4240 C.3       4 GLC5        0.0000 
     32 CA        103.8760  177.4630  108.4210 C.3       8 GLP5        0.0000 
     33 N         101.3605  170.3640  106.4930 N.am      2 SEC2        0.0000 
     34 N         102.1710  171.2390  105.6830 N.am     10 SEL2        0.0000 
     35 N         100.5500  169.4890  107.3030 N.am      6 SEP2        0.0000 
     36 O         100.8715  172.7775  108.0280 O.2       1 ALC1        0.0000 
     37 O         101.7930  173.0680  106.9630 O.2       9 ALL1        0.0000 
     38 O          99.9500  172.4870  109.0930 O.2       5 ALP1        0.0000 
     39 O         101.5610  176.3650  108.9000 O.2       1 ALC1        0.0000 
     40 O         101.4440  174.9390  108.3100 O.2       9 ALL1        0.0000 
     41 O         101.6780  177.7910  109.4900 O.2       5 ALP1        0.0000 
     42 O         100.6970  173.7130  108.7015 O.2       1 ALC1        0.0000 
     43 CA        102.0785  176.2165  105.4945 C.3       4 GLC5        0.0000 
     44 CA        103.3310  174.6690  105.3040 C.3      12 GLL5        0.0000 
     45 CA        103.6035  176.0660  106.8625 C.3       4 GLC5        0.0000 
     46 CA         99.7445  178.3905   96.3045 C.3       4 GLC5        0.0000 
     47 CA        100.5490  180.4860   96.3570 C.3      12 GLL5        0.0000 
     48 CA         98.9400  176.2950   96.2520 C.3       8 GLP5        0.0000 
     49 CA         99.0835  181.4840   97.7155 C.3       4 GLC5        0.0000 
     50 CA         97.6180  182.4820   99.0740 C.3       8 GLP5        0.0000 
     51 CA        100.9535  178.9765   95.2795 C.3       4 GLC5        0.0000 
     52 CA        101.3580  177.4670   94.2020 C.3       8 GLP5        0.0000 
     53 CA         98.5680  182.5620   96.8920 C.3       4 GLC5        0.0000 
     54 CA         99.7660  181.5150   95.6490 C.3      12 GLL5        0.0000 
     55 CA         97.3700  183.6090   98.1350 C.3       8 GLP5        0.0000 
     56 CA         98.6955  177.9380   95.1825 C.3       4 GLC5        0.0000 
     57 CA         98.4510  179.5810   94.1130 C.3      12 GLL5        0.0000 
     58 CA         96.5235  180.2960   94.7050 C.3       4 GLC5        0.0000 
     59 CA         94.5960  181.0110   95.2970 C.3       8 GLP5        0.0000 
     60 CA         97.3630  180.0235   92.4625 C.3       4 GLC5        0.0000 
     61 CA         96.2750  180.4660   90.8120 C.3       8 GLP5        0.0000 
     62 CA         99.9045  178.5240   94.1575 C.3       4 GLC5        0.0000 
     63 CA         97.6630  181.9090   92.4180 C.3       4 GLC5        0.0000 
     64 CA         99.6310  181.7480   93.1470 C.3      12 GLL5        0.0000 
     65 CA         95.6950  182.0700   91.6890 C.3       8 GLP5        0.0000 
     66 CA         97.7230  180.8700   91.1980 C.3       4 GLC5        0.0000 
     67 CA         99.1710  181.2740   91.5840 C.3      12 GLL5        0.0000 
     68 CA         98.8650  181.7065   89.5415 C.3       4 GLC5        0.0000 
     69 CA         98.5590  182.1390   87.4990 C.3       8 GLP5        0.0000 
     70 CA        104.2330  183.3385   93.1055 C.3       4 GLC5        0.0000 
     71 CA        102.4180  184.0970   92.8700 C.3      12 GLL5        0.0000 
     72 CA        106.0480  182.5800   93.3410 C.3       8 GLP5        0.0000 
     73 N         104.0800  182.5365   90.7250 N.am      2 SEC2        0.0000 
     74 N         103.8330  183.9620   90.9480 N.am     10 SEL2        0.0000 
     75 N         104.3270  181.1110   90.5020 N.am      6 SEP2        0.0000 
     76 O         105.3035  186.5170   91.4360 O.2       1 ALC1        0.0000 
     77 O         103.9940  185.8440   92.1310 O.2       9 ALL1        0.0000 
     78 O         106.6130  187.1900   90.7410 O.2       5 ALP1        0.0000 
     79 O         104.2735  188.6680   94.5340 O.2       1 ALC1        0.0000 
     80 O         104.3260  187.7590   93.3720 O.2       9 ALL1        0.0000 
     81 O         104.2210  189.5770   95.6960 O.2       5 ALP1        0.0000 
     82 O         104.8345  188.7965   92.7030 O.2       1 ALC1        0.0000 
     83 O         105.3430  189.8340   92.0340 O.2       5 ALP1        0.0000 
     84 CA        102.3180  185.3575   96.0120 C.3       4 GLC5        0.0000 
     85 CA        102.1030  184.9960   94.0220 C.3      12 GLL5        0.0000 
     86 CA        102.5330  185.7190   98.0020 C.3       8 GLP5        0.0000 
     87 O         100.8630  185.7915   96.0075 O.2       1 ALC1        0.0000 
     88 O         101.1070  184.6920   94.8840 O.2       9 ALL1        0.0000 
     89 O         100.6190  186.8910   97.1310 O.2       5 ALP1        0.0000 
     90 CA         98.7015  184.9515   94.5885 C.3       4 GLC5        0.0000 
     91 CA        100.1440  183.6700   94.5710 C.3      12 GLL5        0.0000 
     92 CA         97.2590  186.2330   94.6060 C.3       8 GLP5        0.0000 
     93 CA        100.9690  184.0880   96.5855 C.3       4 GLC5        0.0000 
     94 CA        101.7940  184.5060   98.6000 C.3       8 GLP5        0.0000 
     95 CA        102.1380  179.7358  103.0015 C.3       4 GLC5        0.0000 
     96 CA        100.7520  180.9780  103.6440 C.3       8 GLP5        0.0000 
     97 CA        106.3183  177.0587  101.9360 C.3       4 GLC5        0.0000 
     98 CA        105.2540  178.4770  103.1850 C.3      12 GLL5        0.0000 
     99 CA        107.1990  176.3430  100.4660 C.3       8 GLP5        0.0000 
    100 CA        100.7918  179.8670   94.2237 C.3       4 GLC5        0.0000 
    101 CA        102.0340  178.4590   93.4830 C.3       8 GLP5        0.0000 
    102 CA        100.7175  179.9850   92.9243 C.3       4 GLC5        0.0000 
@<TRIPOS>BOND
@<TRIPOS>SUBSTRUCTURE
     1 ALC1       26 GROUP        1 X    ALC  0     ROOT ALC X 1
     2 SEC2        1 GROUP        1 X    SEC  0     **** SEC X 2
     3 LYC4        4 GROUP        1 X    LYC  0     **** LYC X 4
     4 GLC5       20 GROUP        1 X    GLC  0     **** GLC X 6
     5 ALP1       28 GROUP        1 Y    ALP  0     ROOT ALP Y 8
     6 SEP2        3 GROUP        1 Y    SEP  0     **** SEP Y 9
     7 LYP4        6 GROUP        1 Y    LYP  0     **** LYP Y 11
     8 GLP5       22 GROUP        1 Y    GLP  0     **** GLP Y 13
     9 ALL1       27 GROUP        1 Z    ALL  0     ROOT ALL Z 15
    10 SEL2        2 GROUP        1 Z    SEL  0     **** SEL Z 16
    11 LYL4        5 GROUP        1 Z    LYL  0     **** LYL Z 18
    12 GLL5       21 GROUP        1 Z    GLL  0     **** GLL Z 20
@<TRIPOS>SET

