#    Name: 2vpz_MGD_3_ligand
#    Modification time : Tue Mar 25 02:41:58 2014

@<TRIPOS>MOLECULE
2vpz_MGD_3_ligand
   69    74     1     0     0
SMALL
NO_CHARGES


@<TRIPOS>ATOM
      1 PB        104.3210  179.3080   99.2940 P.3       1 MGD1765     0.0000 
      2 O1B       105.4990  180.1260   98.9730 O.co2     1 MGD1765     0.0000 
      3 O2B       104.0940  177.8920   98.7630 O.co2     1 MGD1765     0.0000 
      4 O3B       103.0790  180.1240   98.5700 O.3       1 MGD1765     0.0000 
      5 O3A       100.6510  180.9050   97.6840 O.3       1 MGD1765     0.0000 
      6 PA        101.4640  180.1920   98.9010 P.3       1 MGD1765     0.0000 
      7 O1A       100.9830  178.7810   99.2450 O.co2     1 MGD1765     0.0000 
      8 O2A       101.4540  181.3110   99.8840 O.co2     1 MGD1765     0.0000 
      9 O5'       104.1890  179.3050  100.8730 O.3       1 MGD1765     0.0000 
     10 C5'       103.2730  178.4960  101.6410 C.3       1 MGD1765     0.0000 
     11 C4'       103.7750  178.4910  103.0770 C.3       1 MGD1765     0.0000 
     12 O4'       103.3310  177.2950  103.7330 O.3       1 MGD1765     0.0000 
     13 C3'       105.2540  178.4770  103.1850 C.3       1 MGD1765     0.0000 
     14 O3'       105.5100  179.4140  104.1870 O.3       1 MGD1765     0.0000 
     15 C2'       105.6210  177.0720  103.6270 C.3       1 MGD1765     0.0000 
     16 O2'       106.7990  176.9800  104.4000 O.3       1 MGD1765     0.0000 
     17 C1'       104.4210  176.6580  104.4270 C.3       1 MGD1765     0.0000 
     18 N9        104.1250  175.2330  104.3890 N.pl3     1 MGD1765     0.0000 
     19 C8        104.4030  174.3170  103.5000 C.2       1 MGD1765     0.0000 
     20 N7        103.8380  173.0980  103.8380 N.2       1 MGD1765     0.0000 
     21 C5        103.1520  173.2390  104.9530 C.2       1 MGD1765     0.0000 
     22 C6        102.3300  172.4390  105.8800 C.2       1 MGD1765     0.0000 
     23 O6        102.1710  171.2390  105.6830 O.2       1 MGD1765     0.0000 
     24 N1        101.7930  173.0680  106.9630 N.am      1 MGD1765     0.0000 
     25 C2        101.9920  174.3510  107.2220 C.2       1 MGD1765     0.0000 
     26 N2        101.4440  174.9390  108.3100 N.pl3     1 MGD1765     0.0000 
     27 N3        102.7170  175.1210  106.4240 N.2       1 MGD1765     0.0000 
     28 C4        103.3310  174.6690  105.3040 C.2       1 MGD1765     0.0000 
     29 C10       100.5490  180.4860   96.3570 C.3       1 MGD1765     0.0000 
     30 C11        99.7660  181.5150   95.6490 C.3       1 MGD1765     0.0000 
     31 O11       100.6080  182.6560   95.4790 O.3       1 MGD1765     0.0000 
     32 C12        99.3330  181.0350   94.2800 C.2       1 MGD1765     0.0000 
     33 S12        98.4510  179.5810   94.1130 S.3       1 MGD1765     0.0000 
     34 C13        99.6310  181.7480   93.1470 C.2       1 MGD1765     0.0000 
     35 S13        99.1710  181.2740   91.5840 S.3       1 MGD1765     0.0000 
     36 C14       100.3290  183.0540   93.1960 C.3       1 MGD1765     0.0000 
     37 N15       101.7030  182.9270   92.7090 N.pl3     1 MGD1765     0.0000 
     38 C16       102.4180  184.0970   92.8700 C.2       1 MGD1765     0.0000 
     39 C17       103.4380  184.6300   91.9280 C.2       1 MGD1765     0.0000 
     40 O17       103.8330  183.9620   90.9480 O.2       1 MGD1765     0.0000 
     41 N18       103.9940  185.8440   92.1310 N.am      1 MGD1765     0.0000 
     42 C19       103.6910  186.5630   93.2040 C.2       1 MGD1765     0.0000 
     43 N19       104.3260  187.7590   93.3720 N.pl3     1 MGD1765     0.0000 
     44 N20       102.7740  186.1810   94.0880 N.2       1 MGD1765     0.0000 
     45 C21       102.1030  184.9960   94.0220 C.2       1 MGD1765     0.0000 
     46 N22       101.1070  184.6920   94.8840 N.pl3     1 MGD1765     0.0000 
     47 C23       100.1440  183.6700   94.5710 C.3       1 MGD1765     0.0000 
     48 H         103.2485  177.4727  101.2833 H         1 MGD1765     0.0000 
     49 H         102.2706  178.9092  101.6302 H         1 MGD1765     0.0000 
     50 H         103.3874  179.3545  103.5903 H         1 MGD1765     0.0000 
     51 H         105.6774  178.6987  102.2647 H         1 MGD1765     0.0000 
     52 H         105.6396  176.4500  102.7428 H         1 MGD1765     0.0000 
     53 H         104.4878  177.0321  105.4080 H         1 MGD1765     0.0000 
     54 H         104.9407  174.4342  102.6811 H         1 MGD1765     0.0000 
     55 H         101.1893  172.4881  107.6199 H         1 MGD1765     0.0000 
     56 H         101.6831  175.8985  108.4589 H         1 MGD1765     0.0000 
     57 H         100.8485  174.3620  108.8689 H         1 MGD1765     0.0000 
     58 H         100.0333  179.5263   96.2676 H         1 MGD1765     0.0000 
     59 H         101.5276  180.3955   95.8783 H         1 MGD1765     0.0000 
     60 H          98.8949  181.7695   96.2191 H         1 MGD1765     0.0000 
     61 H          99.7666  183.7231   92.4785 H         1 MGD1765     0.0000 
     62 H         102.0284  182.1054   92.3283 H         1 MGD1765     0.0000 
     63 H         104.6764  186.2157   91.4215 H         1 MGD1765     0.0000 
     64 H         104.6244  188.2200   92.5363 H         1 MGD1765     0.0000 
     65 H         104.4372  188.0694   94.3161 H         1 MGD1765     0.0000 
     66 H         101.0033  185.1790   95.7903 H         1 MGD1765     0.0000 
     67 H          99.1799  183.9301   94.7631 H         1 MGD1765     0.0000 
     68 H         105.3845  178.9160  105.0450 H         1 MGD1765     0.0000 
     69 H         106.4942  177.0722  105.3479 H         1 MGD1765     0.0000 
@<TRIPOS>BOND
     1    2    1 ar   
     2    3    1 ar   
     3    4    1 1    
     4    9    1 1    
     5    6    4 1    
     6    6    5 1    
     7   29    5 1    
     8    7    6 ar   
     9    8    6 ar   
    10   10    9 1    
    11   11   10 1    
    12   48   10 1    
    13   49   10 1    
    14   12   11 1    
    15   13   11 1    
    16   50   11 1    
    17   17   12 1    
    18   14   13 1    
    19   15   13 1    
    20   51   13 1    
    21   68   14 1    
    22   16   15 1    
    23   17   15 1    
    24   52   15 1    
    25   69   16 1    
    26   18   17 1    
    27   53   17 1    
    28   19   18 1    
    29   28   18 1    
    30   20   19 2    
    31   54   19 1    
    32   21   20 1    
    33   22   21 1    
    34   28   21 2    
    35   23   22 2    
    36   24   22 am   
    37   25   24 1    
    38   55   24 1    
    39   26   25 1    
    40   27   25 2    
    41   56   26 1    
    42   57   26 1    
    43   28   27 1    
    44   30   29 1    
    45   58   29 1    
    46   59   29 1    
    47   31   30 1    
    48   32   30 1    
    49   60   30 1    
    50   47   31 1    
    51   33   32 1    
    52   34   32 2    
    53   35   34 1    
    54   36   34 1    
    55   37   36 1    
    56   47   36 1    
    57   61   36 1    
    58   38   37 1    
    59   62   37 1    
    60   39   38 1    
    61   45   38 2    
    62   40   39 2    
    63   41   39 am   
    64   42   41 1    
    65   63   41 1    
    66   43   42 1    
    67   44   42 2    
    68   64   43 1    
    69   65   43 1    
    70   45   44 1    
    71   46   45 1    
    72   47   46 1    
    73   66   46 1    
    74   67   47 1    
@<TRIPOS>SUBSTRUCTURE
     1 MGD1765     1 GROUP   
@<TRIPOS>SET

