#    Name: 3ozd_4CT_2_INTS_M
#    Modification time : Tue Mar 25 05:41:57 2014

@<TRIPOS>MOLECULE
3ozd_4CT_2_INTS_M
   62     0     6     0     0
SMALL
NO_CHARGES


@<TRIPOS>ATOM
      1 CA         49.9060   26.7365  -13.3690 C.3       2 GLC5        0.0000 
      2 CA         47.9810   26.2380  -13.0670 C.3       6 GLL5        0.0000 
      3 CA         51.8310   27.2350  -13.6710 C.3       4 GLP5        0.0000 
      4 CA         48.7500   27.4900  -11.7370 C.3       2 GLC5        0.0000 
      5 CA         49.5190   28.7420  -10.4070 C.3       4 GLP5        0.0000 
      6 CA         47.2155   28.1445  -13.1935 C.3       2 GLC5        0.0000 
      7 CA         46.4500   30.0510  -13.3200 C.3       4 GLP5        0.0000 
      8 CA         48.4255   25.7565  -14.7705 C.3       2 GLC5        0.0000 
      9 CA         48.8700   25.2750  -16.4740 C.3       4 GLP5        0.0000 
     10 CA         46.0630   27.9690  -13.2230 C.3       2 GLC5        0.0000 
     11 CA         45.6760   25.8870  -13.1260 C.3       6 GLL5        0.0000 
     12 CA         47.4050   26.1645  -10.1865 C.3       2 GLC5        0.0000 
     13 CA         46.9790   24.8210  -11.4770 C.3       6 GLL5        0.0000 
     14 CA         47.8310   27.5080   -8.8960 C.3       4 GLP5        0.0000 
     15 CA         46.4520   22.6800  -11.2860 C.3       2 GLC5        0.0000 
     16 CA         45.9250   20.5390  -11.0950 C.3       4 GLP5        0.0000 
     17 O          46.1965   23.3735   -9.5175 O.2       1 ALC1        0.0000 
     18 O          47.1120   24.0250  -10.4020 O.2       5 ALL1        0.0000 
     19 O          45.2810   22.7220   -8.6330 O.2       3 ALP1        0.0000 
     20 O          48.6170   23.8730   -9.5900 O.2       1 ALC1        0.0000 
     21 O          50.1220   23.7210   -8.7780 O.2       3 ALP1        0.0000 
     22 O          44.0090   23.7225  -10.9265 O.2       1 ALC1        0.0000 
     23 O          44.4520   24.6410  -11.8050 O.2       5 ALL1        0.0000 
     24 O          43.5660   22.8040  -10.0480 O.2       3 ALP1        0.0000 
     25 CA         43.2055   23.2515  -12.9625 C.3       2 GLC5        0.0000 
     26 CA         43.6230   25.2020  -12.7080 C.3       6 GLL5        0.0000 
     27 CA         42.7880   21.3010  -13.2170 C.3       4 GLP5        0.0000 
     28 CA         41.5920   25.7405  -15.1060 C.3       2 GLC5        0.0000 
     29 CA         43.2310   24.9670  -16.2160 C.3       6 GLL5        0.0000 
     30 CA         39.9530   26.5140  -13.9960 C.3       4 GLP5        0.0000 
     31 CA         42.0090   23.5575  -15.3375 C.3       2 GLC5        0.0000 
     32 CA         40.7870   22.1480  -14.4590 C.3       4 GLP5        0.0000 
     33 CA         41.8920   26.6730  -14.3530 C.3       2 GLC5        0.0000 
     34 CA         43.8310   26.8320  -14.7100 C.3       6 GLL5        0.0000 
     35 CA         43.2765   27.4825  -12.8300 C.3       2 GLC5        0.0000 
     36 CA         42.7220   28.1330  -10.9500 C.3       4 GLP5        0.0000 
     37 CA         44.4640   28.8000  -14.1250 C.3       2 GLC5        0.0000 
     38 CA         45.0970   30.7680  -13.5400 C.3       4 GLP5        0.0000 
     39 CA         39.9405   23.9845  -22.1045 C.3       2 GLC5        0.0000 
     40 CA         40.9880   23.3750  -20.4060 C.3       6 GLL5        0.0000 
     41 CA         38.8930   24.5940  -23.8030 C.3       4 GLP5        0.0000 
     42 CA         45.6865   21.9335  -15.8425 C.3       2 GLC5        0.0000 
     43 CA         44.2650   22.8290  -17.0190 C.3       6 GLL5        0.0000 
     44 CA         47.1080   21.0380  -14.6660 C.3       4 GLP5        0.0000 
     45 CA         43.5265   22.0650  -15.1180 C.3       2 GLC5        0.0000 
     46 CA         44.1560   20.1120  -17.8630 C.3       2 GLC5        0.0000 
     47 CA         42.9340   21.7080  -17.3570 C.3       6 GLL5        0.0000 
     48 CA         45.3780   18.5160  -18.3690 C.3       4 GLP5        0.0000 
     49 CA         39.0438   24.4435  -22.0222 C.3       2 GLC5        0.0000 
     50 CA         39.8260   23.8470  -19.7800 C.3       6 GLL5        0.0000 
     51 CA         45.4270   25.4980  -10.0678 C.3       2 GLC5        0.0000 
     52 CA         45.7230   25.0550  -12.0500 C.3       6 GLL5        0.0000 
     53 CA         44.5030   26.0580   -8.3720 C.3       4 GLP5        0.0000 
     54 CA         41.9755   26.0555  -13.5687 C.3       2 GLC5        0.0000 
     55 CA         47.0423   25.4815  -16.7990 C.3       2 GLC5        0.0000 
     56 CA         45.2440   26.2300  -16.5920 C.3       6 GLL5        0.0000 
     57 CA         41.5685   22.1255  -16.1440 C.3       2 GLC5        0.0000 
     58 CA         40.4565   22.7280  -16.2542 C.3       2 GLC5        0.0000 
     59 CA         40.6110   22.9700  -17.6840 C.3       6 GLL5        0.0000 
     60 CA         38.6485   23.4400  -16.9763 C.3       2 GLC5        0.0000 
     61 CA         37.1710   23.5720  -15.9030 C.3       4 GLP5        0.0000 
     62 CA         43.7854   26.8335  -11.9074 C.3       2 GLC5        0.0000 
@<TRIPOS>BOND
@<TRIPOS>SUBSTRUCTURE
     1 ALC1       17 GROUP        1 X    ALC  0     ROOT ALC X 1
     2 GLC5        1 GROUP        1 X    GLC  0     **** GLC X 6
     3 ALP1       19 GROUP        1 Y    ALP  0     ROOT ALP Y 8
     4 GLP5        3 GROUP        1 Y    GLP  0     **** GLP Y 13
     5 ALL1       18 GROUP        1 Z    ALL  0     ROOT ALL Z 15
     6 GLL5        2 GROUP        1 Z    GLL  0     **** GLL Z 20
@<TRIPOS>SET

