#    Name: 3ozd_4CT_2_ligand
#    Modification time : Tue Mar 25 05:41:57 2014

@<TRIPOS>MOLECULE
3ozd_4CT_2_ligand
   47    50     1     0     0
SMALL
NO_CHARGES


@<TRIPOS>ATOM
      1 N1         48.0910   25.4120  -12.0140 N.ar      1 4CT284      0.0000 
      2 CL1        38.5630   24.7390  -20.7030 Cl        1 4CT284      0.0000 
      3 C2         47.9810   26.2380  -13.0670 C.ar      1 4CT284      0.0000 
      4 N3         46.7840   26.4780  -13.6360 N.ar      1 4CT284      0.0000 
      5 C4         45.6760   25.8870  -13.1260 C.ar      1 4CT284      0.0000 
      6 C5         45.7230   25.0550  -12.0500 C.ar      1 4CT284      0.0000 
      7 C6         46.9790   24.8210  -11.4770 C.ar      1 4CT284      0.0000 
      8 N6         47.1120   24.0250  -10.4020 N.pl3     1 4CT284      0.0000 
      9 N7         44.4520   24.6410  -11.8050 N.pl3     1 4CT284      0.0000 
     10 C8         43.6230   25.2020  -12.7080 C.2       1 4CT284      0.0000 
     11 C9         44.3730   25.9920  -13.5750 C.2       1 4CT284      0.0000 
     12 C1'        43.2310   24.9670  -16.2160 C.3       1 4CT284      0.0000 
     13 N1'        43.8740   26.2920  -16.0690 N.4       1 4CT284      0.0000 
     14 C10        43.8310   26.8320  -14.7100 C.3       1 4CT284      0.0000 
     15 C11        39.8260   23.8470  -19.7800 C.ar      1 4CT284      0.0000 
     16 C13        40.9880   23.3750  -20.4060 C.ar      1 4CT284      0.0000 
     17 C14        41.9620   22.7020  -19.6640 C.ar      1 4CT284      0.0000 
     18 C2'        45.2440   26.2300  -16.5920 C.3       1 4CT284      0.0000 
     19 C3'        45.1850   25.1460  -17.6560 C.3       1 4CT284      0.0000 
     20 O3'        45.0960   25.8200  -18.9130 O.3       1 4CT284      0.0000 
     21 C4'        43.9460   24.2910  -17.3820 C.3       1 4CT284      0.0000 
     22 C5'        44.2650   22.8290  -17.0190 C.3       1 4CT284      0.0000 
     23 S6'        42.9340   21.7080  -17.3570 S.3       1 4CT284      0.0000 
     24 C7'        41.7660   22.4980  -18.3010 C.ar      1 4CT284      0.0000 
     25 C8'        40.6110   22.9700  -17.6840 C.ar      1 4CT284      0.0000 
     26 C9'        39.6410   23.6460  -18.4150 C.ar      1 4CT284      0.0000 
     27 H          48.8386   26.7039  -13.4534 H         1 4CT284      0.0000 
     28 H          48.0348   23.9451  -10.0251 H         1 4CT284      0.0000 
     29 H          46.2763   23.5838  -10.0751 H         1 4CT284      0.0000 
     30 H          44.1899   24.0386  -11.0933 H         1 4CT284      0.0000 
     31 H          42.6709   25.0912  -12.7651 H         1 4CT284      0.0000 
     32 H          42.1906   25.0717  -16.4574 H         1 4CT284      0.0000 
     33 H          43.3684   24.3752  -15.3314 H         1 4CT284      0.0000 
     34 H          43.3100   26.9993  -16.7377 H         1 4CT284      0.0000 
     35 H          44.3677   27.8295  -14.6832 H         1 4CT284      0.0000 
     36 H          42.7646   27.1118  -14.4488 H         1 4CT284      0.0000 
     37 H          41.1219   23.5253  -21.4127 H         1 4CT284      0.0000 
     38 H          42.8123   22.3625  -20.1212 H         1 4CT284      0.0000 
     39 H          45.9355   25.9354  -15.8314 H         1 4CT284      0.0000 
     40 H          45.5253   27.1543  -17.0504 H         1 4CT284      0.0000 
     41 H          46.0548   24.5476  -17.5743 H         1 4CT284      0.0000 
     42 H          43.3003   24.3251  -18.2337 H         1 4CT284      0.0000 
     43 H          44.4439   22.6947  -15.9649 H         1 4CT284      0.0000 
     44 H          45.0822   22.4289  -17.5964 H         1 4CT284      0.0000 
     45 H          40.4739   22.8158  -16.6716 H         1 4CT284      0.0000 
     46 H          38.7950   23.9944  -17.9530 H         1 4CT284      0.0000 
     47 H          46.0088   26.1971  -19.0695 H         1 4CT284      0.0000 
@<TRIPOS>BOND
     1    3    1 ar   
     2    7    1 ar   
     3   15    2 1    
     4    4    3 ar   
     5   27    3 1    
     6    5    4 ar   
     7    6    5 ar   
     8   11    5 1    
     9    7    6 ar   
    10    9    6 1    
    11    8    7 1    
    12   28    8 1    
    13   29    8 1    
    14   10    9 1    
    15   30    9 1    
    16   11   10 2    
    17   31   10 1    
    18   14   11 1    
    19   13   12 1    
    20   21   12 1    
    21   32   12 1    
    22   33   12 1    
    23   14   13 1    
    24   18   13 1    
    25   34   13 1    
    26   35   14 1    
    27   36   14 1    
    28   16   15 ar   
    29   26   15 ar   
    30   17   16 ar   
    31   37   16 1    
    32   24   17 ar   
    33   38   17 1    
    34   19   18 1    
    35   39   18 1    
    36   40   18 1    
    37   20   19 1    
    38   21   19 1    
    39   41   19 1    
    40   47   20 1    
    41   22   21 1    
    42   42   21 1    
    43   23   22 1    
    44   43   22 1    
    45   44   22 1    
    46   24   23 1    
    47   25   24 ar   
    48   26   25 ar   
    49   45   25 1    
    50   46   26 1    
@<TRIPOS>SUBSTRUCTURE
     1 4CT284      1 GROUP   
@<TRIPOS>SET

