#    Name: 3qj7_UMP_2_INTS_M
#    Modification time : Tue Mar 25 09:48:39 2014

@<TRIPOS>MOLECULE
3qj7_UMP_2_INTS_M
   49     0    12     0     0
SMALL
NO_CHARGES


@<TRIPOS>ATOM
      1 O          12.6465   -5.8735   40.5245 O.2       1 ALC1        0.0000 
      2 O          13.9790   -5.7460   41.0610 O.2       9 ALL1        0.0000 
      3 O          11.3140   -6.0010   39.9880 O.2       5 ALP1        0.0000 
      4 N          15.5815   -7.5445   38.2710 N.am      2 SEC2        0.0000 
      5 N          14.9560   -7.0420   39.4910 N.am     10 SEL2        0.0000 
      6 N          16.2070   -8.0470   37.0510 N.am      6 SEP2        0.0000 
      7 N          11.7660   -4.4790   42.0475 N.am      2 SEC2        0.0000 
      8 N          13.1130   -4.4530   42.6980 N.am     10 SEL2        0.0000 
      9 N          10.4190   -4.5050   41.3970 N.am      6 SEP2        0.0000 
     10 CA         16.9085   -6.0845   37.5595 C.3       4 GLC5        0.0000 
     11 CA         18.0740   -6.1790   39.2250 C.3      12 GLL5        0.0000 
     12 CA         15.7430   -5.9900   35.8940 C.3       8 GLP5        0.0000 
     13 N          19.8400   -7.8810   37.6625 N.am      2 SEC2        0.0000 
     14 N          19.9510   -7.6570   38.9160 N.am     10 SEL2        0.0000 
     15 N          19.7290   -8.1050   36.4090 N.am      6 SEP2        0.0000 
     16 N          21.0435   -8.4585   38.9785 N.am      2 SEC2        0.0000 
     17 N          22.1360   -9.2600   39.0410 N.am      6 SEP2        0.0000 
     18 CA         18.7230   -3.8560   41.5425 C.3       4 GLC5        0.0000 
     19 CA         20.2470   -5.0810   41.4300 C.3      12 GLL5        0.0000 
     20 CA         17.1990   -2.6310   41.6550 C.3       8 GLP5        0.0000 
     21 N          22.4255   -5.5165   39.4950 N.am      2 SEC2        0.0000 
     22 N          21.4980   -4.9340   40.8260 N.am     10 SEL2        0.0000 
     23 N          23.3530   -6.0990   38.1640 N.am      6 SEP2        0.0000 
     24 NZ         21.0905   -1.8040   39.0210 N.4       3 LYC4        0.0000 
     25 NZ         21.4300   -3.1260   39.0450 N.4      11 LYL4        0.0000 
     26 NZ         20.0140    0.0810   39.9440 N.4       7 LYP4        0.0000 
     27 N          21.0905   -1.8040   39.0210 N.am      2 SEC2        0.0000 
     28 N          21.4300   -3.1260   39.0450 N.am     10 SEL2        0.0000 
     29 N          20.7510   -0.4820   38.9970 N.am      6 SEP2        0.0000 
     30 N          20.5090   -3.4375   38.1890 N.am      2 SEC2        0.0000 
     31 N          19.5880   -3.7490   37.3330 N.am      6 SEP2        0.0000 
     32 NZ         21.3775   -1.4635   40.1595 N.4       3 LYC4        0.0000 
     33 NZ         22.0040   -2.4450   41.3220 N.4      11 LYL4        0.0000 
     34 N          21.3775   -1.4635   40.1595 N.am      2 SEC2        0.0000 
     35 N          22.0040   -2.4450   41.3220 N.am     10 SEL2        0.0000 
     36 N          21.0365   -1.4165   41.2535 N.am      2 SEC2        0.0000 
     37 N          20.0690   -0.3880   41.1850 N.am      6 SEP2        0.0000 
     38 N          23.4615   -4.9860   39.0950 N.am      2 SEC2        0.0000 
     39 N          23.5700   -3.8730   40.0260 N.am     10 SEL2        0.0000 
     40 CA         16.5577   -3.8642   42.0688 C.3       4 GLC5        0.0000 
     41 CA         16.4730   -5.3990   42.1920 C.3      12 GLL5        0.0000 
     42 CA         17.4967   -4.5630   40.7570 C.3       4 GLC5        0.0000 
     43 CA         17.5150   -6.8110   40.4930 C.3      12 GLL5        0.0000 
     44 CA         17.2433   -8.1515   39.2570 C.3       4 GLC5        0.0000 
     45 CA         16.6920   -9.8080   38.6550 C.3       8 GLP5        0.0000 
     46 CA         18.7615   -4.4700   38.3227 C.3       4 GLC5        0.0000 
     47 CA         18.7000   -2.6510   37.3280 C.3       8 GLP5        0.0000 
     48 CA         19.3005   -6.6110   37.5602 C.3       4 GLC5        0.0000 
     49 CA         19.7780   -6.9330   35.8030 C.3       8 GLP5        0.0000 
@<TRIPOS>BOND
@<TRIPOS>SUBSTRUCTURE
     1 ALC1        1 GROUP        1 X    ALC  0     ROOT ALC X 1
     2 SEC2        4 GROUP        1 X    SEC  0     **** SEC X 2
     3 LYC4       24 GROUP        1 X    LYC  0     **** LYC X 4
     4 GLC5       10 GROUP        1 X    GLC  0     **** GLC X 6
     5 ALP1        3 GROUP        1 Y    ALP  0     ROOT ALP Y 8
     6 SEP2        6 GROUP        1 Y    SEP  0     **** SEP Y 9
     7 LYP4       26 GROUP        1 Y    LYP  0     **** LYP Y 11
     8 GLP5       12 GROUP        1 Y    GLP  0     **** GLP Y 13
     9 ALL1        2 GROUP        1 Z    ALL  0     ROOT ALL Z 15
    10 SEL2        5 GROUP        1 Z    SEL  0     **** SEL Z 16
    11 LYL4       25 GROUP        1 Z    LYL  0     **** LYL Z 18
    12 GLL5       11 GROUP        1 Z    GLL  0     **** GLL Z 20
@<TRIPOS>SET

