#    Name: 3qj7_UMP_2_ligand
#    Modification time : Tue Mar 25 09:48:39 2014

@<TRIPOS>MOLECULE
3qj7_UMP_2_ligand
   31    32     1     0     0
SMALL
NO_CHARGES


@<TRIPOS>ATOM
      1 N1         16.3270   -6.1530   41.0660 N.am      1 UMP601      0.0000 
      2 C2         15.0800   -6.3440   40.5000 C.2       1 UMP601      0.0000 
      3 N3         13.9790   -5.7460   41.0610 N.am      1 UMP601      0.0000 
      4 C4         14.1070   -4.9770   42.1970 C.2       1 UMP601      0.0000 
      5 C5         15.3600   -4.7960   42.7730 C.2       1 UMP601      0.0000 
      6 C6         16.4730   -5.3990   42.1920 C.2       1 UMP601      0.0000 
      7 O2         14.9560   -7.0420   39.4910 O.2       1 UMP601      0.0000 
      8 O4         13.1130   -4.4530   42.6980 O.2       1 UMP601      0.0000 
      9 C1'        17.5150   -6.8110   40.4930 C.3       1 UMP601      0.0000 
     10 C2'        18.0740   -6.1790   39.2250 C.3       1 UMP601      0.0000 
     11 C3'        19.5720   -6.3990   39.4100 C.3       1 UMP601      0.0000 
     12 C4'        19.7750   -6.4350   40.9120 C.3       1 UMP601      0.0000 
     13 O3'        19.9510   -7.6570   38.9160 O.3       1 UMP601      0.0000 
     14 O4'        18.5290   -6.7870   41.4790 O.3       1 UMP601      0.0000 
     15 C5'        20.2470   -5.0810   41.4300 C.3       1 UMP601      0.0000 
     16 O5'        21.4980   -4.9340   40.8260 O.3       1 UMP601      0.0000 
     17 P          22.1280   -3.5480   40.3080 P.3       1 UMP601      0.0000 
     18 OP1        21.4300   -3.1260   39.0450 O.co2     1 UMP601      0.0000 
     19 OP2        22.0040   -2.4450   41.3220 O.co2     1 UMP601      0.0000 
     20 OP3        23.5700   -3.8730   40.0260 O.co2     1 UMP601      0.0000 
     21 H          13.0457   -5.8722   40.6295 H         1 UMP601      0.0000 
     22 H          15.4642   -4.2250   43.6162 H         1 UMP601      0.0000 
     23 H          17.4010   -5.2670   42.6236 H         1 UMP601      0.0000 
     24 H          17.2694   -7.8551   40.2636 H         1 UMP601      0.0000 
     25 H          17.8618   -5.1482   39.2126 H         1 UMP601      0.0000 
     26 H          17.7357   -6.7073   38.3799 H         1 UMP601      0.0000 
     27 H          20.1002   -5.5933   39.0118 H         1 UMP601      0.0000 
     28 H          20.5272   -7.1734   41.1293 H         1 UMP601      0.0000 
     29 H          20.2990   -5.1374   42.5012 H         1 UMP601      0.0000 
     30 H          19.5358   -4.3408   41.1144 H         1 UMP601      0.0000 
     31 H          19.2628   -8.2913   39.2682 H         1 UMP601      0.0000 
@<TRIPOS>BOND
     1    2    1 1    
     2    6    1 1    
     3    9    1 1    
     4    3    2 1    
     5    7    2 2    
     6    4    3 1    
     7   21    3 1    
     8    5    4 1    
     9    8    4 2    
    10    6    5 2    
    11   22    5 1    
    12   23    6 1    
    13   10    9 1    
    14   14    9 1    
    15   24    9 1    
    16   11   10 1    
    17   25   10 1    
    18   26   10 1    
    19   12   11 1    
    20   13   11 1    
    21   27   11 1    
    22   14   12 1    
    23   15   12 1    
    24   28   12 1    
    25   31   13 1    
    26   16   15 1    
    27   29   15 1    
    28   30   15 1    
    29   17   16 1    
    30   18   17 ar   
    31   19   17 ar   
    32   20   17 ar   
@<TRIPOS>SUBSTRUCTURE
     1 UMP601      1 GROUP   
@<TRIPOS>SET

