#    Name: 1exv_700_2_INTS_M
#    Modification time : Tue Mar 25 00:22:44 2014

@<TRIPOS>MOLECULE
1exv_700_2_INTS_M
   66     0     9     0     0
SMALL
NO_CHARGES


@<TRIPOS>ATOM
      1 CA         91.3170   96.4825   72.5860 C.3       3 GLC5        0.0000 
      2 CA         90.4100   94.8530   72.7370 C.3       9 GLL5        0.0000 
      3 CA         92.2240   98.1120   72.4350 C.3       6 GLP5        0.0000 
      4 CA         88.7820   96.0810   71.8765 C.3       3 GLC5        0.0000 
      5 CA         87.1540   97.3090   71.0160 C.3       6 GLP5        0.0000 
      6 CA         87.2735   96.4320   74.6910 C.3       3 GLC5        0.0000 
      7 CA         88.5590   94.6720   74.5780 C.3       9 GLL5        0.0000 
      8 CA         85.9880   98.1920   74.8040 C.3       6 GLP5        0.0000 
      9 CA         88.6950   95.1285   77.7725 C.3       3 GLC5        0.0000 
     10 CA         88.1340   94.2820   75.8860 C.3       9 GLL5        0.0000 
     11 CA         89.2560   95.9750   79.6590 C.3       6 GLP5        0.0000 
     12 CA         87.7290   91.9205   76.9925 C.3       3 GLC5        0.0000 
     13 CA         89.0560   93.6910   76.7880 C.3       9 GLL5        0.0000 
     14 CA         86.4020   90.1500   77.1970 C.3       6 GLP5        0.0000 
     15 CA         88.3095   92.6655   78.6395 C.3       3 GLC5        0.0000 
     16 CA         87.5630   91.6400   80.4910 C.3       6 GLP5        0.0000 
     17 N          87.7375   93.7405   69.6645 N.am      2 SEC2        0.0000 
     18 N          88.6070   93.4670   70.8270 N.am      8 SEL2        0.0000 
     19 N          86.8680   94.0140   68.5020 N.am      5 SEP2        0.0000 
     20 CA         87.3750   90.2280   75.4240 C.3       3 GLC5        0.0000 
     21 CA         88.3480   90.3060   73.6510 C.3       9 GLL5        0.0000 
     22 CA         86.9420   90.2385   70.9995 C.3       3 GLC5        0.0000 
     23 CA         87.7190   91.2080   72.4930 C.3       9 GLL5        0.0000 
     24 CA         86.1650   89.2690   69.5060 C.3       6 GLP5        0.0000 
     25 O          91.0265   95.4880   70.1665 O.2       1 ALC1        0.0000 
     26 O          91.2630   93.9460   70.5260 O.2       7 ALL1        0.0000 
     27 O          90.7900   97.0300   69.8070 O.2       4 ALP1        0.0000 
     28 CA         94.9080   90.6435   65.1635 C.3       3 GLC5        0.0000 
     29 CA         93.6740   92.3290   65.1320 C.3       9 GLL5        0.0000 
     30 CA         96.1420   88.9580   65.1950 C.3       6 GLP5        0.0000 
     31 CA         93.0820   90.2350   65.4575 C.3       3 GLC5        0.0000 
     32 CA         92.4900   88.1410   65.7830 C.3       6 GLP5        0.0000 
     33 CA         96.0150   95.7980   61.5255 C.3       3 GLC5        0.0000 
     34 CA         94.8350   95.4920   62.8270 C.3       9 GLL5        0.0000 
     35 CA         97.1950   96.1040   60.2240 C.3       6 GLP5        0.0000 
     36 CA         94.7325   97.3175   63.2890 C.3       3 GLC5        0.0000 
     37 CA         94.6300   99.1430   63.7510 C.3       6 GLP5        0.0000 
     38 CA         93.2855   95.1100   61.8870 C.3       3 GLC5        0.0000 
     39 CA         91.7360   94.7280   60.9470 C.3       6 GLP5        0.0000 
     40 CA         94.1780   97.1880   64.5330 C.3       3 GLC5        0.0000 
     41 CA         93.7260   95.2330   65.3150 C.3       9 GLL5        0.0000 
     42 O          92.3625   91.1210   67.4550 O.2       1 ALC1        0.0000 
     43 O          92.6540   92.4530   67.4210 O.2       7 ALL1        0.0000 
     44 O          92.0710   89.7890   67.4890 O.2       4 ALP1        0.0000 
     45 CA         89.8088   94.1328   78.3742 C.3       3 GLC5        0.0000 
     46 CA         90.4070   93.4920   76.3930 C.3       9 GLL5        0.0000 
     47 CA         89.8860   94.6740   80.1580 C.3       6 GLP5        0.0000 
     48 CA         91.7265   95.6530   66.2157 C.3       3 GLC5        0.0000 
     49 CA         92.6230   94.7120   67.7240 C.3       9 GLL5        0.0000 
     50 CA         90.5340   96.7360   65.3810 C.3       6 GLP5        0.0000 
     51 CA         90.9527   93.8779   67.2615 C.3       3 GLC5        0.0000 
     52 CA         93.2150   94.4280   66.3770 C.3       9 GLL5        0.0000 
     53 CA         89.0700   93.5270   67.3280 C.3       6 GLP5        0.0000 
     54 CA         91.5250   92.2377   65.6328 C.3       3 GLC5        0.0000 
     55 CA         93.1840   93.0040   66.2890 C.3       9 GLL5        0.0000 
     56 CA         89.6210   91.8090   65.5550 C.3       6 GLP5        0.0000 
     57 CA         95.3790   93.1873   65.5470 C.3       3 GLC5        0.0000 
     58 CA         96.8310   93.6460   66.4970 C.3       6 GLP5        0.0000 
     59 CA         93.9130   91.7092   62.8610 C.3       3 GLC5        0.0000 
     60 CA         94.1800   93.1280   64.0620 C.3       9 GLL5        0.0000 
     61 CA         93.8990   90.6900   61.1250 C.3       6 GLP5        0.0000 
     62 CA         92.2505   95.8170   65.0580 C.3       3 GLC5        0.0000 
     63 CA         94.2080   94.5630   64.1550 C.3       9 GLL5        0.0000 
     64 CA         95.9843   94.6568   64.3715 C.3       3 GLC5        0.0000 
     65 CA         97.4470   94.2860   65.2520 C.3       6 GLP5        0.0000 
     66 CA         95.1469   94.0603   66.1605 C.3       3 GLC5        0.0000 
@<TRIPOS>BOND
@<TRIPOS>SUBSTRUCTURE
     1 ALC1       25 GROUP        1 X    ALC  0     ROOT ALC X 1
     2 SEC2       17 GROUP        1 X    SEC  0     **** SEC X 2
     3 GLC5        1 GROUP        1 X    GLC  0     **** GLC X 6
     4 ALP1       27 GROUP        1 Y    ALP  0     ROOT ALP Y 8
     5 SEP2       19 GROUP        1 Y    SEP  0     **** SEP Y 9
     6 GLP5        3 GROUP        1 Y    GLP  0     **** GLP Y 13
     7 ALL1       26 GROUP        1 Z    ALL  0     ROOT ALL Z 15
     8 SEL2       18 GROUP        1 Z    SEL  0     **** SEL Z 16
     9 GLL5        2 GROUP        1 Z    GLL  0     **** GLL Z 20
@<TRIPOS>SET

