#    Name: 1exv_700_2_ligand
#    Modification time : Tue Mar 25 00:22:44 2014

@<TRIPOS>MOLECULE
1exv_700_2_ligand
   49    52     1     0     0
SMALL
NO_CHARGES


@<TRIPOS>ATOM
      1 C10        90.4100   94.8530   72.7370 C.3       1 7001862     0.0000 
      2 C11        89.9210   94.4720   74.1670 C.ar      1 7001862     0.0000 
      3 C12        88.5590   94.6720   74.5780 C.ar      1 7001862     0.0000 
      4 C13        88.1340   94.2820   75.8860 C.ar      1 7001862     0.0000 
      5 C14        89.0560   93.6910   76.7880 C.ar      1 7001862     0.0000 
      6 C15        90.4070   93.4920   76.3930 C.ar      1 7001862     0.0000 
      7 C16        90.8380   93.8790   75.0930 C.ar      1 7001862     0.0000 
      8 C17        90.6290   93.5730   71.8220 C.3       1 7001862     0.0000 
      9 C18        89.3350   92.9840   71.6540 C.2       1 7001862     0.0000 
     10 O2         88.6070   93.4670   70.8270 O.2       1 7001862     0.0000 
     11 N3         88.9510   91.9820   72.4970 N.am      1 7001862     0.0000 
     12 C19        89.6450   91.1130   73.4730 C.3       1 7001862     0.0000 
     13 C20        88.3480   90.3060   73.6510 C.3       1 7001862     0.0000 
     14 C21        88.3330   88.7620   73.5320 C.2       1 7001862     0.0000 
     15 O3         89.3410   88.1930   73.9470 O.co2     1 7001862     0.0000 
     16 O4         87.2910   88.2900   73.0750 O.co2     1 7001862     0.0000 
     17 C22        87.7190   91.2080   72.4930 C.3       1 7001862     0.0000 
     18 N1         91.2630   93.9460   70.5260 N.am      1 7001862     0.0000 
     19 C9         91.6660   92.9910   69.6070 C.2       1 7001862     0.0000 
     20 C8         92.2890   93.3470   68.3020 C.2       1 7001862     0.0000 
     21 C7         92.6230   94.7120   67.7240 C.2       1 7001862     0.0000 
     22 C6         93.2150   94.4280   66.3770 C.ar      1 7001862     0.0000 
     23 C1         93.1840   93.0040   66.2890 C.ar      1 7001862     0.0000 
     24 C2         93.6740   92.3290   65.1320 C.ar      1 7001862     0.0000 
     25 C3         94.1800   93.1280   64.0620 C.ar      1 7001862     0.0000 
     26 C4         94.2080   94.5630   64.1550 C.ar      1 7001862     0.0000 
     27 CL1        94.8350   95.4920   62.8270 Cl        1 7001862     0.0000 
     28 C5         93.7260   95.2330   65.3150 C.ar      1 7001862     0.0000 
     29 N2         92.6540   92.4530   67.4210 N.pl3     1 7001862     0.0000 
     30 O1         91.5120   91.7880   69.8180 O.2       1 7001862     0.0000 
     31 H          91.3527   95.3832   72.8085 H         1 7001862     0.0000 
     32 H          89.6707   95.4868   72.2609 H         1 7001862     0.0000 
     33 H          87.8959   95.0936   73.9326 H         1 7001862     0.0000 
     34 H          87.1666   94.4307   76.1664 H         1 7001862     0.0000 
     35 H          88.7515   93.4092   77.7177 H         1 7001862     0.0000 
     36 H          91.0700   93.0707   77.0426 H         1 7001862     0.0000 
     37 H          91.8090   93.7340   74.8147 H         1 7001862     0.0000 
     38 H          91.2789   92.9202   72.3859 H         1 7001862     0.0000 
     39 H          89.8483   91.6095   74.3354 H         1 7001862     0.0000 
     40 H          90.3413   90.5274   73.0215 H         1 7001862     0.0000 
     41 H          87.8930   90.6994   74.5465 H         1 7001862     0.0000 
     42 H          87.6269   90.6201   71.6777 H         1 7001862     0.0000 
     43 H          86.9401   91.7069   72.8972 H         1 7001862     0.0000 
     44 H          91.3853   94.9508   70.3506 H         1 7001862     0.0000 
     45 H          92.4923   95.4926   68.1070 H         1 7001862     0.0000 
     46 H          93.6639   91.3313   65.0714 H         1 7001862     0.0000 
     47 H          94.5291   92.6767   63.2140 H         1 7001862     0.0000 
     48 H          93.7441   96.2294   65.3846 H         1 7001862     0.0000 
     49 H          92.5675   91.4627   67.5341 H         1 7001862     0.0000 
@<TRIPOS>BOND
     1    2    1 1    
     2    8    1 1    
     3   31    1 1    
     4   32    1 1    
     5    3    2 ar   
     6    7    2 ar   
     7    4    3 ar   
     8   33    3 1    
     9    5    4 ar   
    10   34    4 1    
    11    6    5 ar   
    12   35    5 1    
    13    7    6 ar   
    14   36    6 1    
    15   37    7 1    
    16    9    8 1    
    17   18    8 1    
    18   38    8 1    
    19   10    9 2    
    20   11    9 am   
    21   12   11 1    
    22   17   11 1    
    23   13   12 1    
    24   39   12 1    
    25   40   12 1    
    26   14   13 1    
    27   17   13 1    
    28   41   13 1    
    29   15   14 ar   
    30   16   14 ar   
    31   42   17 1    
    32   43   17 1    
    33   19   18 am   
    34   44   18 1    
    35   20   19 1    
    36   30   19 2    
    37   21   20 2    
    38   29   20 1    
    39   22   21 1    
    40   45   21 1    
    41   23   22 ar   
    42   28   22 ar   
    43   24   23 ar   
    44   29   23 1    
    45   25   24 ar   
    46   46   24 1    
    47   26   25 ar   
    48   47   25 1    
    49   27   26 1    
    50   28   26 ar   
    51   48   28 1    
    52   49   29 1    
@<TRIPOS>SUBSTRUCTURE
     1 7001862     1 GROUP   
@<TRIPOS>SET

