#    Name: 2eat_CZA_2_INTS_M
#    Modification time : Tue Mar 25 10:48:02 2014

@<TRIPOS>MOLECULE
2eat_CZA_2_INTS_M
   58     0     6     0     0
SMALL
NO_CHARGES


@<TRIPOS>ATOM
      1 CA         19.6400  -18.5930   13.3585 C.3       2 GLC5        0.0000 
      2 CA         20.6880  -17.1050   14.3340 C.3       6 GLL5        0.0000 
      3 CA         18.5920  -20.0810   12.3830 C.3       4 GLP5        0.0000 
      4 CA         18.4930  -18.4570   13.4690 C.3       2 GLC5        0.0000 
      5 CA         18.3940  -16.8330   14.5550 C.3       6 GLL5        0.0000 
      6 CA         17.5830  -15.9220   16.3530 C.3       2 GLC5        0.0000 
      7 CA         16.7720  -15.0110   18.1510 C.3       4 GLP5        0.0000 
      8 CA         16.6795  -17.4330   14.4000 C.3       2 GLC5        0.0000 
      9 CA         14.9650  -18.0330   14.2450 C.3       4 GLP5        0.0000 
     10 CA         17.6010  -15.7255   12.7720 C.3       2 GLC5        0.0000 
     11 CA         16.8080  -14.6180   10.9890 C.3       4 GLP5        0.0000 
     12 CA         23.2315  -14.7900   14.1460 C.3       2 GLC5        0.0000 
     13 CA         22.9540  -16.7080   14.1490 C.3       6 GLL5        0.0000 
     14 CA         23.5090  -12.8720   14.1430 C.3       4 GLP5        0.0000 
     15 CA         24.4340  -14.7620   14.1370 C.3       2 GLC5        0.0000 
     16 CA         25.3590  -16.6520   14.1310 C.3       6 GLL5        0.0000 
     17 O          27.7180  -17.4755   16.3475 O.2       1 ALC1        0.0000 
     18 O          27.0580  -17.0710   15.4880 O.2       5 ALL1        0.0000 
     19 O          28.3780  -17.8800   17.2070 O.2       3 ALP1        0.0000 
     20 CA         29.4945  -16.8010   10.2660 C.3       2 GLC5        0.0000 
     21 CA         28.8990  -17.4710   12.2510 C.3       6 GLL5        0.0000 
     22 CA         30.0900  -16.1310    8.2810 C.3       4 GLP5        0.0000 
     23 CA         27.8510  -17.8070    9.6580 C.3       2 GLC5        0.0000 
     24 CA         27.8030  -17.2180   11.4150 C.3       6 GLL5        0.0000 
     25 CA         27.8990  -18.3960    7.9010 C.3       4 GLP5        0.0000 
     26 CA         22.2950  -13.9915    9.8840 C.3       2 GLC5        0.0000 
     27 CA         23.0020  -15.2690   10.8220 C.3       6 GLL5        0.0000 
     28 CA         21.5880  -12.7140    8.9460 C.3       4 GLP5        0.0000 
     29 CA         21.3235  -19.2260   11.4500 C.3       2 GLC5        0.0000 
     30 CA         21.8290  -17.4540   11.1460 C.3       6 GLL5        0.0000 
     31 CA         20.8180  -20.9980   11.7540 C.3       4 GLP5        0.0000 
     32 CA         21.5690  -14.1455   13.5285 C.3       2 GLC5        0.0000 
     33 CA         20.9210  -16.0750   13.3330 C.3       6 GLL5        0.0000 
     34 CA         22.2170  -12.2160   13.7240 C.3       4 GLP5        0.0000 
     35 CA         26.8852  -15.1958   12.8712 C.3       2 GLC5        0.0000 
     36 CA         26.4580  -16.9210   13.3700 C.3       6 GLL5        0.0000 
     37 CA         27.8620  -13.6050   11.9920 C.3       4 GLP5        0.0000 
     38 CA         25.6512  -18.6769   13.8175 C.3       2 GLC5        0.0000 
     39 CA         25.7260  -16.7890   15.4670 C.3       6 GLL5        0.0000 
     40 CA         26.0520  -20.4530   12.9740 C.3       4 GLP5        0.0000 
     41 CA         29.3643  -17.8272   15.1558 C.3       2 GLC5        0.0000 
     42 CA         27.5210  -17.1690   14.2200 C.3       6 GLL5        0.0000 
     43 CA         30.5870  -18.3460   16.3790 C.3       4 GLP5        0.0000 
     44 CA         28.0017  -15.4567   12.9623 C.3       2 GLC5        0.0000 
     45 CA         26.9639  -18.8498   13.3470 C.3       2 GLC5        0.0000 
     46 CA         30.2673  -16.4312   13.5295 C.3       2 GLC5        0.0000 
     47 CA         28.7620  -17.4480   13.6450 C.3       6 GLL5        0.0000 
     48 CA         31.7040  -15.4030   14.1110 C.3       4 GLP5        0.0000 
     49 CA         28.1070  -19.1237   11.5885 C.3       2 GLC5        0.0000 
     50 CA         27.8630  -20.9030   11.3440 C.3       4 GLP5        0.0000 
     51 CA         28.1065  -15.4748   11.9125 C.3       2 GLC5        0.0000 
     52 CA         26.8990  -15.2028   11.8105 C.3       2 GLC5        0.0000 
     53 CA         26.5740  -16.9400   12.0030 C.3       6 GLL5        0.0000 
     54 CA         25.5312  -18.7296   12.4055 C.3       2 GLC5        0.0000 
     55 CA         23.2032  -14.3657   12.7188 C.3       2 GLC5        0.0000 
     56 CA         21.5751  -16.7834    9.7471 C.3       2 GLC5        0.0000 
     57 CA         22.7930  -16.4500   11.7670 C.3       6 GLL5        0.0000 
     58 CA         20.7870  -16.9100    8.2740 C.3       4 GLP5        0.0000 
@<TRIPOS>BOND
@<TRIPOS>SUBSTRUCTURE
     1 ALC1       17 GROUP        1 X    ALC  0     ROOT ALC X 1
     2 GLC5        1 GROUP        1 X    GLC  0     **** GLC X 6
     3 ALP1       19 GROUP        1 Y    ALP  0     ROOT ALP Y 8
     4 GLP5        3 GROUP        1 Y    GLP  0     **** GLP Y 13
     5 ALL1       18 GROUP        1 Z    ALL  0     ROOT ALL Z 15
     6 GLL5        2 GROUP        1 Z    GLL  0     **** GLL Z 20
@<TRIPOS>SET

