#    Name: 2eat_CZA_2_ligand
#    Modification time : Tue Mar 25 10:48:02 2014

@<TRIPOS>MOLECULE
2eat_CZA_2_ligand
   46    50     1     0     0
SMALL
NO_CHARGES


@<TRIPOS>ATOM
      1 O2         22.0430  -18.7100   15.1800 O.2       1 CZA1005     0.0000 
      2 C6         21.8670  -17.6350   14.6250 C.2       1 CZA1005     0.0000 
      3 C3         20.6880  -17.1050   14.3340 C.2       1 CZA1005     0.0000 
      4 C2         19.5220  -17.4310   14.8980 C.2       1 CZA1005     0.0000 
      5 O1         19.4880  -18.3920   15.8160 O.2       1 CZA1005     0.0000 
      6 C1         18.3940  -16.8330   14.5550 C.3       1 CZA1005     0.0000 
      7 C5         22.9540  -16.7080   14.1490 C.3       1 CZA1005     0.0000 
      8 C7         24.1910  -17.3730   13.5790 C.3       1 CZA1005     0.0000 
      9 C15        25.3590  -16.6520   14.1310 C.2       1 CZA1005     0.0000 
     10 C16        25.7260  -16.7890   15.4670 C.2       1 CZA1005     0.0000 
     11 N2         27.0580  -17.0710   15.4880 N.pl3     1 CZA1005     0.0000 
     12 C17        27.5210  -17.1690   14.2200 C.ar      1 CZA1005     0.0000 
     13 C14        26.4580  -16.9210   13.3700 C.ar      1 CZA1005     0.0000 
     14 C18        28.7620  -17.4480   13.6450 C.ar      1 CZA1005     0.0000 
     15 C19        28.8990  -17.4710   12.2510 C.ar      1 CZA1005     0.0000 
     16 C20        27.8030  -17.2180   11.4150 C.ar      1 CZA1005     0.0000 
     17 C13        26.5740  -16.9400   12.0030 C.ar      1 CZA1005     0.0000 
     18 C12        25.2980  -16.6610   11.2550 C.3       1 CZA1005     0.0000 
     19 C8         24.0850  -17.2120   12.0450 C.3       1 CZA1005     0.0000 
     20 C9         22.7930  -16.4500   11.7670 C.3       1 CZA1005     0.0000 
     21 C10        23.0020  -15.2690   10.8220 C.3       1 CZA1005     0.0000 
     22 C11        21.8290  -17.4540   11.1460 C.3       1 CZA1005     0.0000 
     23 N1         22.3120  -15.9270   13.0690 N.4       1 CZA1005     0.0000 
     24 C4         20.9210  -16.0750   13.3330 C.2       1 CZA1005     0.0000 
     25 O3         20.0520  -15.3990   12.8100 O.3       1 CZA1005     0.0000 
     26 H          23.2217  -16.0340   14.9375 H         1 CZA1005     0.0000 
     27 H          24.1895  -18.3876   13.8316 H         1 CZA1005     0.0000 
     28 H          25.1451  -16.6995   16.2084 H         1 CZA1005     0.0000 
     29 H          27.5896  -17.1835   16.2915 H         1 CZA1005     0.0000 
     30 H          29.5750  -17.6365   14.2413 H         1 CZA1005     0.0000 
     31 H          29.8194  -17.6770   11.8337 H         1 CZA1005     0.0000 
     32 H          27.9090  -17.2384   10.4057 H         1 CZA1005     0.0000 
     33 H          25.3211  -17.1415   10.2811 H         1 CZA1005     0.0000 
     34 H          25.1659  -15.5908   11.1244 H         1 CZA1005     0.0000 
     35 H          23.8824  -18.2598   11.6479 H         1 CZA1005     0.0000 
     36 H          22.6209  -14.8981   13.1952 H         1 CZA1005     0.0000 
     37 H          18.4311  -15.8474   14.7199 H         1 CZA1005     0.0000 
     38 H          18.1862  -16.9603   13.5852 H         1 CZA1005     0.0000 
     39 H          17.6140  -17.1873   15.0709 H         1 CZA1005     0.0000 
     40 H          23.6524  -14.6065   11.1937 H         1 CZA1005     0.0000 
     41 H          23.3571  -15.5620    9.9343 H         1 CZA1005     0.0000 
     42 H          22.1490  -14.7767   10.6485 H         1 CZA1005     0.0000 
     43 H          22.1873  -17.8345   10.2935 H         1 CZA1005     0.0000 
     44 H          21.6496  -18.2241   11.7581 H         1 CZA1005     0.0000 
     45 H          20.9454  -17.0373   10.9324 H         1 CZA1005     0.0000 
     46 H          20.5202  -14.5726   12.4973 H         1 CZA1005     0.0000 
@<TRIPOS>BOND
     1    2    1 2    
     2    3    2 1    
     3    7    2 1    
     4    4    3 1    
     5   24    3 2    
     6    5    4 2    
     7    6    4 1    
     8   37    6 1    
     9   38    6 1    
    10   39    6 1    
    11    8    7 1    
    12   23    7 1    
    13   26    7 1    
    14    9    8 1    
    15   19    8 1    
    16   27    8 1    
    17   10    9 2    
    18   13    9 1    
    19   11   10 1    
    20   28   10 1    
    21   12   11 1    
    22   29   11 1    
    23   13   12 ar   
    24   14   12 ar   
    25   17   13 ar   
    26   15   14 ar   
    27   30   14 1    
    28   16   15 ar   
    29   31   15 1    
    30   17   16 ar   
    31   32   16 1    
    32   18   17 1    
    33   19   18 1    
    34   33   18 1    
    35   34   18 1    
    36   20   19 1    
    37   35   19 1    
    38   21   20 1    
    39   22   20 1    
    40   23   20 1    
    41   40   21 1    
    42   41   21 1    
    43   42   21 1    
    44   43   22 1    
    45   44   22 1    
    46   45   22 1    
    47   24   23 1    
    48   36   23 1    
    49   25   24 1    
    50   46   25 1    
@<TRIPOS>SUBSTRUCTURE
     1 CZA1005     1 GROUP   
@<TRIPOS>SET

