#    Name: 2yit_YIT_1_INTS_M
#    Modification time : Tue Mar 25 09:21:54 2014

@<TRIPOS>MOLECULE
2yit_YIT_1_INTS_M
   89     0     9     0     0
SMALL
NO_CHARGES


@<TRIPOS>ATOM
      1 CA         49.6295  -20.0895   -2.8420 C.3       3 GLC5        0.0000 
      2 CA         48.1120  -18.9770   -1.8380 C.3       9 GLL5        0.0000 
      3 CA         51.1470  -21.2020   -3.8460 C.3       6 GLP5        0.0000 
      4 CA         48.2800  -17.3245   -0.7155 C.3       3 GLC5        0.0000 
      5 CA         48.4480  -15.6720    0.4070 C.3       6 GLP5        0.0000 
      6 CA         46.2835  -17.9910   -2.5495 C.3       3 GLC5        0.0000 
      7 CA         44.4550  -17.0050   -3.2610 C.3       6 GLP5        0.0000 
      8 CA         49.8625  -18.3965   -4.7690 C.3       3 GLC5        0.0000 
      9 CA         48.0010  -17.6900   -4.4150 C.3       9 GLL5        0.0000 
     10 CA         51.7240  -19.1030   -5.1230 C.3       6 GLP5        0.0000 
     11 CA         49.9000  -16.8705   -3.7705 C.3       3 GLC5        0.0000 
     12 CA         51.7990  -16.0510   -3.1260 C.3       6 GLP5        0.0000 
     13 CA         45.1385  -12.3095  -13.9085 C.3       3 GLC5        0.0000 
     14 CA         46.7430  -13.3930  -12.9470 C.3       9 GLL5        0.0000 
     15 CA         43.5340  -11.2260  -14.8700 C.3       6 GLP5        0.0000 
     16 CA         50.1240  -13.6490  -12.0530 C.3       3 GLC5        0.0000 
     17 CA         48.5240  -12.9780  -10.8290 C.3       9 GLL5        0.0000 
     18 CA         51.7240  -14.3200  -13.2770 C.3       6 GLP5        0.0000 
     19 CA         49.4605  -11.7070   -9.5825 C.3       3 GLC5        0.0000 
     20 CA         50.3970  -10.4360   -8.3360 C.3       6 GLP5        0.0000 
     21 CA         49.6605  -13.3685  -13.1895 C.3       3 GLC5        0.0000 
     22 CA         48.6130  -12.2030  -12.0000 C.3       9 GLL5        0.0000 
     23 CA         50.7080  -14.5340  -14.3790 C.3       6 GLP5        0.0000 
     24 CA         50.3885  -11.7480  -11.0110 C.3       3 GLC5        0.0000 
     25 CA         52.1640  -11.2930  -10.0220 C.3       6 GLP5        0.0000 
     26 CA         46.0780  -11.1870  -13.9265 C.3       3 GLC5        0.0000 
     27 CA         47.7160  -12.3960  -13.0690 C.3       9 GLL5        0.0000 
     28 CA         44.4400   -9.9780  -14.7840 C.3       6 GLP5        0.0000 
     29 CA         48.4310   -8.9325  -12.7400 C.3       3 GLC5        0.0000 
     30 CA         48.3530  -10.1870  -14.2140 C.3       9 GLL5        0.0000 
     31 CA         48.5090   -7.6780  -11.2660 C.3       6 GLP5        0.0000 
     32 CA         46.3965  -10.0825  -14.4990 C.3       3 GLC5        0.0000 
     33 CA         51.4135  -10.8870  -15.8325 C.3       3 GLC5        0.0000 
     34 CA         49.6710  -10.0900  -15.0070 C.3       9 GLL5        0.0000 
     35 CA         53.1560  -11.6840  -16.6580 C.3       6 GLP5        0.0000 
     36 CA         49.2575   -7.6965  -16.5475 C.3       3 GLC5        0.0000 
     37 CA         50.2010   -8.6410  -14.9860 C.3       9 GLL5        0.0000 
     38 CA         48.3140   -6.7520  -18.1090 C.3       6 GLP5        0.0000 
     39 CA         51.8435   -7.8105  -15.8960 C.3       3 GLC5        0.0000 
     40 CA         53.4860   -6.9800  -16.8060 C.3       6 GLP5        0.0000 
     41 CA         49.4980   -7.0280  -14.5265 C.3       3 GLC5        0.0000 
     42 CA         48.7950   -5.4150  -14.0670 C.3       6 GLP5        0.0000 
     43 CA         49.3550   -8.1595  -13.1260 C.3       3 GLC5        0.0000 
     44 CA         51.3455   -7.5550  -13.9805 C.3       3 GLC5        0.0000 
     45 CA         52.4900   -6.4690  -12.9750 C.3       6 GLP5        0.0000 
     46 CA         52.0680   -9.1485  -14.3725 C.3       3 GLC5        0.0000 
     47 CA         53.9350   -9.6560  -13.7590 C.3       6 GLP5        0.0000 
     48 O          47.4030  -10.0745  -16.7215 O.2       1 ALC1        0.0000 
     49 O          47.3720  -11.5010  -16.4900 O.2       7 ALL1        0.0000 
     50 O          47.4340   -8.6480  -16.9530 O.2       4 ALP1        0.0000 
     51 OD1        47.4940  -10.2425  -18.9180 O.co2     2 ASC3        0.0000 
     52 OD1        46.9450  -12.1090  -17.6190 O.co2     8 ASL3        0.0000 
     53 OD1        48.0240   -8.9550  -19.0250 O.co2     5 ASP3        0.0000 
     54 OD1        47.1990  -10.0890  -17.8820 O.co2     2 ASC3        0.0000 
     55 OD1        47.4340   -8.6480  -16.9530 O.co2     5 ASP3        0.0000 
     56 OD1        45.4265  -11.5795  -17.4295 O.co2     2 ASC3        0.0000 
     57 OD1        43.9080  -11.0500  -17.2400 O.co2     5 ASP3        0.0000 
     58 O          47.4940  -10.2425  -18.9180 O.2       1 ALC1        0.0000 
     59 O          46.9640  -11.5300  -18.8110 O.2       7 ALL1        0.0000 
     60 O          48.0240   -8.9550  -19.0250 O.2       4 ALP1        0.0000 
     61 O          47.1990  -10.0890  -17.8820 O.2       1 ALC1        0.0000 
     62 CA         45.5800  -17.6475   -4.8822 C.3       3 GLC5        0.0000 
     63 CA         46.4080  -18.9010   -6.3730 C.3       9 GLL5        0.0000 
     64 CA         48.5615  -20.0217   -5.3783 C.3       3 GLC5        0.0000 
     65 CA         46.5960  -19.5170   -5.1390 C.3       9 GLL5        0.0000 
     66 CA         50.1330  -20.8190   -6.1090 C.3       6 GLP5        0.0000 
     67 CA         45.7225  -18.1148   -3.9543 C.3       3 GLC5        0.0000 
     68 CA         47.3840  -18.9320   -4.1560 C.3       9 GLL5        0.0000 
     69 CA         46.1800  -17.1910   -4.1525 C.3       3 GLC5        0.0000 
     70 CA         48.6950  -19.2480   -6.0986 C.3       3 GLC5        0.0000 
     71 CA         47.8090  -17.0640   -5.6730 C.3       9 GLL5        0.0000 
     72 CA         49.3870  -16.6553   -7.9995 C.3       3 GLC5        0.0000 
     73 CA         48.2450  -15.9220   -6.2270 C.3       9 GLL5        0.0000 
     74 CA         50.7850  -17.4340   -9.1530 C.3       6 GLP5        0.0000 
     75 CA         46.1950  -14.8468   -6.9355 C.3       3 GLC5        0.0000 
     76 CA         47.7330  -15.8310   -7.4650 C.3       9 GLL5        0.0000 
     77 CA         44.4010  -13.8170   -7.0250 C.3       6 GLP5        0.0000 
     78 CA         48.1932  -15.7270  -11.1875 C.3       3 GLC5        0.0000 
     79 CA         47.5380  -13.9470  -10.7130 C.3       9 GLL5        0.0000 
     80 CA         49.2880  -17.4130  -11.1280 C.3       6 GLP5        0.0000 
     81 CA         48.3822  -14.8245  -12.6530 C.3       3 GLC5        0.0000 
     82 CA         49.6660  -15.6080  -14.0590 C.3       6 GLP5        0.0000 
     83 CA         47.0580  -12.6738   -9.0265 C.3       3 GLC5        0.0000 
     84 CA         46.0850  -11.8850   -7.2820 C.3       6 GLP5        0.0000 
     85 CA         48.4477  -14.2513  -13.5335 C.3       3 GLC5        0.0000 
     86 CA         45.5709  -12.5165  -11.3185 C.3       3 GLC5        0.0000 
     87 CA         44.2210  -11.3160  -10.5400 C.3       6 GLP5        0.0000 
     88 CA         46.6088  -11.1562  -11.5242 C.3       3 GLC5        0.0000 
     89 CA         45.0530  -10.0130  -10.5140 C.3       6 GLP5        0.0000 
@<TRIPOS>BOND
@<TRIPOS>SUBSTRUCTURE
     1 ALC1       48 GROUP        1 X    ALC  0     ROOT ALC X 1
     2 ASC3       51 GROUP        1 X    ASC  0     **** ASC X 3
     3 GLC5        1 GROUP        1 X    GLC  0     **** GLC X 6
     4 ALP1       50 GROUP        1 Y    ALP  0     ROOT ALP Y 8
     5 ASP3       53 GROUP        1 Y    ASP  0     **** ASP Y 10
     6 GLP5        3 GROUP        1 Y    GLP  0     **** GLP Y 13
     7 ALL1       49 GROUP        1 Z    ALL  0     ROOT ALL Z 15
     8 ASL3       52 GROUP        1 Z    ASL  0     **** ASL Z 17
     9 GLL5        2 GROUP        1 Z    GLL  0     **** GLL Z 20
@<TRIPOS>SET

