#    Name: 2yit_YIT_1_ligand
#    Modification time : Tue Mar 25 09:21:54 2014

@<TRIPOS>MOLECULE
2yit_YIT_1_ligand
   54    56     1     0     0
SMALL
NO_CHARGES


@<TRIPOS>ATOM
      1 NAA        46.9850  -16.9060   -7.7150 N.pl3     1 YIT600      0.0000 
      2 CAI        47.0020  -17.6790   -6.6340 C.ar      1 YIT600      0.0000 
      3 CAH        46.4080  -18.9010   -6.3730 C.ar      1 YIT600      0.0000 
      4 CAG        46.5960  -19.5170   -5.1390 C.ar      1 YIT600      0.0000 
      5 CAL        47.3840  -18.9320   -4.1560 C.ar      1 YIT600      0.0000 
      6 OBB        47.5120  -19.6420   -2.9810 O.3       1 YIT600      0.0000 
      7 CAO        48.1120  -18.9770   -1.8380 C.3       1 YIT600      0.0000 
      8 CAK        48.0010  -17.6900   -4.4150 C.ar      1 YIT600      0.0000 
      9 CAJ        47.8090  -17.0640   -5.6730 C.ar      1 YIT600      0.0000 
     10 CAN        48.2450  -15.9220   -6.2270 C.2       1 YIT600      0.0000 
     11 CAM        47.7330  -15.8310   -7.4650 C.2       1 YIT600      0.0000 
     12 CAP        48.0110  -14.6880   -8.4710 C.2       1 YIT600      0.0000 
     13 OBC        48.8490  -13.8340   -8.2030 O.2       1 YIT600      0.0000 
     14 NAB        47.3860  -14.7720   -9.6620 N.am      1 YIT600      0.0000 
     15 CAQ        47.5380  -13.9470  -10.7130 C.ar      1 YIT600      0.0000 
     16 CAV        46.6590  -14.1350  -11.7810 C.ar      1 YIT600      0.0000 
     17 CAU        46.7430  -13.3930  -12.9470 C.ar      1 YIT600      0.0000 
     18 CAR        48.5240  -12.9780  -10.8290 C.ar      1 YIT600      0.0000 
     19 CAS        48.6130  -12.2030  -12.0000 C.ar      1 YIT600      0.0000 
     20 CAT        47.7160  -12.3960  -13.0690 C.ar      1 YIT600      0.0000 
     21 CAW        47.7950  -11.6060  -14.2310 C.2       1 YIT600      0.0000 
     22 CAX        48.3530  -10.1870  -14.2140 C.3       1 YIT600      0.0000 
     23 CAZ        49.6710  -10.0900  -15.0070 C.3       1 YIT600      0.0000 
     24 CBA        50.2010   -8.6410  -14.9860 C.3       1 YIT600      0.0000 
     25 NAC        47.3480  -12.1120  -15.3940 N.2       1 YIT600      0.0000 
     26 NAD        47.3720  -11.5010  -16.4900 N.pl3     1 YIT600      0.0000 
     27 CAY        46.9450  -12.1090  -17.6190 C.cat     1 YIT600      0.0000 
     28 NAF        46.9640  -11.5300  -18.8110 N.pl3     1 YIT600      0.0000 
     29 NAE        46.5130  -13.3380  -17.5860 N.pl3     1 YIT600      0.0000 
     30 H          46.5121  -17.0895   -8.5421 H         1 YIT600      0.0000 
     31 H          45.8263  -19.3577   -7.0889 H         1 YIT600      0.0000 
     32 H          46.1393  -20.4284   -4.9515 H         1 YIT600      0.0000 
     33 H          48.5794  -17.2445   -3.7075 H         1 YIT600      0.0000 
     34 H          48.8286  -15.2745   -5.8065 H         1 YIT600      0.0000 
     35 H          46.6830  -15.5964   -9.7854 H         1 YIT600      0.0000 
     36 H          45.9140  -14.8615  -11.6929 H         1 YIT600      0.0000 
     37 H          46.0952  -13.5697  -13.7240 H         1 YIT600      0.0000 
     38 H          49.1918  -12.8199  -10.0666 H         1 YIT600      0.0000 
     39 H          49.3453  -11.4829  -12.0776 H         1 YIT600      0.0000 
     40 H          48.5387   -9.8816  -13.1840 H         1 YIT600      0.0000 
     41 H          47.6258   -9.5049  -14.6553 H         1 YIT600      0.0000 
     42 H          49.4932  -10.3888  -16.0328 H         1 YIT600      0.0000 
     43 H          50.4073  -10.7445  -14.5570 H         1 YIT600      0.0000 
     44 H          47.7205  -10.5034  -16.5765 H         1 YIT600      0.0000 
     45 H          46.6553  -12.0922  -19.5782 H         1 YIT600      0.0000 
     46 H          47.2853  -10.5833  -18.8353 H         1 YIT600      0.0000 
     47 H          46.4867  -13.7711  -16.6850 H         1 YIT600      0.0000 
     48 H          46.2476  -13.7349  -18.4647 H         1 YIT600      0.0000 
     49 H          49.0445  -18.6727   -2.0327 H         1 YIT600      0.0000 
     50 H          47.5913  -18.1687   -1.5631 H         1 YIT600      0.0000 
     51 H          48.1605  -19.5793   -1.0412 H         1 YIT600      0.0000 
     52 H          50.3809   -8.3248  -14.0545 H         1 YIT600      0.0000 
     53 H          51.0562   -8.5509  -15.4964 H         1 YIT600      0.0000 
     54 H          49.5486   -8.0010  -15.3920 H         1 YIT600      0.0000 
@<TRIPOS>BOND
     1    2    1 1    
     2   11    1 1    
     3   30    1 1    
     4    3    2 ar   
     5    9    2 ar   
     6    4    3 ar   
     7   31    3 1    
     8    5    4 ar   
     9   32    4 1    
    10    6    5 1    
    11    8    5 ar   
    12    7    6 1    
    13   49    7 1    
    14   50    7 1    
    15   51    7 1    
    16    9    8 ar   
    17   33    8 1    
    18   10    9 1    
    19   11   10 2    
    20   34   10 1    
    21   12   11 1    
    22   13   12 2    
    23   14   12 am   
    24   15   14 1    
    25   35   14 1    
    26   16   15 ar   
    27   18   15 ar   
    28   17   16 ar   
    29   36   16 1    
    30   20   17 ar   
    31   37   17 1    
    32   19   18 ar   
    33   38   18 1    
    34   20   19 ar   
    35   39   19 1    
    36   21   20 1    
    37   22   21 1    
    38   25   21 2    
    39   23   22 1    
    40   40   22 1    
    41   41   22 1    
    42   24   23 1    
    43   42   23 1    
    44   43   23 1    
    45   52   24 1    
    46   53   24 1    
    47   54   24 1    
    48   26   25 1    
    49   27   26 ar   
    50   44   26 1    
    51   28   27 ar   
    52   29   27 ar   
    53   45   28 1    
    54   46   28 1    
    55   47   29 1    
    56   48   29 1    
@<TRIPOS>SUBSTRUCTURE
     1 YIT600      1 GROUP   
@<TRIPOS>SET

