#    Name: 3byz_H11_2_INTS_M
#    Modification time : Mon Mar 24 20:14:39 2014

@<TRIPOS>MOLECULE
3byz_H11_2_INTS_M
   62     0     9     0     0
SMALL
NO_CHARGES


@<TRIPOS>ATOM
      1 CA         15.9965   13.8850  145.3680 C.3       3 GLC5        0.0000 
      2 CA         14.4320   13.5120  144.0190 C.3       9 GLL5        0.0000 
      3 CA         17.5610   14.2580  146.7170 C.3       6 GLP5        0.0000 
      4 CA         16.0295   12.9025  143.5190 C.3       3 GLC5        0.0000 
      5 CA         17.6270   12.2930  143.0190 C.3       6 GLP5        0.0000 
      6 CA         11.8575    9.8820  146.7530 C.3       3 GLC5        0.0000 
      7 CA         11.8890   11.1740  145.2790 C.3       9 GLL5        0.0000 
      8 CA         11.8260    8.5900  148.2270 C.3       6 GLP5        0.0000 
      9 CA         12.0515   13.1250  148.6010 C.3       3 GLC5        0.0000 
     10 CA         11.6070   13.3250  146.4310 C.3       9 GLL5        0.0000 
     11 CA         12.4960   12.9250  150.7710 C.3       6 GLP5        0.0000 
     12 CA         12.0300   14.7610  147.9325 C.3       3 GLC5        0.0000 
     13 CA         12.4530   16.1970  149.4340 C.3       6 GLP5        0.0000 
     14 CA         10.8615   15.1470  146.4710 C.3       3 GLC5        0.0000 
     15 CA         10.1160   16.9690  146.5110 C.3       6 GLP5        0.0000 
     16 CA         10.0420   13.8065  147.8510 C.3       3 GLC5        0.0000 
     17 CA          8.4770   14.2880  149.2710 C.3       6 GLP5        0.0000 
     18 CA         14.5130   15.7315  143.4165 C.3       3 GLC5        0.0000 
     19 CA         14.5420   14.4820  141.7990 C.3       9 GLL5        0.0000 
     20 CA         14.4840   16.9810  145.0340 C.3       6 GLP5        0.0000 
     21 CA         12.5090   11.5130  139.4885 C.3       3 GLC5        0.0000 
     22 CA         13.7620   12.9700  139.8800 C.3       9 GLL5        0.0000 
     23 CA         11.2560   10.0560  139.0970 C.3       6 GLP5        0.0000 
     24 CA         14.0700   10.8350  140.2845 C.3       3 GLC5        0.0000 
     25 CA         14.3780    8.7000  140.6890 C.3       6 GLP5        0.0000 
     26 CA         15.8285   13.3855  137.6750 C.3       3 GLC5        0.0000 
     27 CA         14.0850   13.6080  138.5170 C.3       9 GLL5        0.0000 
     28 CA         17.5720   13.1630  136.8330 C.3       6 GLP5        0.0000 
     29 CA         13.5740   12.3060  136.8235 C.3       3 GLC5        0.0000 
     30 CA         13.0630   11.0040  135.1300 C.3       6 GLP5        0.0000 
     31 CA         16.4295   14.3995  138.2765 C.3       3 GLC5        0.0000 
     32 CA         15.2870   15.6360  139.7200 C.3       9 GLL5        0.0000 
     33 CA         17.0470   14.5960  140.5150 C.3       3 GLC5        0.0000 
     34 CA         18.8070   13.5560  141.3100 C.3       6 GLP5        0.0000 
     35 CA         14.7805   16.8970  142.6645 C.3       3 GLC5        0.0000 
     36 CA         15.0930   15.7840  141.2370 C.3       9 GLL5        0.0000 
     37 CA         14.4680   18.0100  144.0920 C.3       6 GLP5        0.0000 
     38 O          16.4710   14.4175  143.1065 O.2       1 ALC1        0.0000 
     39 O          15.1630   14.0820  143.0600 O.2       7 ALL1        0.0000 
     40 O          17.7790   14.7530  143.1530 O.2       4 ALP1        0.0000 
     41 N          15.6005   11.4185  147.6835 N.am      2 SEC2        0.0000 
     42 N          14.4260   12.1190  147.1070 N.am      8 SEL2        0.0000 
     43 N          16.7750   10.7180  148.2600 N.am      5 SEP2        0.0000 
     44 CA         14.6555    9.9750  145.1975 C.3       3 GLC5        0.0000 
     45 CA         12.6840   10.3700  144.2760 C.3       9 GLL5        0.0000 
     46 CA         16.6270    9.5800  146.1190 C.3       6 GLP5        0.0000 
     47 CA         14.0365   15.1908  144.4967 C.3       3 GLC5        0.0000 
     48 CA         12.7460   13.2890  143.9000 C.3       9 GLL5        0.0000 
     49 CA         11.9118   16.5113  138.9717 C.3       3 GLC5        0.0000 
     50 CA         14.0500   16.0780  138.9460 C.3       9 GLL5        0.0000 
     51 CA         10.1530   17.5380  139.2900 C.3       6 GLP5        0.0000 
     52 CA         12.2000    8.7690  145.5782 C.3       3 GLC5        0.0000 
     53 CA         12.1390    7.7360  147.1610 C.3       6 GLP5        0.0000 
     54 CA         13.7050    8.6595  143.3973 C.3       3 GLC5        0.0000 
     55 CA         11.8380    9.2340  143.7150 C.3       9 GLL5        0.0000 
     56 CA         15.1490    7.5170  142.7990 C.3       6 GLP5        0.0000 
     57 CA         11.8250   14.1133  137.6190 C.3       3 GLC5        0.0000 
     58 CA          9.9620   13.9770  136.7990 C.3       6 GLP5        0.0000 
     59 CA         16.6454   16.3708  139.4835 C.3       3 GLC5        0.0000 
     60 CA         18.4100   16.9210  138.6820 C.3       6 GLP5        0.0000 
     61 CA         16.4866   14.1867  141.8925 C.3       3 GLC5        0.0000 
     62 CA         18.0700   13.5350  142.4990 C.3       6 GLP5        0.0000 
@<TRIPOS>BOND
@<TRIPOS>SUBSTRUCTURE
     1 ALC1       38 GROUP        1 X    ALC  0     ROOT ALC X 1
     2 SEC2       41 GROUP        1 X    SEC  0     **** SEC X 2
     3 GLC5        1 GROUP        1 X    GLC  0     **** GLC X 6
     4 ALP1       40 GROUP        1 Y    ALP  0     ROOT ALP Y 8
     5 SEP2       43 GROUP        1 Y    SEP  0     **** SEP Y 9
     6 GLP5        3 GROUP        1 Y    GLP  0     **** GLP Y 13
     7 ALL1       39 GROUP        1 Z    ALL  0     ROOT ALL Z 15
     8 SEL2       42 GROUP        1 Z    SEL  0     **** SEL Z 16
     9 GLL5        2 GROUP        1 Z    GLL  0     **** GLL Z 20
@<TRIPOS>SET

