#    Name: 3byz_H11_2_ligand
#    Modification time : Mon Mar 24 20:14:39 2014

@<TRIPOS>MOLECULE
3byz_H11_2_ligand
   46    47     1     0     0
SMALL
NO_CHARGES


@<TRIPOS>ATOM
      1 C4         14.4320   13.5120  144.0190 C.2       1 H11602      0.0000 
      2 C5         11.8890   11.1740  145.2790 C.3       1 H11602      0.0000 
      3 C6         11.6070   13.3250  146.4310 C.3       1 H11602      0.0000 
      4 C7         14.5420   14.4820  141.7990 C.3       1 H11602      0.0000 
      5 C8         14.8850   13.3040  140.8710 C.3       1 H11602      0.0000 
      6 C10        13.7620   12.9700  139.8800 C.3       1 H11602      0.0000 
      7 C13        14.0500   16.0780  138.9460 C.3       1 H11602      0.0000 
      8 C15        11.8380    9.2340  143.7150 C.3       1 H11602      0.0000 
      9 C11        14.0850   13.6080  138.5170 C.3       1 H11602      0.0000 
     10 C12        13.2910   14.8910  138.3610 C.3       1 H11602      0.0000 
     11 C14        15.2870   15.6360  139.7200 C.3       1 H11602      0.0000 
     12 C9         15.0930   15.7840  141.2370 C.3       1 H11602      0.0000 
     13 N17        15.1630   14.0820  143.0600 N.pl3     1 H11602      0.0000 
     14 S          12.7460   13.2890  143.9000 S.3       1 H11602      0.0000 
     15 N          14.9320   13.0900  145.1870 N.am      1 H11602      0.0000 
     16 C2         14.0310   12.5430  146.0250 C.2       1 H11602      0.0000 
     17 O          14.4260   12.1190  147.1070 O.2       1 H11602      0.0000 
     18 C          12.5340   12.5220  145.5200 C.3       1 H11602      0.0000 
     19 C3         12.6840   10.3700  144.2760 C.3       1 H11602      0.0000 
     20 H          10.8738   11.3206  144.9042 H         1 H11602      0.0000 
     21 H          11.8336   10.6258  146.2219 H         1 H11602      0.0000 
     22 H          13.4863   14.5201  141.8930 H         1 H11602      0.0000 
     23 H          15.0959   12.4191  141.4839 H         1 H11602      0.0000 
     24 H          15.7959   13.5474  140.3105 H         1 H11602      0.0000 
     25 H          12.8283   13.3687  140.2473 H         1 H11602      0.0000 
     26 H          13.6919   11.8988  139.7640 H         1 H11602      0.0000 
     27 H          13.3867   16.6337  139.6152 H         1 H11602      0.0000 
     28 H          14.3533   16.7455  138.1342 H         1 H11602      0.0000 
     29 H          13.8181   12.9127  137.7312 H         1 H11602      0.0000 
     30 H          15.1449   13.8239  138.4722 H         1 H11602      0.0000 
     31 H          13.1011   15.0747  137.3026 H         1 H11602      0.0000 
     32 H          12.3336   14.7908  138.8743 H         1 H11602      0.0000 
     33 H          16.1426   16.2409  139.4119 H         1 H11602      0.0000 
     34 H          15.5032   14.5902  139.4912 H         1 H11602      0.0000 
     35 H          16.0470   16.0047  141.6960 H         1 H11602      0.0000 
     36 H          14.3953   16.5880  141.4279 H         1 H11602      0.0000 
     37 H          16.1719   14.2650  143.1535 H         1 H11602      0.0000 
     38 H          15.9101   13.1738  145.4253 H         1 H11602      0.0000 
     39 H          13.5670    9.9531  144.7587 H         1 H11602      0.0000 
     40 H          13.0018   11.0161  143.4586 H         1 H11602      0.0000 
     41 H          11.4627   12.8688  147.3091 H         1 H11602      0.0000 
     42 H          11.9764   14.2328  146.6296 H         1 H11602      0.0000 
     43 H          10.7059   13.4590  146.0187 H         1 H11602      0.0000 
     44 H          12.3457    8.6862  143.0500 H         1 H11602      0.0000 
     45 H          11.5295    8.6108  144.4336 H         1 H11602      0.0000 
     46 H          11.0201    9.5742  143.2510 H         1 H11602      0.0000 
@<TRIPOS>BOND
     1   13    1 2    
     2   14    1 1    
     3   15    1 1    
     4   18    2 1    
     5   19    2 1    
     6   20    2 1    
     7   21    2 1    
     8   18    3 1    
     9   41    3 1    
    10   42    3 1    
    11   43    3 1    
    12    5    4 1    
    13   12    4 1    
    14   13    4 1    
    15   22    4 1    
    16    6    5 1    
    17   23    5 1    
    18   24    5 1    
    19    9    6 1    
    20   25    6 1    
    21   26    6 1    
    22   10    7 1    
    23   11    7 1    
    24   27    7 1    
    25   28    7 1    
    26   19    8 1    
    27   44    8 1    
    28   45    8 1    
    29   46    8 1    
    30   10    9 1    
    31   29    9 1    
    32   30    9 1    
    33   31   10 1    
    34   32   10 1    
    35   12   11 1    
    36   33   11 1    
    37   34   11 1    
    38   35   12 1    
    39   36   12 1    
    40   37   13 1    
    41   18   14 1    
    42   16   15 am   
    43   38   15 1    
    44   17   16 2    
    45   18   16 1    
    46   39   19 1    
    47   40   19 1    
@<TRIPOS>SUBSTRUCTURE
     1 H11602      1 GROUP   
@<TRIPOS>SET

