#    Name: 3AQ0_2_CAVITY_N1_6.mol2
#    Modification time : Tue Mar 11 09:29:46 2014

@<TRIPOS>MOLECULE
3AQ0_2_CAVITY_N1_6.mol2
   66     0     6     0     0
SMALL
NO_CHARGES


@<TRIPOS>ATOM
      1 CA        -76.0725  -42.1208   -0.3026 C.3       5 GLY6        0.0000 
      2 CZ        -75.7644  -41.7533   -1.7238 C.ar      4 PHE5        0.0000 
      3 OD1       -76.7330  -40.7891   -0.1014 O.3       2 ASP3        0.0000 
      4 CZ        -76.4249  -40.4216   -1.5227 C.ar      4 PHE5        0.0000 
      5 CA        -70.4560  -47.9774    0.9837 C.3       5 GLY6        0.0000 
      6 CA        -70.1479  -47.6100   -0.4376 C.3       5 GLY6        0.0000 
      7 CA        -71.1165  -46.6458    1.1849 C.3       5 GLY6        0.0000 
      8 CZ        -70.8084  -46.2783   -0.2364 C.ar      4 PHE5        0.0000 
      9 CA        -72.0851  -45.6816    2.8073 C.3       5 GLY6        0.0000 
     10 CA        -71.7770  -45.3141    1.3860 C.3       5 GLY6        0.0000 
     11 CA        -72.7456  -44.3499    3.0084 C.3       5 GLY6        0.0000 
     12 CA        -72.4375  -43.9825    1.5871 C.3       5 GLY6        0.0000 
     13 CZ        -72.1294  -43.6150    0.1658 C.ar      4 PHE5        0.0000 
     14 CA        -71.7671  -48.5620    0.5484 C.3       5 GLY6        0.0000 
     15 CA        -71.4590  -48.1945   -0.8729 C.3       5 GLY6        0.0000 
     16 CZ        -72.4276  -47.2303    0.7495 C.ar      4 PHE5        0.0000 
     17 CZ        -72.1195  -46.8628   -0.6717 C.ar      4 PHE5        0.0000 
     18 CZ        -74.4090  -43.2353    1.3529 C.ar      4 PHE5        0.0000 
     19 CZ        -74.1010  -42.8679   -0.0684 C.ar      4 PHE5        0.0000 
     20 O         -75.0695  -41.9037    1.5540 O.2       1 ALA2        0.0000 
     21 CZ        -74.7615  -41.5362    0.1328 C.ar      4 PHE5        0.0000 
     22 O         -75.4220  -40.2046    0.3339 O.2       1 ALA2        0.0000 
     23 CZ        -75.1139  -39.8371   -1.0874 C.ar      4 PHE5        0.0000 
     24 NZ        -74.8058  -39.4697   -2.5087 N.2       3 LYS4        0.0000 
     25 O         -76.0824  -38.8729    0.5350 O.2       1 ALA2        0.0000 
     26 DU        -75.7744  -38.5055   -0.8863 H         6 CUB7        0.0000 
     27 CA        -73.4061  -43.0183    3.2095 C.3       5 GLY6        0.0000 
     28 CA        -73.0980  -42.6508    1.7882 C.3       5 GLY6        0.0000 
     29 CZ        -72.7899  -42.2834    0.3669 C.ar      4 PHE5        0.0000 
     30 O         -73.7585  -41.3192    1.9893 O.2       1 ALA2        0.0000 
     31 CZ        -73.4504  -40.9517    0.5681 C.ar      4 PHE5        0.0000 
     32 O         -74.1109  -39.6201    0.7692 O.2       1 ALA2        0.0000 
     33 CZ        -73.8028  -39.2526   -0.6521 C.ar      4 PHE5        0.0000 
     34 N         -73.4948  -38.8851   -2.0734 N.2       1 ALA2        0.0000 
     35 O         -74.7714  -38.2884    0.9703 O.2       1 ALA2        0.0000 
     36 N         -74.4633  -37.9209   -0.4510 N.2       1 ALA2        0.0000 
     37 N         -74.1553  -37.5535   -1.8723 N.2       1 ALA2        0.0000 
     38 OD1       -77.7360  -41.0062   -1.9580 O.3       2 ASP3        0.0000 
     39 CA        -69.4630  -44.5125    3.6779 C.3       5 GLY6        0.0000 
     40 CA        -69.1549  -44.1451    2.2566 C.3       5 GLY6        0.0000 
     41 N         -68.8468  -43.7776    0.8353 N.2       1 ALA2        0.0000 
     42 CA        -70.1235  -43.1809    3.8790 C.3       5 GLY6        0.0000 
     43 CA        -69.8154  -42.8134    2.4577 C.3       5 GLY6        0.0000 
     44 CA        -69.5073  -42.4460    1.0364 C.3       5 GLY6        0.0000 
     45 CA        -70.4759  -41.4818    2.6588 C.3       5 GLY6        0.0000 
     46 CA        -70.1678  -41.1143    1.2375 C.3       5 GLY6        0.0000 
     47 CA        -69.8055  -46.0613    1.6202 C.3       5 GLY6        0.0000 
     48 CZ        -69.4974  -45.6938    0.1989 C.ar      4 PHE5        0.0000 
     49 CA        -70.4660  -44.7296    1.8213 C.3       5 GLY6        0.0000 
     50 CA        -70.1579  -44.3621    0.4000 C.3       5 GLY6        0.0000 
     51 CA        -71.7426  -44.1329    4.8650 C.3       5 GLY6        0.0000 
     52 CA        -71.4345  -43.7654    3.4437 C.3       5 GLY6        0.0000 
     53 CZ        -71.1265  -43.3979    2.0224 C.ar      4 PHE5        0.0000 
     54 CZ        -70.8184  -43.0305    0.6011 C.ar      4 PHE5        0.0000 
     55 CA        -72.0950  -42.4338    3.6448 C.3       5 GLY6        0.0000 
     56 CA        -71.7870  -42.0663    2.2235 C.3       5 GLY6        0.0000 
     57 CZ        -71.4789  -41.6988    0.8022 C.ar      4 PHE5        0.0000 
     58 O         -72.4474  -40.7346    2.4246 O.2       1 ALA2        0.0000 
     59 CA        -72.1394  -40.3672    1.0034 C.3       5 GLY6        0.0000 
     60 CZ        -71.8313  -39.9997   -0.4179 C.ar      4 PHE5        0.0000 
     61 CA        -72.7999  -39.0355    1.2045 C.3       5 GLY6        0.0000 
     62 N         -72.4918  -38.6681   -0.2168 N.2       1 ALA2        0.0000 
     63 CA        -73.4604  -37.7039    1.4056 C.3       5 GLY6        0.0000 
     64 N         -73.1523  -37.3364   -0.0157 N.2       1 ALA2        0.0000 
     65 CZ        -73.4305  -47.4474   -1.1070 C.ar      4 PHE5        0.0000 
     66 CZ        -73.1225  -47.0799   -2.5283 C.ar      4 PHE5        0.0000 
@<TRIPOS>BOND
@<TRIPOS>SUBSTRUCTURE
     1 ALA2       20 GROUP   
     2 ASP3        3 GROUP   
     3 LYS4       24 GROUP   
     4 PHE5        2 GROUP   
     5 GLY6        1 GROUP   
     6 CUB7       26 GROUP   
@<TRIPOS>SET

