#    Name: 3aq0_ISY_2_INTS_M
#    Modification time : Mon Mar 24 18:02:56 2014

@<TRIPOS>MOLECULE
3aq0_ISY_2_INTS_M
   36     0     9     0     0
SMALL
NO_CHARGES


@<TRIPOS>ATOM
      1 N         -79.4095  -42.1340   -0.3675 N.am      1 SEC2        0.0000 
      2 N         -79.0930  -41.4400    0.8020 N.am      7 SEL2        0.0000 
      3 N         -79.7260  -42.8280   -1.5370 N.am      4 SEP2        0.0000 
      4 NZ        -80.5490  -42.5540   -0.1055 N.4       2 LYC4        0.0000 
      5 NZ        -81.3720  -42.2800    1.3260 N.4       8 LYL4        0.0000 
      6 NZ        -79.7260  -42.8280   -1.5370 N.4       5 LYP4        0.0000 
      7 N         -81.5300  -43.8525    1.4405 N.am      1 SEC2        0.0000 
      8 N         -81.3720  -42.2800    1.3260 N.am      7 SEL2        0.0000 
      9 N         -81.6880  -45.4250    1.5550 N.am      4 SEP2        0.0000 
     10 N         -80.5490  -42.5540   -0.1055 N.am      1 SEC2        0.0000 
     11 N         -79.4125  -40.2470    4.0190 N.am      1 SEC2        0.0000 
     12 N         -79.9950  -41.2800    3.2420 N.am      7 SEL2        0.0000 
     13 N         -78.8300  -39.2140    4.7960 N.am      4 SEP2        0.0000 
     14 N         -81.2835  -41.0890    3.9160 N.am      1 SEC2        0.0000 
     15 N         -82.5720  -40.8980    4.5900 N.am      4 SEP2        0.0000 
     16 NZ        -78.4710  -41.8865   -1.1375 N.4       2 LYC4        0.0000 
     17 NZ        -77.2160  -40.9450   -0.7380 N.4       8 LYL4        0.0000 
     18 CA        -75.4140  -43.8355    0.6840 C.3       3 GLC5        0.0000 
     19 CA        -75.3870  -41.9160    1.0880 C.3       9 GLL5        0.0000 
     20 CA        -75.4410  -45.7550    0.2800 C.3       6 GLP5        0.0000 
     21 CA        -73.7110  -44.5845    2.3110 C.3       3 GLC5        0.0000 
     22 CA        -72.5780  -43.1950    1.8990 C.3       9 GLL5        0.0000 
     23 CA        -74.8440  -45.9740    2.7230 C.3       6 GLP5        0.0000 
     24 CA        -71.7130  -43.0895   -0.0200 C.3       3 GLC5        0.0000 
     25 CA        -70.8480  -42.9840   -1.9390 C.3       6 GLP5        0.0000 
     26 CA        -71.1515  -39.0675    1.6455 C.3       3 GLC5        0.0000 
     27 CA        -71.7740  -40.7090    1.7250 C.3       9 GLL5        0.0000 
     28 CA        -70.5290  -37.4260    1.5660 C.3       6 GLP5        0.0000 
     29 CA        -73.9237  -41.8607   -0.6210 C.3       3 GLC5        0.0000 
     30 CA        -74.1660  -41.2410    1.2640 C.3       9 GLL5        0.0000 
     31 CA        -73.0710  -42.1430   -2.4180 C.3       6 GLP5        0.0000 
     32 CA        -71.2182  -40.8135    3.2870 C.3       3 GLC5        0.0000 
     33 CA        -72.9010  -41.7150    1.6270 C.3       9 GLL5        0.0000 
     34 CA        -70.0990  -40.4150    4.8980 C.3       6 GLP5        0.0000 
     35 CA        -72.0403  -41.5670   -0.1925 C.3       3 GLC5        0.0000 
     36 CA        -71.7430  -41.9220   -2.0610 C.3       6 GLP5        0.0000 
@<TRIPOS>BOND
@<TRIPOS>SUBSTRUCTURE
     1 SEC2        1 GROUP        1 X    SEC  0     ROOT SEC X 2
     2 LYC4        4 GROUP        1 X    LYC  0     **** LYC X 4
     3 GLC5       18 GROUP        1 X    GLC  0     **** GLC X 6
     4 SEP2        3 GROUP        1 Y    SEP  0     ROOT SEP Y 9
     5 LYP4        6 GROUP        1 Y    LYP  0     **** LYP Y 11
     6 GLP5       20 GROUP        1 Y    GLP  0     **** GLP Y 13
     7 SEL2        2 GROUP        1 Z    SEL  0     ROOT SEL Z 16
     8 LYL4        5 GROUP        1 Z    LYL  0     **** LYL Z 18
     9 GLL5       19 GROUP        1 Z    GLL  0     **** GLL Z 20
@<TRIPOS>SET

