#    Name: 3aq0_ISY_2_ligand
#    Modification time : Mon Mar 24 18:02:56 2014

@<TRIPOS>MOLECULE
3aq0_ISY_2_ligand
   21    20     1     0     0
SMALL
NO_CHARGES


@<TRIPOS>ATOM
      1 P1        -80.3160  -41.1620    1.8010 P.3       1 ISY1003     0.0000 
      2 O2        -79.0930  -41.4400    0.8020 O.3       1 ISY1003     0.0000 
      3 P3        -77.8340  -40.4840    0.5330 P.3       1 ISY1003     0.0000 
      4 O4        -81.3720  -42.2800    1.3260 O.co2     1 ISY1003     0.0000 
      5 O5        -79.9950  -41.2800    3.2420 O.co2     1 ISY1003     0.0000 
      6 O6        -81.0170  -39.7980    1.3140 O.co2     1 ISY1003     0.0000 
      7 O7        -78.1640  -39.0550    0.7130 O.co2     1 ISY1003     0.0000 
      8 O8        -77.2160  -40.9450   -0.7380 O.co2     1 ISY1003     0.0000 
      9 S9        -76.7620  -40.9720    1.8820 S.3       1 ISY1003     0.0000 
     10 C10       -75.3870  -41.9160    1.0880 C.3       1 ISY1003     0.0000 
     11 C11       -74.1660  -41.2410    1.2640 C.3       1 ISY1003     0.0000 
     12 C12       -72.9010  -41.7150    1.6270 C.2       1 ISY1003     0.0000 
     13 C13       -72.5780  -43.1950    1.8990 C.3       1 ISY1003     0.0000 
     14 C14       -71.7740  -40.7090    1.7250 C.2       1 ISY1003     0.0000 
     15 H         -75.7702  -41.9831    0.0798 H         1 ISY1003     0.0000 
     16 H         -75.5012  -42.8644    1.5934 H         1 ISY1003     0.0000 
     17 H         -74.4003  -40.2987    1.9844 H         1 ISY1003     0.0000 
     18 H         -74.0087  -40.5617    0.2763 H         1 ISY1003     0.0000 
     19 H         -71.6181  -43.3262    2.1468 H         1 ISY1003     0.0000 
     20 H         -73.1273  -43.5632    2.6491 H         1 ISY1003     0.0000 
     21 H         -72.7548  -43.7670    1.0980 H         1 ISY1003     0.0000 
@<TRIPOS>BOND
     1    2    1 1    
     2    4    1 ar   
     3    5    1 ar   
     4    6    1 ar   
     5    3    2 1    
     6    7    3 ar   
     7    8    3 ar   
     8    9    3 1    
     9   10    9 1    
    10   11   10 1    
    11   15   10 1    
    12   16   10 1    
    13   12   11 1    
    14   17   11 1    
    15   18   11 1    
    16   13   12 1    
    17   14   12 2    
    18   19   13 1    
    19   20   13 1    
    20   21   13 1    
@<TRIPOS>SUBSTRUCTURE
     1 ISY1003     1 GROUP   
@<TRIPOS>SET

