#    Name: 3afn_NAP_6_INTS_M
#    Modification time : Tue Mar 25 11:51:01 2014

@<TRIPOS>MOLECULE
3afn_NAP_6_INTS_M
   99     0    12     0     0
SMALL
NO_CHARGES


@<TRIPOS>ATOM
      1 N          69.9790   31.6105   68.5385 N.am      2 SEC2        0.0000 
      2 N          70.7020   30.4790   68.1340 N.am     10 SEL2        0.0000 
      3 N          69.2560   32.7420   68.9430 N.am      6 SEP2        0.0000 
      4 CA         72.3275   33.3920   69.4720 C.3       4 GLC5        0.0000 
      5 CA         73.7390   34.1170   68.2400 C.3      12 GLL5        0.0000 
      6 CA         70.9160   32.6670   70.7040 C.3       8 GLP5        0.0000 
      7 O          73.7900   34.9695   70.6295 O.2       1 ALC1        0.0000 
      8 O          74.3780   34.3370   69.4980 O.2       9 ALL1        0.0000 
      9 O          73.2020   35.6020   71.7610 O.2       5 ALP1        0.0000 
     10 CA         76.3685   34.6920   68.0805 C.3       4 GLC5        0.0000 
     11 CA         75.1530   35.3730   66.8350 C.3      12 GLL5        0.0000 
     12 CA         77.5840   34.0110   69.3260 C.3       8 GLP5        0.0000 
     13 CA         76.9780   34.5760   66.2040 C.3       4 GLC5        0.0000 
     14 CA         78.8030   33.7790   65.5730 C.3       8 GLP5        0.0000 
     15 O          76.7045   40.9755   62.7480 O.2       1 ALC1        0.0000 
     16 O          76.3570   39.5280   62.6740 O.2       9 ALL1        0.0000 
     17 O          77.0520   42.4230   62.8220 O.2       5 ALP1        0.0000 
     18 N          78.4675   40.5450   64.6320 N.am      2 SEC2        0.0000 
     19 N          77.4050   39.5160   64.7550 N.am     10 SEL2        0.0000 
     20 N          79.5300   41.5740   64.5090 N.am      6 SEP2        0.0000 
     21 CA         76.0165   39.9070   66.1320 C.3       4 GLC5        0.0000 
     22 CA         77.5890   38.9760   65.9570 C.3      12 GLL5        0.0000 
     23 CA         74.4440   40.8380   66.3070 C.3       8 GLP5        0.0000 
     24 CA         77.6995   40.9905   65.6975 C.3       4 GLC5        0.0000 
     25 CA         77.8100   43.0050   65.4380 C.3       8 GLP5        0.0000 
     26 CA         79.5155   39.3565   66.0000 C.3       4 GLC5        0.0000 
     27 CA         81.4420   39.7370   66.0430 C.3       8 GLP5        0.0000 
     28 CA         78.4205   37.0950   65.8960 C.3       4 GLC5        0.0000 
     29 CA         79.2520   35.2140   65.8350 C.3       8 GLP5        0.0000 
     30 CA         75.2390   39.0715   65.9100 C.3       4 GLC5        0.0000 
     31 CA         76.0340   37.3050   65.5130 C.3      12 GLL5        0.0000 
     32 CA         77.6430   36.2595   65.6740 C.3       4 GLC5        0.0000 
     33 N          71.3080   26.8080   66.0085 N.am      2 SEC2        0.0000 
     34 N          72.5490   27.1570   65.6380 N.am     10 SEL2        0.0000 
     35 N          70.0670   26.4590   66.3790 N.am      6 SEP2        0.0000 
     36 N          73.6185   27.5570   69.0730 N.am      2 SEC2        0.0000 
     37 N          73.2930   28.2300   67.8230 N.am     10 SEL2        0.0000 
     38 N          73.9440   26.8840   70.3230 N.am      6 SEP2        0.0000 
     39 N          74.2290   29.0010   68.4715 N.am      2 SEC2        0.0000 
     40 N          75.1650   29.7720   69.1200 N.am      6 SEP2        0.0000 
     41 CA         75.6420   27.2595   67.5880 C.3       4 GLC5        0.0000 
     42 CA         75.5580   28.8620   66.0850 C.3      12 GLL5        0.0000 
     43 CA         75.7260   25.6570   69.0910 C.3       8 GLP5        0.0000 
     44 CA         77.9940   27.3485   64.7000 C.3       4 GLC5        0.0000 
     45 CA         76.5320   28.5850   64.9220 C.3      12 GLL5        0.0000 
     46 CA         79.4560   26.1120   64.4780 C.3       8 GLP5        0.0000 
     47 CA         76.7180   31.4305   62.9555 C.3       4 GLC5        0.0000 
     48 CA         76.3340   29.5110   63.7100 C.3      12 GLL5        0.0000 
     49 CA         77.1020   33.3500   62.2010 C.3       8 GLP5        0.0000 
     50 N          78.5120   29.5730   62.0280 N.am      2 SEC2        0.0000 
     51 N          77.6300   29.8860   63.2010 N.am     10 SEL2        0.0000 
     52 N          79.3940   29.2600   60.8550 N.am      6 SEP2        0.0000 
     53 CA         73.9665   28.5410   61.5825 C.3       4 GLC5        0.0000 
     54 CA         75.6250   28.6240   62.7030 C.3      12 GLL5        0.0000 
     55 CA         72.3080   28.4580   60.4620 C.3       8 GLP5        0.0000 
     56 N          75.6965   28.1830   60.3595 N.am      2 SEC2        0.0000 
     57 N          75.9850   29.0280   61.3810 N.am     10 SEL2        0.0000 
     58 N          75.4080   27.3380   59.3380 N.am      6 SEP2        0.0000 
     59 CA         77.8525   26.6920   63.7555 C.3       4 GLC5        0.0000 
     60 CA         76.2490   27.2720   63.0330 C.3      12 GLL5        0.0000 
     61 N          71.2160   22.0235   63.4300 N.am      2 SEC2        0.0000 
     62 N          71.6910   23.1490   62.8300 N.am     10 SEL2        0.0000 
     63 N          70.7410   20.8980   64.0300 N.am      6 SEP2        0.0000 
     64 O          70.4915   23.9030   64.7925 O.2       1 ALC1        0.0000 
     65 O          71.7550   24.8600   64.3070 O.2       9 ALL1        0.0000 
     66 O          69.2280   22.9460   65.2780 O.2       5 ALP1        0.0000 
     67 CA         77.7790   25.6650   63.0710 C.3       4 GLC5        0.0000 
     68 CA         76.1020   25.2180   61.6640 C.3      12 GLL5        0.0000 
     69 CA         77.3525   23.9610   62.5610 C.3       4 GLC5        0.0000 
     70 CA         78.6030   22.7040   63.4580 C.3       8 GLP5        0.0000 
     71 N          73.4775   39.2280   69.2460 N.am      2 SEC2        0.0000 
     72 N          72.2720   38.5250   69.1630 N.am     10 SEL2        0.0000 
     73 N          74.6830   39.9310   69.3290 N.am      6 SEP2        0.0000 
     74 N          72.5125   39.9340   69.9060 N.am      2 SEC2        0.0000 
     75 N          72.7530   41.3430   70.6490 N.am      6 SEP2        0.0000 
     76 NZ         71.5075   37.9765   65.4065 N.4       3 LYC4        0.0000 
     77 NZ         71.7710   37.7850   66.7470 N.4      11 LYL4        0.0000 
     78 NZ         72.0040   39.2500   63.9790 N.4       7 LYP4        0.0000 
     79 N          72.2490   38.7100   65.8870 N.am      2 SEC2        0.0000 
     80 N          71.7710   37.7850   66.7470 N.am     10 SEL2        0.0000 
     81 N          72.7270   39.6350   65.0270 N.am      6 SEP2        0.0000 
     82 N          71.5075   37.9765   65.4065 N.am      2 SEC2        0.0000 
     83 N          71.2440   38.1680   64.0660 N.am      6 SEP2        0.0000 
     84 CA         75.8800   33.8265   68.5740 C.3       4 GLC5        0.0000 
     85 CA         74.8897   39.6058   64.5565 C.3       4 GLC5        0.0000 
     86 CA         75.8190   37.8390   64.2470 C.3      12 GLL5        0.0000 
     87 CA         73.6050   40.8020   65.0500 C.3       8 GLP5        0.0000 
     88 CA         77.3410   28.2230   61.3055 C.3       4 GLC5        0.0000 
     89 CA         78.7450   28.4980   59.7430 C.3       8 GLP5        0.0000 
     90 CA         74.4843   24.8310   64.9317 C.3       4 GLC5        0.0000 
     91 CA         74.2540   25.7280   63.1820 C.3      12 GLL5        0.0000 
     92 CA         75.0340   24.5170   66.8920 C.3       8 GLP5        0.0000 
     93 CA         75.2022   23.5370   63.5318 C.3       4 GLC5        0.0000 
     94 CA         76.4700   21.9290   64.0920 C.3       8 GLP5        0.0000 
     95 CA         75.6507   22.9160   62.8097 C.3       4 GLC5        0.0000 
     96 CA         74.2140   23.7430   61.8040 C.3      12 GLL5        0.0000 
     97 CA         76.6858   24.4142   59.9313 C.3       4 GLC5        0.0000 
     98 CA         75.4490   24.0630   61.2510 C.3      12 GLL5        0.0000 
     99 CA         77.5960   24.1880   58.4050 C.3       8 GLP5        0.0000 
@<TRIPOS>BOND
@<TRIPOS>SUBSTRUCTURE
     1 ALC1        7 GROUP        1 X    ALC  0     ROOT ALC X 1
     2 SEC2        1 GROUP        1 X    SEC  0     **** SEC X 2
     3 LYC4       76 GROUP        1 X    LYC  0     **** LYC X 4
     4 GLC5        4 GROUP        1 X    GLC  0     **** GLC X 6
     5 ALP1        9 GROUP        1 Y    ALP  0     ROOT ALP Y 8
     6 SEP2        3 GROUP        1 Y    SEP  0     **** SEP Y 9
     7 LYP4       78 GROUP        1 Y    LYP  0     **** LYP Y 11
     8 GLP5        6 GROUP        1 Y    GLP  0     **** GLP Y 13
     9 ALL1        8 GROUP        1 Z    ALL  0     ROOT ALL Z 15
    10 SEL2        2 GROUP        1 Z    SEL  0     **** SEL Z 16
    11 LYL4       77 GROUP        1 Z    LYL  0     **** LYL Z 18
    12 GLL5        5 GROUP        1 Z    GLL  0     **** GLL Z 20
@<TRIPOS>SET

