#    Name: 3afn_NAP_6_ligand
#    Modification time : Tue Mar 25 11:51:02 2014

@<TRIPOS>MOLECULE
3afn_NAP_6_ligand
   73    77     1     0     0
SMALL
NO_CHARGES


@<TRIPOS>ATOM
      1 PA         71.5780   30.7920   66.9730 P.3       1 NAP3001     0.0000 
      2 O1A        70.7020   30.4790   68.1340 O.co2     1 NAP3001     0.0000 
      3 O2A        70.8930   31.7790   65.9070 O.co2     1 NAP3001     0.0000 
      4 O5B        72.9970   31.3810   67.4300 O.3       1 NAP3001     0.0000 
      5 C5B        73.7720   32.1980   66.5670 C.3       1 NAP3001     0.0000 
      6 C4B        74.6130   33.1670   67.4040 C.3       1 NAP3001     0.0000 
      7 O4B        75.3760   33.9930   66.4840 O.3       1 NAP3001     0.0000 
      8 C3B        73.7390   34.1170   68.2400 C.3       1 NAP3001     0.0000 
      9 O3B        74.3780   34.3370   69.4980 O.3       1 NAP3001     0.0000 
     10 C2B        73.7340   35.3880   67.3960 C.3       1 NAP3001     0.0000 
     11 O2B        73.5430   36.5590   68.1960 O.3       1 NAP3001     0.0000 
     12 C1B        75.1530   35.3730   66.8350 C.3       1 NAP3001     0.0000 
     13 N9A        75.2410   36.2410   65.6300 N.pl3     1 NAP3001     0.0000 
     14 C8A        74.5620   36.1040   64.4880 C.2       1 NAP3001     0.0000 
     15 N7A        74.9050   37.0810   63.6430 N.2       1 NAP3001     0.0000 
     16 C5A        75.8190   37.8390   64.2470 C.ar      1 NAP3001     0.0000 
     17 C6A        76.5300   38.9800   63.8790 C.ar      1 NAP3001     0.0000 
     18 N6A        76.3570   39.5280   62.6740 N.pl3     1 NAP3001     0.0000 
     19 N1A        77.4050   39.5160   64.7550 N.ar      1 NAP3001     0.0000 
     20 C2A        77.5890   38.9760   65.9570 C.ar      1 NAP3001     0.0000 
     21 N3A        76.9180   37.8930   66.3450 N.ar      1 NAP3001     0.0000 
     22 C4A        76.0340   37.3050   65.5130 C.ar      1 NAP3001     0.0000 
     23 O3         71.8560   29.4760   66.0810 O.3       1 NAP3001     0.0000 
     24 PN         72.9870   28.3560   66.3800 P.3       1 NAP3001     0.0000 
     25 O1N        72.5490   27.1570   65.6380 O.co2     1 NAP3001     0.0000 
     26 O2N        73.2930   28.2300   67.8230 O.co2     1 NAP3001     0.0000 
     27 O5D        74.2370   29.0050   65.5950 O.3       1 NAP3001     0.0000 
     28 C5D        75.5580   28.8620   66.0850 C.3       1 NAP3001     0.0000 
     29 C4D        76.5320   28.5850   64.9220 C.3       1 NAP3001     0.0000 
     30 O4D        76.2540   27.2400   64.4740 O.3       1 NAP3001     0.0000 
     31 C3D        76.3340   29.5110   63.7100 C.3       1 NAP3001     0.0000 
     32 O3D        77.6300   29.8860   63.2010 O.3       1 NAP3001     0.0000 
     33 C2D        75.6250   28.6240   62.7030 C.3       1 NAP3001     0.0000 
     34 O2D        75.9850   29.0280   61.3810 O.3       1 NAP3001     0.0000 
     35 C1D        76.2490   27.2720   63.0330 C.3       1 NAP3001     0.0000 
     36 N1N        75.5080   26.0600   62.6160 N.pl3     1 NAP3001     0.0000 
     37 C2N        74.2540   25.7280   63.1820 C.ar      1 NAP3001     0.0000 
     38 C3N        73.6150   24.5620   62.7610 C.ar      1 NAP3001     0.0000 
     39 C7N        72.2520   24.1290   63.3120 C.2       1 NAP3001     0.0000 
     40 O7N        71.6910   23.1490   62.8300 O.2       1 NAP3001     0.0000 
     41 N7N        71.7550   24.8600   64.3070 N.am      1 NAP3001     0.0000 
     42 C4N        74.2140   23.7430   61.8040 C.ar      1 NAP3001     0.0000 
     43 C5N        75.4490   24.0630   61.2510 C.ar      1 NAP3001     0.0000 
     44 C6N        76.1020   25.2180   61.6640 C.ar      1 NAP3001     0.0000 
     45 P2B        72.0740   37.2450   68.2250 P.3       1 NAP3001     0.0000 
     46 O1X        71.0420   36.2920   68.7140 O.co2     1 NAP3001     0.0000 
     47 O2X        72.2720   38.5250   69.1630 O.co2     1 NAP3001     0.0000 
     48 O3X        71.7710   37.7850   66.7470 O.co2     1 NAP3001     0.0000 
     49 H          73.1474   32.7977   65.8960 H         1 NAP3001     0.0000 
     50 H          74.4611   31.6099   65.9512 H         1 NAP3001     0.0000 
     51 H          75.2552   32.6226   68.0458 H         1 NAP3001     0.0000 
     52 H          72.7780   33.7262   68.2931 H         1 NAP3001     0.0000 
     53 H          73.0621   35.2732   66.6066 H         1 NAP3001     0.0000 
     54 H          75.8167   35.6900   67.5925 H         1 NAP3001     0.0000 
     55 H          73.9130   35.3970   64.2986 H         1 NAP3001     0.0000 
     56 H          76.1001   38.9012   61.9383 H         1 NAP3001     0.0000 
     57 H          76.4999   40.5160   62.6153 H         1 NAP3001     0.0000 
     58 H          78.2853   39.4173   66.6212 H         1 NAP3001     0.0000 
     59 H          75.6509   28.0262   66.7917 H         1 NAP3001     0.0000 
     60 H          75.9121   29.7678   66.5957 H         1 NAP3001     0.0000 
     61 H          77.5310   28.6627   65.2728 H         1 NAP3001     0.0000 
     62 H          75.7285   30.3046   63.9798 H         1 NAP3001     0.0000 
     63 H          74.6162   28.6012   62.9098 H         1 NAP3001     0.0000 
     64 H          77.2568   27.2518   62.6836 H         1 NAP3001     0.0000 
     65 H          73.8354   26.3334   63.8807 H         1 NAP3001     0.0000 
     66 H          70.8752   24.5606   64.6761 H         1 NAP3001     0.0000 
     67 H          72.3062   25.6428   64.5958 H         1 NAP3001     0.0000 
     68 H          73.7276   22.8795   61.5004 H         1 NAP3001     0.0000 
     69 H          75.8730   23.4531   60.5461 H         1 NAP3001     0.0000 
     70 H          77.0212   25.4608   61.2752 H         1 NAP3001     0.0000 
     71 H          73.7023   34.8264   70.0493 H         1 NAP3001     0.0000 
     72 H          77.6793   30.8772   63.3240 H         1 NAP3001     0.0000 
     73 H          76.7718   29.6334   61.5008 H         1 NAP3001     0.0000 
@<TRIPOS>BOND
     1    2    1 ar   
     2    3    1 ar   
     3    4    1 1    
     4   23    1 1    
     5    5    4 1    
     6    6    5 1    
     7   49    5 1    
     8   50    5 1    
     9    7    6 1    
    10    8    6 1    
    11   51    6 1    
    12   12    7 1    
    13    9    8 1    
    14   10    8 1    
    15   52    8 1    
    16   71    9 1    
    17   11   10 1    
    18   12   10 1    
    19   53   10 1    
    20   45   11 1    
    21   13   12 1    
    22   54   12 1    
    23   14   13 1    
    24   22   13 1    
    25   15   14 2    
    26   55   14 1    
    27   16   15 1    
    28   17   16 ar   
    29   22   16 ar   
    30   18   17 1    
    31   19   17 ar   
    32   56   18 1    
    33   57   18 1    
    34   20   19 ar   
    35   21   20 ar   
    36   58   20 1    
    37   22   21 ar   
    38   24   23 1    
    39   25   24 ar   
    40   26   24 ar   
    41   27   24 1    
    42   28   27 1    
    43   29   28 1    
    44   59   28 1    
    45   60   28 1    
    46   30   29 1    
    47   31   29 1    
    48   61   29 1    
    49   35   30 1    
    50   32   31 1    
    51   33   31 1    
    52   62   31 1    
    53   72   32 1    
    54   34   33 1    
    55   35   33 1    
    56   63   33 1    
    57   73   34 1    
    58   36   35 1    
    59   64   35 1    
    60   37   36 ar   
    61   44   36 ar   
    62   38   37 ar   
    63   65   37 1    
    64   39   38 1    
    65   42   38 ar   
    66   40   39 2    
    67   41   39 am   
    68   66   41 1    
    69   67   41 1    
    70   43   42 ar   
    71   68   42 1    
    72   44   43 ar   
    73   69   43 1    
    74   70   44 1    
    75   46   45 ar   
    76   47   45 ar   
    77   48   45 ar   
@<TRIPOS>SUBSTRUCTURE
     1 NAP3001     1 GROUP   
@<TRIPOS>SET

