#    Name: 2pmd_GNP_2_INTS_M
#    Modification time : Mon Mar 24 19:14:13 2014

@<TRIPOS>MOLECULE
2pmd_GNP_2_INTS_M
   38     0    12     0     0
SMALL
NO_CHARGES


@<TRIPOS>ATOM
      1 NZ         29.2760   -0.6765   -4.3850 N.4       3 LYC4        0.0000 
      2 NZ         29.0170   -1.2010   -2.6930 N.4      11 LYL4        0.0000 
      3 NZ         29.5350   -0.1520   -6.0770 N.4       7 LYP4        0.0000 
      4 NZ         28.5520    0.2670   -5.1250 N.4       3 LYC4        0.0000 
      5 NZ         27.5690    0.6860   -4.1730 N.4      11 LYL4        0.0000 
      6 N          28.5520    0.2670   -5.1250 N.am      2 SEC2        0.0000 
      7 N          27.5690    0.6860   -4.1730 N.am     10 SEL2        0.0000 
      8 N          29.5350   -0.1520   -6.0770 N.am      6 SEP2        0.0000 
      9 CA         22.1155    2.0220   -5.3675 C.3       4 GLC5        0.0000 
     10 CA         23.0480    3.9570   -5.4770 C.3      12 GLL5        0.0000 
     11 CA         21.1830    0.0870   -5.2580 C.3       8 GLP5        0.0000 
     12 CA         22.3745    6.6405   -7.5830 C.3       4 GLC5        0.0000 
     13 CA         21.5160    5.9720   -5.7440 C.3      12 GLL5        0.0000 
     14 CA         23.2330    7.3090   -9.4220 C.3       8 GLP5        0.0000 
     15 CA         19.5145    5.5805   -6.3745 C.3       4 GLC5        0.0000 
     16 CA         17.5130    5.1890   -7.0050 C.3       8 GLP5        0.0000 
     17 N          20.5425    8.9465   -5.6545 N.am      2 SEC2        0.0000 
     18 N          20.3510    7.9870   -4.7390 N.am     10 SEL2        0.0000 
     19 N          20.7340    9.9060   -6.5700 N.am      6 SEP2        0.0000 
     20 O          23.3830   12.3700   -0.2510 O.2       1 ALC1        0.0000 
     21 O          23.3140   11.5710   -1.1740 O.2       9 ALL1        0.0000 
     22 O          23.4520   13.1690    0.6720 O.2       5 ALP1        0.0000 
     23 O          20.9540   12.3195    0.8055 O.2       1 ALC1        0.0000 
     24 O          21.0340   11.3730   -0.5540 O.2       9 ALL1        0.0000 
     25 O          20.8740   13.2660    2.1650 O.2       5 ALP1        0.0000 
     26 O          22.2430   12.2710    0.0590 O.2       1 ALC1        0.0000 
     27 O          19.8745   11.0855   -0.1735 O.2       1 ALC1        0.0000 
     28 O          18.7150   10.7980    0.2070 O.2       5 ALP1        0.0000 
     29 N          21.8975   10.4565   -3.4255 N.am      2 SEC2        0.0000 
     30 N          22.0250    9.7230   -1.8900 N.am     10 SEL2        0.0000 
     31 N          21.7700   11.1900   -4.9610 N.am      6 SEP2        0.0000 
     32 CA         20.9560    8.8190   -2.1010 C.3       4 GLC5        0.0000 
     33 CA         23.0950    9.1990   -2.5600 C.3      12 GLL5        0.0000 
     34 CA         18.8170    8.4390   -1.6420 C.3       8 GLP5        0.0000 
     35 CA         20.3940    7.8013   -2.9862 C.3       4 GLC5        0.0000 
     36 CA         22.3410    7.0010   -3.6670 C.3      12 GLL5        0.0000 
     37 CA         22.9217   10.9942   -3.4307 C.3       4 GLC5        0.0000 
     38 CA         22.1250   12.4480   -4.3090 C.3       8 GLP5        0.0000 
@<TRIPOS>BOND
@<TRIPOS>SUBSTRUCTURE
     1 ALC1       20 GROUP        1 X    ALC  0     ROOT ALC X 1
     2 SEC2        6 GROUP        1 X    SEC  0     **** SEC X 2
     3 LYC4        1 GROUP        1 X    LYC  0     **** LYC X 4
     4 GLC5        9 GROUP        1 X    GLC  0     **** GLC X 6
     5 ALP1       22 GROUP        1 Y    ALP  0     ROOT ALP Y 8
     6 SEP2        8 GROUP        1 Y    SEP  0     **** SEP Y 9
     7 LYP4        3 GROUP        1 Y    LYP  0     **** LYP Y 11
     8 GLP5       11 GROUP        1 Y    GLP  0     **** GLP Y 13
     9 ALL1       21 GROUP        1 Z    ALL  0     ROOT ALL Z 15
    10 SEL2        7 GROUP        1 Z    SEL  0     **** SEL Z 16
    11 LYL4        2 GROUP        1 Z    LYL  0     **** LYL Z 18
    12 GLL5       10 GROUP        1 Z    GLL  0     **** GLL Z 20
@<TRIPOS>SET

