#    Name: 2pmd_GNP_2_ligand
#    Modification time : Mon Mar 24 19:14:13 2014

@<TRIPOS>MOLECULE
2pmd_GNP_2_ligand
   44    46     1     0     0
SMALL
NO_CHARGES


@<TRIPOS>ATOM
      1 PG         27.6810   -1.8610   -2.1630 P.3       1 GNP417      0.0000 
      2 O1G        29.0170   -1.2010   -2.6930 O.co2     1 GNP417      0.0000 
      3 O2G        27.9660   -2.5370   -0.6120 O.co2     1 GNP417      0.0000 
      4 O3G        27.1630   -3.0790   -3.2510 O.co2     1 GNP417      0.0000 
      5 N3B        26.4730   -0.6190   -2.0310 N.4       1 GNP417      0.0000 
      6 PB         26.2000    0.0570   -3.6020 P.3       1 GNP417      0.0000 
      7 O1B        27.5690    0.6860   -4.1730 O.co2     1 GNP417      0.0000 
      8 O2B        25.6350   -1.1840   -4.6330 O.co2     1 GNP417      0.0000 
      9 O3A        25.0240    1.2990   -3.4780 O.3       1 GNP417      0.0000 
     10 PA         24.6000    2.0580   -4.8820 P.3       1 GNP417      0.0000 
     11 O1A        25.7710    2.7140   -5.5240 O.co2     1 GNP417      0.0000 
     12 O2A        23.9450    1.0220   -5.9350 O.co2     1 GNP417      0.0000 
     13 O5'        23.5500    3.1750   -4.4060 O.3       1 GNP417      0.0000 
     14 C5'        23.0480    3.9570   -5.4770 C.3       1 GNP417      0.0000 
     15 C4'        22.1860    4.9980   -4.7710 C.3       1 GNP417      0.0000 
     16 O4'        23.0170    5.7450   -3.8690 O.3       1 GNP417      0.0000 
     17 C3'        21.5160    5.9720   -5.7440 C.3       1 GNP417      0.0000 
     18 O3'        20.2120    5.5200   -6.0810 O.3       1 GNP417      0.0000 
     19 C2'        21.6010    7.3260   -4.9940 C.3       1 GNP417      0.0000 
     20 O2'        20.3510    7.9870   -4.7390 O.3       1 GNP417      0.0000 
     21 C1'        22.3410    7.0010   -3.6670 C.3       1 GNP417      0.0000 
     22 N9         23.3070    8.0730   -3.3220 N.pl3     1 GNP417      0.0000 
     23 C8         24.6230    8.1010   -3.7290 C.2       1 GNP417      0.0000 
     24 N7         25.2210    9.1530   -3.2770 N.2       1 GNP417      0.0000 
     25 C5         24.3420    9.8820   -2.5450 C.2       1 GNP417      0.0000 
     26 C6         24.4310   11.1070   -1.8220 C.2       1 GNP417      0.0000 
     27 O6         25.4830   11.7290   -1.7830 O.2       1 GNP417      0.0000 
     28 N1         23.3140   11.5710   -1.1740 N.am      1 GNP417      0.0000 
     29 C2         22.1250   10.8720   -1.2160 C.2       1 GNP417      0.0000 
     30 N2         21.0340   11.3730   -0.5540 N.pl3     1 GNP417      0.0000 
     31 N3         22.0250    9.7230   -1.8900 N.2       1 GNP417      0.0000 
     32 C4         23.0950    9.1990   -2.5600 C.2       1 GNP417      0.0000 
     33 H          22.4197    3.3949   -6.1387 H         1 GNP417      0.0000 
     34 H          23.8225    4.4701   -6.0112 H         1 GNP417      0.0000 
     35 H          21.4095    4.4817   -4.2199 H         1 GNP417      0.0000 
     36 H          22.1797    6.0441   -6.5985 H         1 GNP417      0.0000 
     37 H          22.2914    7.9570   -5.5630 H         1 GNP417      0.0000 
     38 H          21.5919    6.9094   -2.9018 H         1 GNP417      0.0000 
     39 H          25.0121    7.3885   -4.2911 H         1 GNP417      0.0000 
     40 H          23.3608   12.4637   -0.6416 H         1 GNP417      0.0000 
     41 H          21.1783   12.2239   -0.0489 H         1 GNP417      0.0000 
     42 H          20.1894   10.8437   -0.6342 H         1 GNP417      0.0000 
     43 H          19.5957    6.2281   -5.7365 H         1 GNP417      0.0000 
     44 H          20.3877    8.2466   -3.7740 H         1 GNP417      0.0000 
@<TRIPOS>BOND
     1    2    1 ar   
     2    3    1 ar   
     3    4    1 ar   
     4    5    1 1    
     5    6    5 1    
     6    7    6 ar   
     7    8    6 ar   
     8    9    6 1    
     9   10    9 1    
    10   11   10 ar   
    11   12   10 ar   
    12   13   10 1    
    13   14   13 1    
    14   15   14 1    
    15   33   14 1    
    16   34   14 1    
    17   16   15 1    
    18   17   15 1    
    19   35   15 1    
    20   21   16 1    
    21   18   17 1    
    22   19   17 1    
    23   36   17 1    
    24   43   18 1    
    25   20   19 1    
    26   21   19 1    
    27   37   19 1    
    28   44   20 1    
    29   22   21 1    
    30   38   21 1    
    31   23   22 1    
    32   32   22 1    
    33   24   23 2    
    34   39   23 1    
    35   25   24 1    
    36   26   25 1    
    37   32   25 2    
    38   27   26 2    
    39   28   26 am   
    40   29   28 1    
    41   40   28 1    
    42   30   29 1    
    43   31   29 2    
    44   41   30 1    
    45   42   30 1    
    46   32   31 1    
@<TRIPOS>SUBSTRUCTURE
     1 GNP417      1 GROUP   
@<TRIPOS>SET

