#    Name: 2wzw_FMN_3_INTS_M
#    Modification time : Tue Mar 25 04:51:01 2014

@<TRIPOS>MOLECULE
2wzw_FMN_3_INTS_M
   74     0     9     0     0
SMALL
NO_CHARGES


@<TRIPOS>ATOM
      1 N         -24.1190 -107.8275  -16.1015 N.am      1 SEC2        0.0000 
      2 N         -23.3320 -106.9350  -15.0820 N.am      7 SEL2        0.0000 
      3 N         -24.9060 -108.7200  -17.1210 N.am      4 SEP2        0.0000 
      4 N         -23.4115 -109.8580  -15.4110 N.am      1 SEC2        0.0000 
      5 N         -23.1110 -109.1220  -14.3160 N.am      7 SEL2        0.0000 
      6 N         -23.7120 -110.5940  -16.5060 N.am      4 SEP2        0.0000 
      7 N         -24.0085 -108.9210  -15.7185 N.am      1 SEC2        0.0000 
      8 N         -20.9395 -104.9990  -10.4950 N.am      1 SEC2        0.0000 
      9 N         -21.7760 -105.6430  -11.5340 N.am      7 SEL2        0.0000 
     10 N         -20.1030 -104.3550   -9.4560 N.am      4 SEP2        0.0000 
     11 N         -21.3890 -103.4140  -12.6680 N.am      1 SEC2        0.0000 
     12 N         -22.5480 -103.7460  -13.4890 N.am      7 SEL2        0.0000 
     13 N         -20.2300 -103.0820  -11.8470 N.am      4 SEP2        0.0000 
     14 CA        -20.9130 -103.7195  -14.0075 C.3       3 GLC5        0.0000 
     15 CA        -22.7190 -102.8720  -14.5710 C.3       9 GLL5        0.0000 
     16 CA        -19.1070 -104.5670  -13.4440 C.3       6 GLP5        0.0000 
     17 CA        -22.0600  -98.2265  -17.3605 C.3       3 GLC5        0.0000 
     18 CA        -22.0350  -99.1870  -15.3490 C.3       9 GLL5        0.0000 
     19 CA        -22.0850  -97.2660  -19.3720 C.3       6 GLP5        0.0000 
     20 CA        -20.4430  -98.2910  -15.4565 C.3       3 GLC5        0.0000 
     21 CA        -18.8510  -97.3950  -15.5640 C.3       6 GLP5        0.0000 
     22 CA        -23.7075 -100.8825  -19.8160 C.3       3 GLC5        0.0000 
     23 CA        -23.1380 -100.1830  -17.9610 C.3       9 GLL5        0.0000 
     24 CA        -24.2770 -101.5820  -21.6710 C.3       6 GLP5        0.0000 
     25 CA        -22.6115  -98.7245  -18.6665 C.3       3 GLC5        0.0000 
     26 CA        -22.2685 -104.3125  -17.9345 C.3       3 GLC5        0.0000 
     27 CA        -23.8830 -105.2650  -17.2690 C.3       9 GLL5        0.0000 
     28 CA        -20.6540 -103.3600  -18.6000 C.3       6 GLP5        0.0000 
     29 CA        -24.3695 -106.3965  -19.6095 C.3       3 GLC5        0.0000 
     30 CA        -25.7830 -105.0510  -19.0510 C.3       9 GLL5        0.0000 
     31 CA        -22.9560 -107.7420  -20.1680 C.3       6 GLP5        0.0000 
     32 NZ        -24.5160 -104.2965  -23.3325 N.4       2 LYC4        0.0000 
     33 NZ        -24.7710 -105.2070  -22.1290 N.4       8 LYL4        0.0000 
     34 NZ        -22.9420 -103.4400  -24.4330 N.4       5 LYP4        0.0000 
     35 N         -23.5815 -104.7075  -22.8115 N.am      1 SEC2        0.0000 
     36 N         -24.7710 -105.2070  -22.1290 N.am      7 SEL2        0.0000 
     37 N         -22.3920 -104.2080  -23.4940 N.am      4 SEP2        0.0000 
     38 N         -24.5160 -104.2965  -23.3325 N.am      1 SEC2        0.0000 
     39 N         -24.2610 -103.3860  -24.5360 N.am      4 SEP2        0.0000 
     40 N         -23.7230 -106.5320  -22.3765 N.am      1 SEC2        0.0000 
     41 N         -22.6750 -107.8570  -22.6240 N.am      4 SEP2        0.0000 
     42 N         -24.1220 -107.7245  -22.6915 N.am      1 SEC2        0.0000 
     43 N         -25.5690 -107.5920  -22.7590 N.am      7 SEL2        0.0000 
     44 NZ        -27.0505 -104.2415  -24.0530 N.4       2 LYC4        0.0000 
     45 NZ        -26.5680 -105.5350  -23.8550 N.4       8 LYL4        0.0000 
     46 NZ        -28.8580 -102.9490  -24.2190 N.4       5 LYP4        0.0000 
     47 N         -25.4145 -104.4605  -24.1955 N.am      1 SEC2        0.0000 
     48 N         -26.5680 -105.5350  -23.8550 N.am      7 SEL2        0.0000 
     49 N         -28.0365 -104.8120  -23.9155 N.am      1 SEC2        0.0000 
     50 N         -29.5050 -104.0890  -23.9760 N.am      4 SEP2        0.0000 
     51 N         -27.0505 -104.2415  -24.0530 N.am      1 SEC2        0.0000 
     52 N         -27.5330 -102.9480  -24.2510 N.am      4 SEP2        0.0000 
     53 CA        -24.6175 -101.5440  -14.6230 C.3       3 GLC5        0.0000 
     54 CA        -26.7130 -100.8810  -14.7390 C.3       6 GLP5        0.0000 
     55 CA        -22.1360 -101.9630  -12.4870 C.3       3 GLC5        0.0000 
     56 CA        -22.3250 -101.5420  -14.4430 C.3       9 GLL5        0.0000 
     57 CA        -21.7500 -101.7190  -10.4670 C.3       6 GLP5        0.0000 
     58 CA        -24.7203 -100.8903  -15.4370 C.3       3 GLC5        0.0000 
     59 CA        -22.4910 -100.6610  -15.5180 C.3       9 GLL5        0.0000 
     60 CA        -21.0808 -102.0470  -16.3798 C.3       3 GLC5        0.0000 
     61 CA        -19.6550 -102.6600  -17.7470 C.3       6 GLP5        0.0000 
     62 CA        -24.8280 -100.1437  -17.8618 C.3       3 GLC5        0.0000 
     63 CA        -22.9640 -101.1380  -16.7520 C.3       9 GLL5        0.0000 
     64 CA        -26.6050  -99.6270  -18.3670 C.3       6 GLP5        0.0000 
     65 CA        -21.8525 -102.0102  -17.9783 C.3       3 GLC5        0.0000 
     66 CA        -25.0090 -101.8957  -15.5390 C.3       3 GLC5        0.0000 
     67 CA        -23.3610 -102.4760  -16.8820 C.3       9 GLL5        0.0000 
     68 CA        -21.9795 -103.1352  -17.4695 C.3       3 GLC5        0.0000 
     69 CA        -23.7975 -106.5168  -18.7970 C.3       3 GLC5        0.0000 
     70 CA        -29.2380 -104.3960  -19.4875 C.3       3 GLC5        0.0000 
     71 CA        -27.2880 -104.8650  -19.3190 C.3       9 GLL5        0.0000 
     72 CA        -31.0770 -103.9590  -18.8940 C.3       6 GLP5        0.0000 
     73 CA        -29.0530 -105.8225  -20.7310 C.3       3 GLC5        0.0000 
     74 CA        -30.7070 -106.8120  -21.3810 C.3       6 GLP5        0.0000 
@<TRIPOS>BOND
@<TRIPOS>SUBSTRUCTURE
     1 SEC2        1 GROUP        1 X    SEC  0     ROOT SEC X 2
     2 LYC4       32 GROUP        1 X    LYC  0     **** LYC X 4
     3 GLC5       14 GROUP        1 X    GLC  0     **** GLC X 6
     4 SEP2        3 GROUP        1 Y    SEP  0     ROOT SEP Y 9
     5 LYP4       34 GROUP        1 Y    LYP  0     **** LYP Y 11
     6 GLP5       16 GROUP        1 Y    GLP  0     **** GLP Y 13
     7 SEL2        2 GROUP        1 Z    SEL  0     ROOT SEL Z 16
     8 LYL4       33 GROUP        1 Z    LYL  0     **** LYL Z 18
     9 GLL5       15 GROUP        1 Z    GLL  0     **** GLL Z 20
@<TRIPOS>SET

