#    Name: 2wzw_FMN_3_ligand
#    Modification time : Tue Mar 25 04:51:01 2014

@<TRIPOS>MOLECULE
2wzw_FMN_3_ligand
   50    52     1     0     0
SMALL
NO_CHARGES


@<TRIPOS>ATOM
      1 N1        -23.3320 -106.9350  -15.0820 N.2       1 FMN801      0.0000 
      2 C2        -22.9400 -107.7990  -14.1210 C.2       1 FMN801      0.0000 
      3 O2        -23.1110 -109.1220  -14.3160 O.2       1 FMN801      0.0000 
      4 N3        -22.4130 -107.3670  -12.9580 N.am      1 FMN801      0.0000 
      5 C4        -22.3200 -106.0500  -12.7040 C.2       1 FMN801      0.0000 
      6 O4        -21.7760 -105.6430  -11.5340 O.2       1 FMN801      0.0000 
      7 C4A       -22.6950 -105.1270  -13.6900 C.2       1 FMN801      0.0000 
      8 N5        -22.5480 -103.7460  -13.4890 N.2       1 FMN801      0.0000 
      9 C5A       -22.7190 -102.8720  -14.5710 C.ar      1 FMN801      0.0000 
     10 C6        -22.3250 -101.5420  -14.4430 C.ar      1 FMN801      0.0000 
     11 C7        -22.4910 -100.6610  -15.5180 C.ar      1 FMN801      0.0000 
     12 C7M       -22.0350  -99.1870  -15.3490 C.3       1 FMN801      0.0000 
     13 C8        -22.9640 -101.1380  -16.7520 C.ar      1 FMN801      0.0000 
     14 C8M       -23.1380 -100.1830  -17.9610 C.3       1 FMN801      0.0000 
     15 C9        -23.3610 -102.4760  -16.8820 C.ar      1 FMN801      0.0000 
     16 C9A       -23.2490 -103.3450  -15.7960 C.ar      1 FMN801      0.0000 
     17 N10       -23.5840 -104.7140  -15.9270 N.pl3     1 FMN801      0.0000 
     18 C10       -23.2100 -105.6050  -14.9010 C.2       1 FMN801      0.0000 
     19 C1'       -23.8830 -105.2650  -17.2690 C.3       1 FMN801      0.0000 
     20 C2'       -25.3950 -105.3180  -17.5830 C.3       1 FMN801      0.0000 
     21 O2'       -26.2360 -105.7300  -16.7620 O.3       1 FMN801      0.0000 
     22 C3'       -25.7830 -105.0510  -19.0510 C.3       1 FMN801      0.0000 
     23 O3'       -24.9910 -104.0320  -19.7020 O.3       1 FMN801      0.0000 
     24 C4'       -27.2880 -104.8650  -19.3190 C.3       1 FMN801      0.0000 
     25 O4'       -27.9900 -105.9980  -18.8010 O.3       1 FMN801      0.0000 
     26 C5'       -27.5100 -104.8010  -20.8430 C.3       1 FMN801      0.0000 
     27 O5'       -27.0830 -106.0460  -21.4290 O.3       1 FMN801      0.0000 
     28 P         -25.9820 -106.0670  -22.6140 P.3       1 FMN801      0.0000 
     29 O1P       -24.7710 -105.2070  -22.1290 O.co2     1 FMN801      0.0000 
     30 O2P       -25.5690 -107.5920  -22.7590 O.co2     1 FMN801      0.0000 
     31 O3P       -26.5680 -105.5350  -23.8550 O.co2     1 FMN801      0.0000 
     32 H         -22.0759 -108.0596  -12.2521 H         1 FMN801      0.0000 
     33 H         -21.9146 -101.2067  -13.5658 H         1 FMN801      0.0000 
     34 H         -23.7332 -102.8134  -17.7759 H         1 FMN801      0.0000 
     35 H         -23.4826 -106.2882  -17.3618 H         1 FMN801      0.0000 
     36 H         -23.3968 -104.6577  -18.0504 H         1 FMN801      0.0000 
     37 H         -25.5315 -103.9630  -17.2786 H         1 FMN801      0.0000 
     38 H         -25.5286 -106.0458  -19.5980 H         1 FMN801      0.0000 
     39 H         -27.6048 -103.9545  -18.8872 H         1 FMN801      0.0000 
     40 H         -26.9379 -103.9565  -21.2262 H         1 FMN801      0.0000 
     41 H         -28.5696 -104.6150  -21.0162 H         1 FMN801      0.0000 
     42 H         -21.0580  -99.1214  -15.1459 H         1 FMN801      0.0000 
     43 H         -22.1990  -98.6503  -16.1767 H         1 FMN801      0.0000 
     44 H         -22.5206  -98.7312  -14.6031 H         1 FMN801      0.0000 
     45 H         -22.2738  -99.7527  -18.2217 H         1 FMN801      0.0000 
     46 H         -23.4811 -100.6640  -18.7678 H         1 FMN801      0.0000 
     47 H         -23.7841  -99.4461  -17.7622 H         1 FMN801      0.0000 
     48 H         -27.0401 -105.9616  -17.3095 H         1 FMN801      0.0000 
     49 H         -24.8157 -104.3878  -20.6200 H         1 FMN801      0.0000 
     50 H         -27.8077 -106.7351  -19.4518 H         1 FMN801      0.0000 
@<TRIPOS>BOND
     1    2    1 1    
     2   18    1 2    
     3    3    2 2    
     4    4    2 am   
     5    5    4 am   
     6   32    4 1    
     7    6    5 2    
     8    7    5 1    
     9    8    7 2    
    10   18    7 1    
    11    9    8 1    
    12   10    9 ar   
    13   16    9 ar   
    14   11   10 ar   
    15   33   10 1    
    16   12   11 1    
    17   13   11 ar   
    18   42   12 1    
    19   43   12 1    
    20   44   12 1    
    21   14   13 1    
    22   15   13 ar   
    23   45   14 1    
    24   46   14 1    
    25   47   14 1    
    26   16   15 ar   
    27   34   15 1    
    28   17   16 1    
    29   18   17 1    
    30   19   17 1    
    31   20   19 1    
    32   35   19 1    
    33   36   19 1    
    34   21   20 1    
    35   22   20 1    
    36   37   20 1    
    37   48   21 1    
    38   23   22 1    
    39   24   22 1    
    40   38   22 1    
    41   49   23 1    
    42   25   24 1    
    43   26   24 1    
    44   39   24 1    
    45   50   25 1    
    46   27   26 1    
    47   40   26 1    
    48   41   26 1    
    49   28   27 1    
    50   29   28 ar   
    51   30   28 ar   
    52   31   28 ar   
@<TRIPOS>SUBSTRUCTURE
     1 FMN801      1 GROUP   
@<TRIPOS>SET

