#    Name: 3rpr_25Z_1_INTS_M
#    Modification time : Tue Mar 25 11:48:09 2014

@<TRIPOS>MOLECULE
3rpr_25Z_1_INTS_M
   68     0     9     0     0
SMALL
NO_CHARGES


@<TRIPOS>ATOM
      1 CA         96.6060   76.9980  -44.9435 C.3       3 GLC5        0.0000 
      2 CA         94.6830   76.9970  -46.1040 C.3       9 GLL5        0.0000 
      3 CA         98.5290   76.9990  -43.7830 C.3       6 GLP5        0.0000 
      4 CA         95.8595   81.0895  -45.5410 C.3       3 GLC5        0.0000 
      5 CA         94.3210   80.5000  -44.9690 C.3       9 GLL5        0.0000 
      6 CA         97.3980   81.6790  -46.1130 C.3       6 GLP5        0.0000 
      7 N          90.8650   82.4225  -52.3195 N.am      2 SEC2        0.0000 
      8 N          91.7310   81.8290  -51.1100 N.am      8 SEL2        0.0000 
      9 N          89.9990   83.0160  -53.5290 N.am      5 SEP2        0.0000 
     10 N          95.8765   78.2185  -50.5830 N.am      2 SEC2        0.0000 
     11 N          94.6530   78.6890  -50.9240 N.am      8 SEL2        0.0000 
     12 N          97.1000   77.7480  -50.2420 N.am      5 SEP2        0.0000 
     13 CA         92.1490   81.8055  -47.1000 C.3       3 GLC5        0.0000 
     14 CA         91.9550   80.7390  -48.7840 C.3       9 GLL5        0.0000 
     15 CA         92.3430   82.8720  -45.4160 C.3       6 GLP5        0.0000 
     16 CA         96.7495   79.1205  -42.5665 C.3       3 GLC5        0.0000 
     17 CA         95.8610   79.0400  -44.2760 C.3       9 GLL5        0.0000 
     18 CA         97.6380   79.2010  -40.8570 C.3       6 GLP5        0.0000 
     19 CA         97.1950   78.0195  -44.0295 C.3       3 GLC5        0.0000 
     20 O          89.3230   83.1280  -50.4745 O.2       1 ALC1        0.0000 
     21 O          90.2250   82.6940  -49.5230 O.2       7 ALL1        0.0000 
     22 O          88.4210   83.5620  -51.4260 O.2       4 ALP1        0.0000 
     23 CA         95.5225   80.6340  -47.3800 C.3       3 GLC5        0.0000 
     24 CA         94.2870   79.1340  -47.3360 C.3       9 GLL5        0.0000 
     25 CA         96.7580   82.1340  -47.4240 C.3       6 GLP5        0.0000 
     26 CA         92.9965   76.8385  -44.1355 C.3       3 GLC5        0.0000 
     27 CA         93.6900   78.6190  -43.9010 C.3       9 GLL5        0.0000 
     28 CA         92.3030   75.0580  -44.3700 C.3       6 GLP5        0.0000 
     29 O          93.3655   81.4185  -53.6905 O.2       1 ALC1        0.0000 
     30 O          93.3680   80.6960  -52.4050 O.2       7 ALL1        0.0000 
     31 O          93.3630   82.1410  -54.9760 O.2       4 ALP1        0.0000 
     32 CA         94.2440   76.3060  -50.6910 C.3       3 GLC5        0.0000 
     33 CA         94.3830   76.9580  -48.5820 C.3       9 GLL5        0.0000 
     34 CA         94.1050   75.6540  -52.8000 C.3       6 GLP5        0.0000 
     35 CA         91.2875   79.4930  -51.3310 C.3       3 GLC5        0.0000 
     36 CA         92.7160   80.9050  -51.2260 C.3       9 GLL5        0.0000 
     37 CA         89.8590   78.0810  -51.4360 C.3       6 GLP5        0.0000 
     38 CA         90.5955   83.4295  -46.6915 C.3       3 GLC5        0.0000 
     39 CA         88.8480   83.9870  -47.9670 C.3       9 GLL5        0.0000 
     40 CA         93.4010   81.3475  -45.1532 C.3       3 GLC5        0.0000 
     41 CA         94.5970   79.1460  -44.8120 C.3       9 GLL5        0.0000 
     42 CA         90.8893   79.5187  -49.7555 C.3       3 GLC5        0.0000 
     43 CA         89.3180   78.5660  -50.0990 C.3       6 GLP5        0.0000 
     44 CA         96.6305   79.6191  -45.5860 C.3       3 GLC5        0.0000 
     45 CA         98.0510   80.3190  -46.3150 C.3       6 GLP5        0.0000 
     46 CA         94.6385   80.3456  -42.9056 C.3       3 GLC5        0.0000 
     47 CA         94.8520   81.6660  -41.5690 C.3       6 GLP5        0.0000 
     48 CA         95.9857   78.4040  -49.4870 C.3       3 GLC5        0.0000 
     49 CA         94.2100   78.4180  -48.6160 C.3       9 GLL5        0.0000 
     50 CA         97.6750   79.1200  -50.3750 C.3       6 GLP5        0.0000 
     51 CA         93.8780   74.8730  -48.5405 C.3       3 GLC5        0.0000 
     52 CA         93.2570   73.1330  -49.1190 C.3       6 GLP5        0.0000 
     53 CA         93.4557   76.0270  -45.5415 C.3       3 GLC5        0.0000 
     54 CA         94.6150   76.2680  -47.3420 C.3       9 GLL5        0.0000 
     55 CA         94.1620   81.9067  -51.0275 C.3       3 GLC5        0.0000 
     56 CA         92.9660   80.2040  -50.0400 C.3       9 GLL5        0.0000 
     57 CA         95.4830   83.2590  -51.4220 C.3       6 GLP5        0.0000 
     58 CA         87.2927   81.6060  -48.3798 C.3       3 GLC5        0.0000 
     59 CA         89.0970   81.5380  -47.5090 C.3       9 GLL5        0.0000 
     60 CA         85.3290   81.0880  -48.8240 C.3       6 GLP5        0.0000 
     61 CA         89.2873   80.3450  -49.0173 C.3       3 GLC5        0.0000 
     62 CA         88.2202   79.4750  -46.9437 C.3       3 GLC5        0.0000 
     63 CA         87.7620   77.3460  -46.9640 C.3       6 GLP5        0.0000 
     64 CA         90.5506   82.3845  -46.2764 C.3       3 GLC5        0.0000 
     65 CA         88.2600   81.6700  -46.3380 C.3       9 GLL5        0.0000 
     66 CA         86.6602   81.7010  -47.4935 C.3       3 GLC5        0.0000 
     67 CA         87.6552   81.5565  -44.5290 C.3       3 GLC5        0.0000 
     68 CA         87.3190   80.7990  -42.8950 C.3       6 GLP5        0.0000 
@<TRIPOS>BOND
@<TRIPOS>SUBSTRUCTURE
     1 ALC1       20 GROUP        1 X    ALC  0     ROOT ALC X 1
     2 SEC2        7 GROUP        1 X    SEC  0     **** SEC X 2
     3 GLC5        1 GROUP        1 X    GLC  0     **** GLC X 6
     4 ALP1       22 GROUP        1 Y    ALP  0     ROOT ALP Y 8
     5 SEP2        9 GROUP        1 Y    SEP  0     **** SEP Y 9
     6 GLP5        3 GROUP        1 Y    GLP  0     **** GLP Y 13
     7 ALL1       21 GROUP        1 Z    ALL  0     ROOT ALL Z 15
     8 SEL2        8 GROUP        1 Z    SEL  0     **** SEL Z 16
     9 GLL5        2 GROUP        1 Z    GLL  0     **** GLL Z 20
@<TRIPOS>SET

