#    Name: 3rpr_25Z_1_ligand
#    Modification time : Tue Mar 25 11:48:09 2014

@<TRIPOS>MOLECULE
3rpr_25Z_1_ligand
   37    39     1     0     0
SMALL
NO_CHARGES


@<TRIPOS>ATOM
      1 C1         94.6830   76.9970  -46.1040 C.ar      1 25Z529      0.0000 
      2 F1         94.3210   80.5000  -44.9690 F         1 25Z529      0.0000 
      3 N1         91.7310   81.8290  -51.1100 N.2       1 25Z529      0.0000 
      4 O1         94.6530   78.6890  -50.9240 O.2       1 25Z529      0.0000 
      5 S1         91.9550   80.7390  -48.7840 S.3       1 25Z529      0.0000 
      6 C2         94.5210   78.4510  -46.0640 C.ar      1 25Z529      0.0000 
      7 F2         95.8610   79.0400  -44.2760 F         1 25Z529      0.0000 
      8 N2         90.2250   82.6940  -49.5230 N.pl3     1 25Z529      0.0000 
      9 C3         94.2870   79.1340  -47.3360 C.ar      1 25Z529      0.0000 
     10 F3         93.6900   78.6190  -43.9010 F         1 25Z529      0.0000 
     11 N3         93.3680   80.6960  -52.4050 N.pl3     1 25Z529      0.0000 
     12 C4         94.2100   78.4180  -48.6160 C.ar      1 25Z529      0.0000 
     13 C5         94.3830   76.9580  -48.5820 C.ar      1 25Z529      0.0000 
     14 C6         94.6150   76.2680  -47.3420 C.ar      1 25Z529      0.0000 
     15 C7         94.5970   79.1460  -44.8120 C.3       1 25Z529      0.0000 
     16 C8         93.9820   79.0870  -49.8260 C.2       1 25Z529      0.0000 
     17 C9         92.9660   80.2040  -50.0400 C.2       1 25Z529      0.0000 
     18 C10        91.2210   81.8540  -49.8470 C.2       1 25Z529      0.0000 
     19 C11        92.7160   80.9050  -51.2260 C.2       1 25Z529      0.0000 
     20 C12        89.4160   82.7100  -48.3620 C.ar      1 25Z529      0.0000 
     21 C13        89.0970   81.5380  -47.5090 C.ar      1 25Z529      0.0000 
     22 C14        88.2600   81.6700  -46.3380 C.ar      1 25Z529      0.0000 
     23 C15        87.7230   82.9580  -45.9880 C.ar      1 25Z529      0.0000 
     24 C16        88.0120   84.1100  -46.7970 C.ar      1 25Z529      0.0000 
     25 C17        88.8480   83.9870  -47.9670 C.ar      1 25Z529      0.0000 
     26 H          94.8472   76.5000  -45.2298 H         1 25Z529      0.0000 
     27 H          89.9851   83.4871  -50.2410 H         1 25Z529      0.0000 
     28 H          94.1722   80.1501  -47.3368 H         1 25Z529      0.0000 
     29 H          93.1065   81.2921  -53.1642 H         1 25Z529      0.0000 
     30 H          94.0504   79.9650  -52.4068 H         1 25Z529      0.0000 
     31 H          94.3355   76.4423  -49.4545 H         1 25Z529      0.0000 
     32 H          94.7317   75.2591  -47.3402 H         1 25Z529      0.0000 
     33 H          89.4806   80.6369  -47.7659 H         1 25Z529      0.0000 
     34 H          88.0552   80.8613  -45.7709 H         1 25Z529      0.0000 
     35 H          87.1366   83.0529  -45.1647 H         1 25Z529      0.0000 
     36 H          87.6281   85.0146  -46.5470 H         1 25Z529      0.0000 
     37 H          89.0466   84.8129  -48.5315 H         1 25Z529      0.0000 
@<TRIPOS>BOND
     1    6    1 ar   
     2   14    1 ar   
     3   26    1 1    
     4   15    2 1    
     5   18    3 2    
     6   19    3 1    
     7   16    4 2    
     8   17    5 1    
     9   18    5 1    
    10    9    6 ar   
    11   15    6 1    
    12   15    7 1    
    13   18    8 1    
    14   20    8 1    
    15   27    8 1    
    16   12    9 ar   
    17   28    9 1    
    18   15   10 1    
    19   19   11 1    
    20   29   11 1    
    21   30   11 1    
    22   13   12 ar   
    23   16   12 1    
    24   14   13 ar   
    25   31   13 1    
    26   32   14 1    
    27   17   16 1    
    28   19   17 2    
    29   21   20 ar   
    30   25   20 ar   
    31   22   21 ar   
    32   33   21 1    
    33   23   22 ar   
    34   34   22 1    
    35   24   23 ar   
    36   35   23 1    
    37   25   24 ar   
    38   36   24 1    
    39   37   25 1    
@<TRIPOS>SUBSTRUCTURE
     1 25Z529      1 GROUP   
@<TRIPOS>SET

