#    Name: 2qi6_MZ8_1_INTS_M
#    Modification time : Mon Mar 24 22:12:00 2014

@<TRIPOS>MOLECULE
2qi6_MZ8_1_INTS_M
   84     0     9     0     0
SMALL
NO_CHARGES


@<TRIPOS>ATOM
      1 CA         16.0425   33.4305   14.1795 C.3       3 GLC5        0.0000 
      2 CA         17.3360   33.5400   15.8980 C.3       9 GLL5        0.0000 
      3 CA         14.7490   33.3210   12.4610 C.3       6 GLP5        0.0000 
      4 CA         15.5025   37.8950   16.1365 C.3       3 GLC5        0.0000 
      5 CA         16.8070   37.2670   17.4970 C.3       9 GLL5        0.0000 
      6 CA         14.1980   38.5230   14.7760 C.3       6 GLP5        0.0000 
      7 N          14.5890   35.0050   20.0725 N.am      2 SEC2        0.0000 
      8 N          15.1120   35.6960   18.7270 N.am      8 SEL2        0.0000 
      9 N          14.0660   34.3140   21.4180 N.am      5 SEP2        0.0000 
     10 CA         16.4975   33.2775   19.0240 C.3       3 GLC5        0.0000 
     11 CA         15.7570   34.8860   17.8460 C.3       9 GLL5        0.0000 
     12 CA         17.2380   31.6690   20.2020 C.3       6 GLP5        0.0000 
     13 CA         13.9855   35.2260   19.1345 C.3       3 GLC5        0.0000 
     14 CA         12.2140   35.5660   20.4230 C.3       6 GLP5        0.0000 
     15 CA         15.4275   31.2430   15.4635 C.3       3 GLC5        0.0000 
     16 CA         16.3590   32.8690   16.6450 C.3       9 GLL5        0.0000 
     17 CA         14.4960   29.6170   14.2820 C.3       6 GLP5        0.0000 
     18 CA         23.2020   34.5885   14.5270 C.3       3 GLC5        0.0000 
     19 CA         22.4140   32.6170   14.9630 C.3       9 GLL5        0.0000 
     20 CA         23.9900   36.5600   14.0910 C.3       6 GLP5        0.0000 
     21 CA         24.1285   31.1725   15.0100 C.3       3 GLC5        0.0000 
     22 CA         25.8430   29.7280   15.0570 C.3       6 GLP5        0.0000 
     23 CA         23.4510   32.7235   13.0750 C.3       3 GLC5        0.0000 
     24 CA         24.4880   32.8300   11.1870 C.3       6 GLP5        0.0000 
     25 CA         23.0185   33.0025   19.0995 C.3       3 GLC5        0.0000 
     26 CA         22.5300   33.6430   17.2740 C.3       9 GLL5        0.0000 
     27 CA         23.5070   32.3620   20.9250 C.3       6 GLP5        0.0000 
     28 CA         24.0430   34.4110   17.8025 C.3       3 GLC5        0.0000 
     29 CA         25.5560   35.1790   18.3310 C.3       6 GLP5        0.0000 
     30 CA         24.2695   32.5745   17.3855 C.3       3 GLC5        0.0000 
     31 CA         26.0090   31.5060   17.4970 C.3       6 GLP5        0.0000 
     32 N          19.4950   27.9780   17.8105 N.am      2 SEC2        0.0000 
     33 N          20.0180   28.4520   16.5290 N.am      8 SEL2        0.0000 
     34 N          18.9720   27.5040   19.0920 N.am      5 SEP2        0.0000 
     35 O          20.8730   28.1495   17.4300 O.2       1 ALC1        0.0000 
     36 O          20.0180   28.4520   16.5290 O.2       7 ALL1        0.0000 
     37 O          21.7280   27.8470   18.3310 O.2       4 ALP1        0.0000 
     38 O          21.5585   28.8890   16.9815 O.2       1 ALC1        0.0000 
     39 O          23.0990   29.3260   17.4340 O.2       4 ALP1        0.0000 
     40 CA         18.8885   29.8360    9.6635 C.3       3 GLC5        0.0000 
     41 CA         17.2850   28.8450   10.5340 C.3       9 GLL5        0.0000 
     42 CA         20.4920   30.8270    8.7930 C.3       6 GLP5        0.0000 
     43 O          20.3825   26.9260   14.0850 O.2       1 ALC1        0.0000 
     44 O          20.5600   28.4090   13.5660 O.2       7 ALL1        0.0000 
     45 O          20.2050   25.4430   14.6040 O.2       4 ALP1        0.0000 
     46 CA         23.5670   26.1475   12.9730 C.3       3 GLC5        0.0000 
     47 CA         24.1510   26.8190   10.9330 C.3       9 GLL5        0.0000 
     48 CA         22.9830   25.4760   15.0130 C.3       6 GLP5        0.0000 
     49 CA         26.1055   25.8380   11.2170 C.3       3 GLC5        0.0000 
     50 CA         28.0600   24.8570   11.5010 C.3       6 GLP5        0.0000 
     51 O          26.0650   25.7840   10.1250 O.2       1 ALC1        0.0000 
     52 O          25.4730   26.9220   10.6600 O.2       7 ALL1        0.0000 
     53 O          26.6570   24.6460    9.5900 O.2       4 ALP1        0.0000 
     54 CA         23.7535   27.2045   13.5205 C.3       3 GLC5        0.0000 
     55 CA         23.5260   27.8440   11.6340 C.3       9 GLL5        0.0000 
     56 CA         23.9810   26.5650   15.4070 C.3       6 GLP5        0.0000 
     57 CA         24.1855   29.6330   11.6050 C.3       3 GLC5        0.0000 
     58 CA         24.8450   31.4220   11.5760 C.3       6 GLP5        0.0000 
     59 CA         16.0625   32.0288   18.3190 C.3       3 GLC5        0.0000 
     60 CA         15.5950   33.5260   17.6090 C.3       9 GLL5        0.0000 
     61 CA         16.1480   30.8600   19.5110 C.3       6 GLP5        0.0000 
     62 CA         14.0362   33.3927   16.6176 C.3       3 GLC5        0.0000 
     63 CA         12.0550   33.2480   16.0490 C.3       6 GLP5        0.0000 
     64 CA         16.2240   26.9428   12.1013 C.3       3 GLC5        0.0000 
     65 CA         17.9430   28.1560   12.7560 C.3       9 GLL5        0.0000 
     66 CA         14.4860   26.3930   11.6700 C.3       6 GLP5        0.0000 
     67 CA         17.0928   25.5602   13.2030 C.3       3 GLC5        0.0000 
     68 CA         17.9810   26.8290   12.3090 C.3       9 GLL5        0.0000 
     69 CA         16.3560   24.4470   14.7550 C.3       6 GLP5        0.0000 
     70 CA         15.9932   26.7067   11.1088 C.3       3 GLC5        0.0000 
     71 CA         17.6780   26.5180   10.9930 C.3       9 GLL5        0.0000 
     72 CA         16.0805   28.4850    9.0030 C.3       3 GLC5        0.0000 
     73 CA         17.3230   27.5230   10.1020 C.3       9 GLL5        0.0000 
     74 CA         14.8570   28.7860    7.6880 C.3       6 GLP5        0.0000 
     75 CA         17.3453   30.7933   10.3775 C.3       3 GLC5        0.0000 
     76 CA         17.2520   32.5850    9.5580 C.3       6 GLP5        0.0000 
     77 CA         15.9623   27.6973   11.4335 C.3       3 GLC5        0.0000 
     78 CA         16.1767   29.1773   13.4755 C.3       3 GLC5        0.0000 
     79 CA         17.5920   29.1580   11.8600 C.3       9 GLL5        0.0000 
     80 CA         22.4735   25.9244   13.1378 C.3       3 GLC5        0.0000 
     81 CA         21.4700   26.6080   11.5000 C.3       9 GLL5        0.0000 
     82 CA         23.4495   23.8835   11.1520 C.3       3 GLC5        0.0000 
     83 CA         22.1020   25.5750   10.8090 C.3       9 GLL5        0.0000 
     84 CA         24.1210   22.1380   11.6390 C.3       6 GLP5        0.0000 
@<TRIPOS>BOND
@<TRIPOS>SUBSTRUCTURE
     1 ALC1       35 GROUP        1 X    ALC  0     ROOT ALC X 1
     2 SEC2        7 GROUP        1 X    SEC  0     **** SEC X 2
     3 GLC5        1 GROUP        1 X    GLC  0     **** GLC X 6
     4 ALP1       37 GROUP        1 Y    ALP  0     ROOT ALP Y 8
     5 SEP2        9 GROUP        1 Y    SEP  0     **** SEP Y 9
     6 GLP5        3 GROUP        1 Y    GLP  0     **** GLP Y 13
     7 ALL1       36 GROUP        1 Z    ALL  0     ROOT ALL Z 15
     8 SEL2        8 GROUP        1 Z    SEL  0     **** SEL Z 16
     9 GLL5        2 GROUP        1 Z    GLL  0     **** GLL Z 20
@<TRIPOS>SET

