#    Name: 2qi6_MZ8_1_ligand
#    Modification time : Mon Mar 24 22:12:00 2014

@<TRIPOS>MOLECULE
2qi6_MZ8_1_ligand
   69    72     1     0     0
SMALL
NO_CHARGES


@<TRIPOS>ATOM
      1 O9         18.7210   33.4810   13.7780 O.2       1 MZ8200      0.0000 
      2 S8         18.2190   32.6640   14.8350 S.o2      1 MZ8200      0.0000 
      3 O10        17.4440   31.5890   14.2840 O.2       1 MZ8200      0.0000 
      4 C5         17.3360   33.5400   15.8980 C.ar      1 MZ8200      0.0000 
      5 C4         17.4880   34.9220   16.1480 C.ar      1 MZ8200      0.0000 
      6 C3         16.7060   35.6050   17.1110 C.ar      1 MZ8200      0.0000 
      7 S1         16.8070   37.2670   17.4970 S.3       1 MZ8200      0.0000 
      8 C1         15.5420   36.9760   18.6520 C.2       1 MZ8200      0.0000 
      9 N1         15.1120   35.6960   18.7270 N.2       1 MZ8200      0.0000 
     10 C2         15.7570   34.8860   17.8460 C.ar      1 MZ8200      0.0000 
     11 C7         15.5950   33.5260   17.6090 C.ar      1 MZ8200      0.0000 
     12 C6         16.3590   32.8690   16.6450 C.ar      1 MZ8200      0.0000 
     13 N11        19.5460   32.0280   15.5330 N.pl3     1 MZ8200      0.0000 
     14 C12        20.3050   33.0090   16.3460 C.3       1 MZ8200      0.0000 
     15 C13        21.8000   32.6630   16.3620 C.3       1 MZ8200      0.0000 
     16 C14        22.4140   32.6170   14.9630 C.3       1 MZ8200      0.0000 
     17 C15        22.5300   33.6430   17.2740 C.3       1 MZ8200      0.0000 
     18 C16        19.2780   30.7630   16.2530 C.3       1 MZ8200      0.0000 
     19 C17        20.0940   29.6050   15.6720 C.3       1 MZ8200      0.0000 
     20 O18        20.0180   28.4520   16.5290 O.3       1 MZ8200      0.0000 
     21 C19        19.6190   29.2710   14.2680 C.3       1 MZ8200      0.0000 
     22 C32        18.3030   28.4780   14.2000 C.3       1 MZ8200      0.0000 
     23 C38        17.9430   28.1560   12.7560 C.ar      1 MZ8200      0.0000 
     24 C33        17.9810   26.8290   12.3090 C.ar      1 MZ8200      0.0000 
     25 C34        17.6780   26.5180   10.9930 C.ar      1 MZ8200      0.0000 
     26 C35        17.3230   27.5230   10.1020 C.ar      1 MZ8200      0.0000 
     27 C36        17.2850   28.8450   10.5340 C.ar      1 MZ8200      0.0000 
     28 C37        17.5920   29.1580   11.8600 C.ar      1 MZ8200      0.0000 
     29 N20        20.5600   28.4090   13.5660 N.am      1 MZ8200      0.0000 
     30 C21        21.4160   28.8060   12.6320 C.2       1 MZ8200      0.0000 
     31 O22        21.5770   29.9590   12.2540 O.2       1 MZ8200      0.0000 
     32 C22        22.1820   27.7330   11.9320 C.ar      1 MZ8200      0.0000 
     33 C23        21.4700   26.6080   11.5000 C.ar      1 MZ8200      0.0000 
     34 C24        22.1020   25.5750   10.8090 C.ar      1 MZ8200      0.0000 
     35 C25        23.4540   25.6830   10.5210 C.ar      1 MZ8200      0.0000 
     36 C26        24.1510   26.8190   10.9330 C.ar      1 MZ8200      0.0000 
     37 O27        25.4730   26.9220   10.6600 O.3       1 MZ8200      0.0000 
     38 C27        23.5260   27.8440   11.6340 C.ar      1 MZ8200      0.0000 
     39 H          18.1948   35.4550   15.6096 H         1 MZ8200      0.0000 
     40 H          15.2948   37.7786   19.1088 H         1 MZ8200      0.0000 
     41 H          14.8975   32.9912   18.1551 H         1 MZ8200      0.0000 
     42 H          16.2020   31.8575   16.4746 H         1 MZ8200      0.0000 
     43 H          19.9412   33.0135   17.3767 H         1 MZ8200      0.0000 
     44 H          20.1886   34.0157   15.9365 H         1 MZ8200      0.0000 
     45 H          21.8977   31.6633   16.8125 H         1 MZ8200      0.0000 
     46 H          18.2148   30.5035   16.1866 H         1 MZ8200      0.0000 
     47 H          19.5326   30.8662   17.3144 H         1 MZ8200      0.0000 
     48 H          21.1318   29.9490   15.5960 H         1 MZ8200      0.0000 
     49 H          19.4779   30.1771   13.6944 H         1 MZ8200      0.0000 
     50 H          17.5097   29.0709   14.6496 H         1 MZ8200      0.0000 
     51 H          18.4182   27.5536   14.7614 H         1 MZ8200      0.0000 
     52 H          18.2379   26.0804   12.9712 H         1 MZ8200      0.0000 
     53 H          17.7157   25.5392   10.6730 H         1 MZ8200      0.0000 
     54 H          17.0897   27.2924    9.1297 H         1 MZ8200      0.0000 
     55 H          17.0308   29.5944    9.8779 H         1 MZ8200      0.0000 
     56 H          17.5570   30.1392   12.1725 H         1 MZ8200      0.0000 
     57 H          20.5191   27.3844   13.8622 H         1 MZ8200      0.0000 
     58 H          20.4566   26.5440   11.6981 H         1 MZ8200      0.0000 
     59 H          21.5721   24.7497   10.5198 H         1 MZ8200      0.0000 
     60 H          23.9388   24.9395   10.0119 H         1 MZ8200      0.0000 
     61 H          24.0589   28.6690   11.9238 H         1 MZ8200      0.0000 
     62 H          23.3872   32.3888   14.9919 H         1 MZ8200      0.0000 
     63 H          21.9696   31.9329   14.3847 H         1 MZ8200      0.0000 
     64 H          22.3328   33.4958   14.4927 H         1 MZ8200      0.0000 
     65 H          23.5111   33.4535   17.3132 H         1 MZ8200      0.0000 
     66 H          22.4261   34.5877   16.9629 H         1 MZ8200      0.0000 
     67 H          22.1862   33.6039   18.2122 H         1 MZ8200      0.0000 
     68 H          20.9226   28.3821   16.9494 H         1 MZ8200      0.0000 
     69 H          25.7343   26.0248   10.3038 H         1 MZ8200      0.0000 
@<TRIPOS>BOND
     1    2    1 2    
     2    3    2 2    
     3    4    2 1    
     4   13    2 1    
     5    5    4 ar   
     6   12    4 ar   
     7    6    5 ar   
     8   39    5 1    
     9    7    6 1    
    10   10    6 ar   
    11    8    7 1    
    12    9    8 2    
    13   40    8 1    
    14   10    9 1    
    15   11   10 ar   
    16   12   11 ar   
    17   41   11 1    
    18   42   12 1    
    19   14   13 1    
    20   18   13 1    
    21   15   14 1    
    22   43   14 1    
    23   44   14 1    
    24   16   15 1    
    25   17   15 1    
    26   45   15 1    
    27   62   16 1    
    28   63   16 1    
    29   64   16 1    
    30   65   17 1    
    31   66   17 1    
    32   67   17 1    
    33   19   18 1    
    34   46   18 1    
    35   47   18 1    
    36   20   19 1    
    37   21   19 1    
    38   48   19 1    
    39   68   20 1    
    40   22   21 1    
    41   29   21 1    
    42   49   21 1    
    43   23   22 1    
    44   50   22 1    
    45   51   22 1    
    46   24   23 ar   
    47   28   23 ar   
    48   25   24 ar   
    49   52   24 1    
    50   26   25 ar   
    51   53   25 1    
    52   27   26 ar   
    53   54   26 1    
    54   28   27 ar   
    55   55   27 1    
    56   56   28 1    
    57   30   29 am   
    58   57   29 1    
    59   31   30 2    
    60   32   30 1    
    61   33   32 ar   
    62   38   32 ar   
    63   34   33 ar   
    64   58   33 1    
    65   35   34 ar   
    66   59   34 1    
    67   36   35 ar   
    68   60   35 1    
    69   37   36 1    
    70   38   36 ar   
    71   69   37 1    
    72   61   38 1    
@<TRIPOS>SUBSTRUCTURE
     1 MZ8200      1 GROUP   
@<TRIPOS>SET

