#    Name: 4f08_JAK_1_INTS_M
#    Modification time : Mon Mar 24 18:52:06 2014

@<TRIPOS>MOLECULE
4f08_JAK_1_INTS_M
   47     0     9     0     0
SMALL
NO_CHARGES


@<TRIPOS>ATOM
      1 CA         13.5980  -49.5135  -24.0835 C.3       3 GLC5        0.0000 
      2 CA         11.8720  -50.6940  -23.8730 C.3       9 GLL5        0.0000 
      3 CA         15.3240  -48.3330  -24.2940 C.3       6 GLP5        0.0000 
      4 N          12.9245  -48.6700  -23.5985 N.am      2 SEC2        0.0000 
      5 N          11.8450  -49.6350  -23.1330 N.am      8 SEL2        0.0000 
      6 N          14.0040  -47.7050  -24.0640 N.am      5 SEP2        0.0000 
      7 CA         11.8160  -47.7155  -23.0275 C.3       3 GLC5        0.0000 
      8 CA         11.2050  -49.5860  -21.9890 C.3       9 GLL5        0.0000 
      9 CA         12.4270  -45.8450  -24.0660 C.3       6 GLP5        0.0000 
     10 CA          7.4470  -52.7810  -23.0275 C.3       3 GLC5        0.0000 
     11 CA          7.7160  -53.4350  -21.1330 C.3       9 GLL5        0.0000 
     12 CA          7.1780  -52.1270  -24.9220 C.3       6 GLP5        0.0000 
     13 CA          6.3765  -52.1950  -21.1735 C.3       3 GLC5        0.0000 
     14 CA          5.0370  -50.9550  -21.2140 C.3       6 GLP5        0.0000 
     15 CA          6.0115  -52.7740  -20.0220 C.3       3 GLC5        0.0000 
     16 CA          7.0830  -54.5680  -20.3380 C.3       9 GLL5        0.0000 
     17 CA          4.9400  -50.9800  -19.7060 C.3       6 GLP5        0.0000 
     18 CA          9.1050  -54.0940  -16.8850 C.3       3 GLC5        0.0000 
     19 CA          9.0910  -54.8460  -18.9870 C.3       9 GLL5        0.0000 
     20 CA          9.1190  -53.3420  -14.7830 C.3       6 GLP5        0.0000 
     21 CA          8.0065  -50.1005  -20.9420 C.3       3 GLC5        0.0000 
     22 CA          9.9440  -50.2830  -20.2420 C.3       9 GLL5        0.0000 
     23 CA          6.0690  -49.9180  -21.6420 C.3       6 GLP5        0.0000 
     24 CA         11.8680  -48.0670  -18.8740 C.3       3 GLC5        0.0000 
     25 CA         10.2970  -49.0140  -20.0490 C.3       9 GLL5        0.0000 
     26 CA         13.4390  -47.1200  -17.6990 C.3       6 GLP5        0.0000 
     27 CA          9.5160  -48.0115  -18.4930 C.3       3 GLC5        0.0000 
     28 CA          8.7350  -47.0090  -16.9370 C.3       6 GLP5        0.0000 
     29 O          11.5625  -47.1560  -21.2265 O.2       1 ALC1        0.0000 
     30 O          11.0550  -48.5850  -21.0830 O.2       7 ALL1        0.0000 
     31 O          12.0700  -45.7270  -21.3700 O.2       4 ALP1        0.0000 
     32 CA         13.0375  -52.5300  -24.3852 C.3       3 GLC5        0.0000 
     33 CA         11.2200  -51.8420  -23.4720 C.3       9 GLL5        0.0000 
     34 CA         14.5290  -53.7920  -25.0980 C.3       6 GLP5        0.0000 
     35 CA         12.1748  -52.3268  -21.7019 C.3       3 GLC5        0.0000 
     36 CA         13.3160  -53.0860  -20.4350 C.3       6 GLP5        0.0000 
     37 CA         11.3965  -53.4052  -20.4350 C.3       3 GLC5        0.0000 
     38 CA          9.1960  -53.7450  -21.1370 C.3       9 GLL5        0.0000 
     39 CA          6.1162  -54.7722  -21.8367 C.3       3 GLC5        0.0000 
     40 CA          4.8330  -55.5430  -22.9380 C.3       6 GLP5        0.0000 
     41 CA          9.6292  -50.3937  -23.6829 C.3       3 GLC5        0.0000 
     42 CA         10.5180  -50.6970  -21.5090 C.3       9 GLL5        0.0000 
     43 CA          8.3110  -49.9330  -25.0070 C.3       6 GLP5        0.0000 
     44 CA          9.5000  -48.3420  -21.6216 C.3       3 GLC5        0.0000 
     45 CA          8.5090  -46.7890  -22.2960 C.3       6 GLP5        0.0000 
     46 CA         12.0500  -50.3380  -20.2661 C.3       3 GLC5        0.0000 
     47 CA         13.6090  -50.7810  -19.5850 C.3       6 GLP5        0.0000 
@<TRIPOS>BOND
@<TRIPOS>SUBSTRUCTURE
     1 ALC1       29 GROUP        1 X    ALC  0     ROOT ALC X 1
     2 SEC2        4 GROUP        1 X    SEC  0     **** SEC X 2
     3 GLC5        1 GROUP        1 X    GLC  0     **** GLC X 6
     4 ALP1       31 GROUP        1 Y    ALP  0     ROOT ALP Y 8
     5 SEP2        6 GROUP        1 Y    SEP  0     **** SEP Y 9
     6 GLP5        3 GROUP        1 Y    GLP  0     **** GLP Y 13
     7 ALL1       30 GROUP        1 Z    ALL  0     ROOT ALL Z 15
     8 SEL2        5 GROUP        1 Z    SEL  0     **** SEL Z 16
     9 GLL5        2 GROUP        1 Z    GLL  0     **** GLL Z 20
@<TRIPOS>SET

