#    Name: 4f08_JAK_1_ligand
#    Modification time : Mon Mar 24 18:52:06 2014

@<TRIPOS>MOLECULE
4f08_JAK_1_ligand
   32    35     1     0     0
SMALL
NO_CHARGES


@<TRIPOS>ATOM
      1 C2         10.3890  -53.7910  -23.2710 C.2       1 JAK1201     0.0000 
      2 N3         11.0980  -53.0440  -24.0350 N.2       1 JAK1201     0.0000 
      3 C4         11.2200  -51.8420  -23.4720 C.ar      1 JAK1201     0.0000 
      4 C5         11.8720  -50.6940  -23.8730 C.ar      1 JAK1201     0.0000 
      5 N6         11.8450  -49.6350  -23.1330 N.ar      1 JAK1201     0.0000 
      6 C7         11.2050  -49.5860  -21.9890 C.ar      1 JAK1201     0.0000 
      7 C8         10.5180  -50.6970  -21.5090 C.ar      1 JAK1201     0.0000 
      8 C9         10.5210  -51.8670  -22.2650 C.ar      1 JAK1201     0.0000 
      9 N10        10.0020  -53.1230  -22.1720 N.pl3     1 JAK1201     0.0000 
     10 C11         9.1960  -53.7450  -21.1370 C.3       1 JAK1201     0.0000 
     11 C12         7.7160  -53.4350  -21.1330 C.3       1 JAK1201     0.0000 
     12 C13         7.0830  -54.5680  -20.3380 C.3       1 JAK1201     0.0000 
     13 N14         7.6480  -54.6270  -18.9930 N.4       1 JAK1201     0.0000 
     14 C15         9.0910  -54.8460  -18.9870 C.3       1 JAK1201     0.0000 
     15 C16         9.7580  -53.7040  -19.7330 C.3       1 JAK1201     0.0000 
     16 C17         9.9440  -50.2830  -20.2420 C.2       1 JAK1201     0.0000 
     17 C18        10.2970  -49.0140  -20.0490 C.2       1 JAK1201     0.0000 
     18 N19        11.0550  -48.5850  -21.0830 N.pl3     1 JAK1201     0.0000 
     19 H          10.1403  -54.7408  -23.4391 H         1 JAK1201     0.0000 
     20 H          12.3815  -50.7209  -24.7904 H         1 JAK1201     0.0000 
     21 H           9.2137  -54.9074  -21.3817 H         1 JAK1201     0.0000 
     22 H           7.3381  -53.4418  -22.1305 H         1 JAK1201     0.0000 
     23 H           7.5380  -52.5067  -20.6386 H         1 JAK1201     0.0000 
     24 H           7.2584  -55.5066  -20.8758 H         1 JAK1201     0.0000 
     25 H           6.0009  -54.3993  -20.2990 H         1 JAK1201     0.0000 
     26 H           9.3455  -55.7807  -19.4834 H         1 JAK1201     0.0000 
     27 H           9.4776  -54.8690  -17.9697 H         1 JAK1201     0.0000 
     28 H           9.5072  -52.7732  -19.2667 H         1 JAK1201     0.0000 
     29 H          10.8171  -53.8601  -19.7593 H         1 JAK1201     0.0000 
     30 H           9.4264  -50.8599  -19.7059 H         1 JAK1201     0.0000 
     31 H          10.0508  -48.4641  -19.2784 H         1 JAK1201     0.0000 
     32 H          11.4368  -47.6951  -21.1686 H         1 JAK1201     0.0000 
@<TRIPOS>BOND
     1    2    1 2    
     2    9    1 1    
     3   19    1 1    
     4    3    2 1    
     5    4    3 ar   
     6    8    3 ar   
     7    5    4 ar   
     8   20    4 1    
     9    6    5 ar   
    10    7    6 ar   
    11   18    6 1    
    12    8    7 ar   
    13   16    7 1    
    14    9    8 1    
    15   10    9 1    
    16   11   10 1    
    17   15   10 1    
    18   21   10 1    
    19   12   11 1    
    20   22   11 1    
    21   23   11 1    
    22   13   12 1    
    23   24   12 1    
    24   25   12 1    
    25   14   13 1    
    26   15   14 1    
    27   26   14 1    
    28   27   14 1    
    29   28   15 1    
    30   29   15 1    
    31   17   16 2    
    32   30   16 1    
    33   18   17 1    
    34   31   17 1    
    35   32   18 1    
@<TRIPOS>SUBSTRUCTURE
     1 JAK1201     1 GROUP   
@<TRIPOS>SET

