#    Name: 3rv7_RVB_1_INTS_M
#    Modification time : Tue Mar 25 12:01:58 2014

@<TRIPOS>MOLECULE
3rv7_RVB_1_INTS_M
   44     0     9     0     0
SMALL
NO_CHARGES


@<TRIPOS>ATOM
      1 CA         42.5735   -3.6145   38.4725 C.3       3 GLC5        0.0000 
      2 CA         41.5620   -1.7870   38.9920 C.3       9 GLL5        0.0000 
      3 CA         43.5850   -5.4420   37.9530 C.3       6 GLP5        0.0000 
      4 CA         43.7465   -3.3105   38.4595 C.3       3 GLC5        0.0000 
      5 CA         43.9080   -1.1790   38.9660 C.3       9 GLL5        0.0000 
      6 CA         44.8210   -2.1105   39.7835 C.3       3 GLC5        0.0000 
      7 CA         45.7340   -3.0420   40.6010 C.3       6 GLP5        0.0000 
      8 NZ         39.9240    4.3875   38.2340 N.4       2 LYC4        0.0000 
      9 NZ         40.8970    3.7960   39.2690 N.4       8 LYL4        0.0000 
     10 NZ         38.9510    4.9790   37.1990 N.4       5 LYP4        0.0000 
     11 N          36.8940    1.8020   32.4550 N.am      1 SEC2        0.0000 
     12 N          37.9840    2.3730   32.9350 N.am      7 SEL2        0.0000 
     13 N          35.8040    1.2310   31.9750 N.am      4 SEP2        0.0000 
     14 N          37.1635    3.4220   32.7045 N.am      1 SEC2        0.0000 
     15 N          36.3430    4.4710   32.4740 N.am      4 SEP2        0.0000 
     16 CA         43.5220    1.2865   40.7340 C.3       3 GLC5        0.0000 
     17 CA         42.2330    0.5590   39.3680 C.3       9 GLL5        0.0000 
     18 CA         44.8110    2.0140   42.1000 C.3       6 GLP5        0.0000 
     19 CA         36.5360    2.9825   34.4595 C.3       3 GLC5        0.0000 
     20 CA         37.8360    1.5060   35.5350 C.3       9 GLL5        0.0000 
     21 CA         35.2360    4.4590   33.3840 C.3       6 GLP5        0.0000 
     22 CA         40.9655    3.3325   37.5885 C.3       3 GLC5        0.0000 
     23 CA         41.7500    1.6260   38.7410 C.3       9 GLL5        0.0000 
     24 CA         40.1810    5.0390   36.4360 C.3       6 GLP5        0.0000 
     25 CA         42.9935   -2.0057   40.5190 C.3       3 GLC5        0.0000 
     26 CA         43.9420   -2.7690   42.2480 C.3       6 GLP5        0.0000 
     27 CA         44.1345   -1.2923   37.2815 C.3       3 GLC5        0.0000 
     28 CA         42.5280   -0.6980   38.5880 C.3       9 GLL5        0.0000 
     29 CA         45.0510   -1.6460   35.7860 C.3       6 GLP5        0.0000 
     30 CA         40.6235   -1.2344   39.0680 C.3       3 GLC5        0.0000 
     31 CA         39.1080   -2.1270   39.0570 C.3       6 GLP5        0.0000 
     32 CA         35.6940    1.0670   36.1517 C.3       3 GLC5        0.0000 
     33 CA         37.9120    1.1060   36.8580 C.3       9 GLL5        0.0000 
     34 CA         33.5140    0.8280   36.1070 C.3       6 GLP5        0.0000 
     35 CA         39.2735   -0.2070   35.9102 C.3       3 GLC5        0.0000 
     36 CA         39.1200    1.1120   37.5470 C.3       9 GLL5        0.0000 
     37 CA         40.0310   -1.5230   34.6180 C.3       6 GLP5        0.0000 
     38 CA         39.2215    0.0953   34.9160 C.3       3 GLC5        0.0000 
     39 CA         38.9880    1.9210   34.8930 C.3       9 GLL5        0.0000 
     40 CA         40.1235    0.1050   35.4325 C.3       3 GLC5        0.0000 
     41 CA         40.1640    1.9260   35.5960 C.3       9 GLL5        0.0000 
     42 CA         39.2500   -0.4012   38.0536 C.3       3 GLC5        0.0000 
     43 CA         40.2680    1.5400   36.8980 C.3       9 GLL5        0.0000 
     44 CA         39.6757    3.3544   36.1238 C.3       3 GLC5        0.0000 
@<TRIPOS>BOND
@<TRIPOS>SUBSTRUCTURE
     1 SEC2       11 GROUP        1 X    SEC  0     ROOT SEC X 2
     2 LYC4        8 GROUP        1 X    LYC  0     **** LYC X 4
     3 GLC5        1 GROUP        1 X    GLC  0     **** GLC X 6
     4 SEP2       13 GROUP        1 Y    SEP  0     ROOT SEP Y 9
     5 LYP4       10 GROUP        1 Y    LYP  0     **** LYP Y 11
     6 GLP5        3 GROUP        1 Y    GLP  0     **** GLP Y 13
     7 SEL2       12 GROUP        1 Z    SEL  0     ROOT SEL Z 16
     8 LYL4        9 GROUP        1 Z    LYL  0     **** LYL Z 18
     9 GLL5        2 GROUP        1 Z    GLL  0     **** GLL Z 20
@<TRIPOS>SET

