#    Name: 3rv7_RVB_1_ligand
#    Modification time : Tue Mar 25 12:01:58 2014

@<TRIPOS>MOLECULE
3rv7_RVB_1_ligand
   31    31     1     0     0
SMALL
NO_CHARGES


@<TRIPOS>ATOM
      1 C10        41.5620   -1.7870   38.9920 C.3       1 RVB451      0.0000 
      2 C11        43.9080   -1.1790   38.9660 C.3       1 RVB451      0.0000 
      3 OA'        40.8970    3.7960   39.2690 O.co2     1 RVB451      0.0000 
      4 OA         40.0560    2.6620   33.0550 O.co2     1 RVB451      0.0000 
      5 OB'        40.4960    2.2320   40.6920 O.co2     1 RVB451      0.0000 
      6 OB         37.9840    2.3730   32.9350 O.co2     1 RVB451      0.0000 
      7 O2         41.2690    2.3280   34.9780 O.3       1 RVB451      0.0000 
      8 C8         42.2330    0.5590   39.3680 C.2       1 RVB451      0.0000 
      9 C5         37.9120    1.1060   36.8580 C.ar      1 RVB451      0.0000 
     10 C4         39.1200    1.1120   37.5470 C.ar      1 RVB451      0.0000 
     11 C6         37.8360    1.5060   35.5350 C.ar      1 RVB451      0.0000 
     12 O3         41.5340    1.6050   37.4060 O.3       1 RVB451      0.0000 
     13 C'         40.9870    2.6110   39.6100 C.2       1 RVB451      0.0000 
     14 C          39.0030    2.3320   33.5860 C.2       1 RVB451      0.0000 
     15 C7         41.7500    1.6260   38.7410 C.2       1 RVB451      0.0000 
     16 C2         40.1640    1.9260   35.5960 C.ar      1 RVB451      0.0000 
     17 C3         40.2680    1.5400   36.8980 C.ar      1 RVB451      0.0000 
     18 C1         38.9880    1.9210   34.8930 C.ar      1 RVB451      0.0000 
     19 C9         42.5280   -0.6980   38.5880 C.3       1 RVB451      0.0000 
     20 H          42.4307    0.5092   40.3678 H         1 RVB451      0.0000 
     21 H          37.0510    0.7946   37.3485 H         1 RVB451      0.0000 
     22 H          39.1592    0.8035   38.5223 H         1 RVB451      0.0000 
     23 H          36.9400    1.4944   35.0401 H         1 RVB451      0.0000 
     24 H          42.4754   -0.5234   37.5568 H         1 RVB451      0.0000 
     25 H          41.7565   -2.6487   38.5233 H         1 RVB451      0.0000 
     26 H          41.6007   -1.9722   39.9739 H         1 RVB451      0.0000 
     27 H          40.6164   -1.5432   38.7767 H         1 RVB451      0.0000 
     28 H          44.6122   -0.5091   38.7308 H         1 RVB451      0.0000 
     29 H          43.9848   -1.3525   39.9478 H         1 RVB451      0.0000 
     30 H          44.1456   -2.0304   38.4984 H         1 RVB451      0.0000 
     31 H          40.9600    3.0045   34.3095 H         1 RVB451      0.0000 
@<TRIPOS>BOND
     1   19    1 1    
     2   25    1 1    
     3   26    1 1    
     4   27    1 1    
     5   19    2 1    
     6   28    2 1    
     7   29    2 1    
     8   30    2 1    
     9   13    3 ar   
    10   14    4 ar   
    11   13    5 ar   
    12   14    6 ar   
    13   16    7 1    
    14   31    7 1    
    15   15    8 2    
    16   19    8 1    
    17   20    8 1    
    18   10    9 ar   
    19   11    9 ar   
    20   21    9 1    
    21   17   10 ar   
    22   22   10 1    
    23   18   11 ar   
    24   23   11 1    
    25   15   12 1    
    26   17   12 1    
    27   15   13 1    
    28   18   14 1    
    29   17   16 ar   
    30   18   16 ar   
    31   24   19 1    
@<TRIPOS>SUBSTRUCTURE
     1 RVB451      1 GROUP   
@<TRIPOS>SET

