#    Name: 3blo_QEI_1_INTS_M
#    Modification time : Mon Mar 24 19:50:50 2014

@<TRIPOS>MOLECULE
3blo_QEI_1_INTS_M
   33     0     9     0     0
SMALL
NO_CHARGES


@<TRIPOS>ATOM
      1 CA         18.7560   24.0485   21.3160 C.3       3 GLC5        0.0000 
      2 CA         19.6460   23.3230   19.3980 C.3       9 GLL5        0.0000 
      3 CA         17.8660   24.7740   23.2340 C.3       6 GLP5        0.0000 
      4 CA         21.5190   18.9945   21.0085 C.3       3 GLC5        0.0000 
      5 CA         20.2130   18.4860   19.5250 C.3       9 GLL5        0.0000 
      6 CA         22.8250   19.5030   22.4920 C.3       6 GLP5        0.0000 
      7 CA         22.3360   18.5490   19.3320 C.3       3 GLC5        0.0000 
      8 CA         24.4590   18.6120   19.1390 C.3       6 GLP5        0.0000 
      9 CA         15.1180   19.0815   20.8400 C.3       3 GLC5        0.0000 
     10 CA         16.7050   17.7430   20.4400 C.3       9 GLL5        0.0000 
     11 CA         13.5310   20.4200   21.2400 C.3       6 GLP5        0.0000 
     12 CA         18.1310   16.5240   17.2335 C.3       3 GLC5        0.0000 
     13 CA         17.9060   17.9680   18.5970 C.3       9 GLL5        0.0000 
     14 CA         18.3560   15.0800   15.8700 C.3       6 GLP5        0.0000 
     15 O          15.1925   18.1885   25.1520 O.2       1 ALC1        0.0000 
     16 O          14.9610   17.9520   23.4710 O.2       7 ALL1        0.0000 
     17 O          15.4240   18.4250   26.8330 O.2       4 ALP1        0.0000 
     18 O          17.4320   17.9985   24.8350 O.2       1 ALC1        0.0000 
     19 O          17.2900   17.9300   23.1870 O.2       7 ALL1        0.0000 
     20 O          17.5740   18.0670   26.4830 O.2       4 ALP1        0.0000 
     21 N          20.7170   18.3355   22.7015 N.am      2 SEC2        0.0000 
     22 N          19.3950   18.3730   22.7520 N.am      8 SEL2        0.0000 
     23 N          22.0390   18.2980   22.6510 N.am      5 SEP2        0.0000 
     24 CA         21.7800   20.6335   20.9712 C.3       3 GLC5        0.0000 
     25 CA         20.6790   21.1030   19.0480 C.3       9 GLL5        0.0000 
     26 CA         17.8925   22.4083   18.9742 C.3       3 GLC5        0.0000 
     27 CA         19.6820   21.4840   17.9680 C.3       9 GLL5        0.0000 
     28 CA         16.2500   22.1100   19.2290 C.3       6 GLP5        0.0000 
     29 CA         21.5478   22.3925   17.3859 C.3       3 GLC5        0.0000 
     30 CA         23.0160   22.8580   16.0260 C.3       6 GLP5        0.0000 
     31 CA         18.2538   16.0101   20.1076 C.3       3 GLC5        0.0000 
     32 CA         18.7820   18.1790   19.6530 C.3       9 GLL5        0.0000 
     33 CA         18.6480   14.0370   20.3190 C.3       6 GLP5        0.0000 
@<TRIPOS>BOND
@<TRIPOS>SUBSTRUCTURE
     1 ALC1       15 GROUP        1 X    ALC  0     ROOT ALC X 1
     2 SEC2       21 GROUP        1 X    SEC  0     **** SEC X 2
     3 GLC5        1 GROUP        1 X    GLC  0     **** GLC X 6
     4 ALP1       17 GROUP        1 Y    ALP  0     ROOT ALP Y 8
     5 SEP2       23 GROUP        1 Y    SEP  0     **** SEP Y 9
     6 GLP5        3 GROUP        1 Y    GLP  0     **** GLP Y 13
     7 ALL1       16 GROUP        1 Z    ALL  0     ROOT ALL Z 15
     8 SEL2       22 GROUP        1 Z    SEL  0     **** SEL Z 16
     9 GLL5        2 GROUP        1 Z    GLL  0     **** GLL Z 20
@<TRIPOS>SET

