#    Name: 3blo_QEI_1_ligand
#    Modification time : Mon Mar 24 19:50:50 2014

@<TRIPOS>MOLECULE
3blo_QEI_1_ligand
   34    36     1     0     0
SMALL
NO_CHARGES


@<TRIPOS>ATOM
      1 C1         20.6790   21.1030   19.0480 C.3       1 QEI600      0.0000 
      2 C2         20.7910   22.4250   19.8530 C.3       1 QEI600      0.0000 
      3 C3         19.6820   21.4840   17.9680 C.2       1 QEI600      0.0000 
      4 C4         19.6460   23.3230   19.3980 C.3       1 QEI600      0.0000 
      5 C5         19.1660   22.6960   18.1140 C.2       1 QEI600      0.0000 
      6 C6         20.2130   18.4860   19.5250 C.3       1 QEI600      0.0000 
      7 C9         18.0450   18.0430   20.8950 C.2       1 QEI600      0.0000 
      8 C10        16.7050   17.7430   20.4400 C.2       1 QEI600      0.0000 
      9 C11        18.2900   18.1290   22.3370 C.2       1 QEI600      0.0000 
     10 O1         22.0000   23.1280   19.5690 O.3       1 QEI600      0.0000 
     11 O2         20.1580   24.6150   19.1470 O.3       1 QEI600      0.0000 
     12 N1         20.0630   19.9670   19.8100 N.4       1 QEI600      0.0000 
     13 C7         18.7820   18.1790   19.6530 C.2       1 QEI600      0.0000 
     14 C8         17.9060   17.9680   18.5970 C.2       1 QEI600      0.0000 
     15 N2         16.6920   17.7170   19.0840 N.pl3     1 QEI600      0.0000 
     16 N3         15.7800   17.5620   21.4120 N.2       1 QEI600      0.0000 
     17 C12        16.0510   17.6510   22.7220 C.2       1 QEI600      0.0000 
     18 N5         14.9610   17.9520   23.4710 N.pl3     1 QEI600      0.0000 
     19 N4         17.2900   17.9300   23.1870 N.am      1 QEI600      0.0000 
     20 O3         19.3950   18.3730   22.7520 O.2       1 QEI600      0.0000 
     21 H          21.5837   20.8692   18.6106 H         1 QEI600      0.0000 
     22 H          20.6627   22.2145   20.8812 H         1 QEI600      0.0000 
     23 H          19.5021   20.8240   17.2668 H         1 QEI600      0.0000 
     24 H          18.8841   23.2897   20.1159 H         1 QEI600      0.0000 
     25 H          18.5703   23.1875   17.5480 H         1 QEI600      0.0000 
     26 H          20.7669   18.0407   20.2815 H         1 QEI600      0.0000 
     27 H          20.5455   18.3513   18.5510 H         1 QEI600      0.0000 
     28 H          18.1669   18.0044   17.6679 H         1 QEI600      0.0000 
     29 H          15.8897   17.5364   18.5469 H         1 QEI600      0.0000 
     30 H          15.1146   18.0423   24.4550 H         1 QEI600      0.0000 
     31 H          14.1002   18.0570   22.9730 H         1 QEI600      0.0000 
     32 H          17.4487   17.9865   24.2189 H         1 QEI600      0.0000 
     33 H          21.7073   23.9867   19.1484 H         1 QEI600      0.0000 
     34 H          20.0266   24.7593   18.1663 H         1 QEI600      0.0000 
@<TRIPOS>BOND
     1    2    1 1    
     2    3    1 1    
     3   12    1 1    
     4   21    1 1    
     5    4    2 1    
     6   10    2 1    
     7   22    2 1    
     8    5    3 2    
     9   23    3 1    
    10    5    4 1    
    11   11    4 1    
    12   24    4 1    
    13   25    5 1    
    14   12    6 1    
    15   13    6 1    
    16   26    6 1    
    17   27    6 1    
    18    8    7 2    
    19    9    7 1    
    20   13    7 1    
    21   15    8 1    
    22   16    8 1    
    23   19    9 am   
    24   20    9 2    
    25   33   10 1    
    26   34   11 1    
    27   14   13 2    
    28   15   14 1    
    29   28   14 1    
    30   29   15 1    
    31   17   16 2    
    32   18   17 1    
    33   19   17 1    
    34   30   18 1    
    35   31   18 1    
    36   32   19 1    
@<TRIPOS>SUBSTRUCTURE
     1 QEI600      1 GROUP   
@<TRIPOS>SET

