#    Name: 4g1y_0VO_1_INTS_M
#    Modification time : Mon Mar 24 21:12:49 2014

@<TRIPOS>MOLECULE
4g1y_0VO_1_INTS_M
  107     0     9     0     0
SMALL
NO_CHARGES


@<TRIPOS>ATOM
      1 CA          4.2130   30.7690   40.9880 C.3       3 GLC5        0.0000 
      2 CA          3.4400   30.1000   39.1370 C.3       9 GLL5        0.0000 
      3 CA          4.9860   31.4380   42.8390 C.3       6 GLP5        0.0000 
      4 CA         -1.0980   35.5805   40.4460 C.3       3 GLC5        0.0000 
      5 CA          0.0450   35.1700   38.9980 C.3       9 GLL5        0.0000 
      6 CA         -2.2410   35.9910   41.8940 C.3       6 GLP5        0.0000 
      7 CA          5.3785   29.9140   37.9400 C.3       3 GLC5        0.0000 
      8 CA          3.7440   29.7270   36.5530 C.3       9 GLL5        0.0000 
      9 CA          7.0130   30.1010   39.3270 C.3       6 GLP5        0.0000 
     10 CA          4.9490   28.1990   37.1570 C.3       3 GLC5        0.0000 
     11 CA          6.1540   26.6710   37.7610 C.3       6 GLP5        0.0000 
     12 CA          6.3980   31.2095   33.3355 C.3       3 GLC5        0.0000 
     13 CA          5.8880   29.3550   32.7710 C.3       9 GLL5        0.0000 
     14 CA          6.9080   33.0640   33.9000 C.3       6 GLP5        0.0000 
     15 CA          7.2900   27.8540   32.1395 C.3       3 GLC5        0.0000 
     16 CA          8.6920   26.3530   31.5080 C.3       6 GLP5        0.0000 
     17 CA          0.6195   37.1835   40.1345 C.3       3 GLC5        0.0000 
     18 CA         -0.4440   37.7940   38.5370 C.3       9 GLL5        0.0000 
     19 CA          1.6830   36.5730   41.7320 C.3       6 GLP5        0.0000 
     20 CA         -2.3390   37.0030   39.4095 C.3       3 GLC5        0.0000 
     21 CA         -4.2340   36.2120   40.2820 C.3       6 GLP5        0.0000 
     22 CA          0.6335   42.0270   40.2170 C.3       3 GLC5        0.0000 
     23 CA         -0.1440   40.2800   39.1790 C.3       9 GLL5        0.0000 
     24 CA          1.4110   43.7740   41.2550 C.3       6 GLP5        0.0000 
     25 CA         -0.8345   41.8410   38.9665 C.3       3 GLC5        0.0000 
     26 CA         -1.5250   43.4020   38.7540 C.3       6 GLP5        0.0000 
     27 CA         -1.5790   40.4620   40.3445 C.3       3 GLC5        0.0000 
     28 CA         -3.0140   40.6440   41.5100 C.3       6 GLP5        0.0000 
     29 N           0.2530   41.7590   40.9820 N.am      2 SEC2        0.0000 
     30 N           0.2130   40.5350   40.5530 N.am      8 SEL2        0.0000 
     31 N           0.2930   42.9830   41.4110 N.am      5 SEP2        0.0000 
     32 O          -1.1460   39.9420   40.8985 O.2       1 ALC1        0.0000 
     33 O           0.2130   40.5350   40.5530 O.2       7 ALL1        0.0000 
     34 O          -2.5050   39.3490   41.2440 O.2       4 ALP1        0.0000 
     35 CA          2.8380   41.5535   39.8725 C.3       3 GLC5        0.0000 
     36 CA          3.0100   39.9190   38.5360 C.3       9 GLL5        0.0000 
     37 CA          2.6660   43.1880   41.2090 C.3       6 GLP5        0.0000 
     38 CA          4.3360   39.6950   39.9560 C.3       3 GLC5        0.0000 
     39 CA          5.6620   39.4710   41.3760 C.3       6 GLP5        0.0000 
     40 CA          2.3555   38.9410   40.4480 C.3       3 GLC5        0.0000 
     41 CA          1.7010   37.9630   42.3600 C.3       6 GLP5        0.0000 
     42 N           5.0800   40.5505   38.4815 N.am      2 SEC2        0.0000 
     43 N           4.3460   39.4550   38.1820 N.am      8 SEL2        0.0000 
     44 N           5.8140   41.6460   38.7810 N.am      5 SEP2        0.0000 
     45 O           4.7065   38.8890   36.9740 O.2       1 ALC1        0.0000 
     46 O           4.3460   39.4550   38.1820 O.2       7 ALL1        0.0000 
     47 O           5.0670   38.3230   35.7660 O.2       4 ALP1        0.0000 
     48 N           4.2465   26.6490   35.0985 N.am      2 SEC2        0.0000 
     49 N           5.2170   27.5910   34.3590 N.am      8 SEL2        0.0000 
     50 N           3.2760   25.7070   35.8380 N.am      5 SEP2        0.0000 
     51 N           6.0290   27.4005   35.5300 N.am      2 SEC2        0.0000 
     52 N           6.8410   27.2100   36.7010 N.am      5 SEP2        0.0000 
     53 CA          1.1810   26.7600   32.5360 C.3       3 GLC5        0.0000 
     54 CA          3.2190   26.4050   32.6950 C.3       9 GLL5        0.0000 
     55 CA         -0.8570   27.1150   32.3770 C.3       6 GLP5        0.0000 
     56 CA          2.5635   26.0435   34.3310 C.3       3 GLC5        0.0000 
     57 CA          1.9080   25.6820   35.9670 C.3       6 GLP5        0.0000 
     58 CA          4.6690   31.2795   30.3480 C.3       3 GLC5        0.0000 
     59 CA          5.5840   30.2240   31.5230 C.3       9 GLL5        0.0000 
     60 CA          3.7540   32.3350   29.1730 C.3       6 GLP5        0.0000 
     61 CA          5.5750   31.8400   32.4160 C.3       3 GLC5        0.0000 
     62 CA          5.5660   33.4560   33.3090 C.3       6 GLP5        0.0000 
     63 CA          5.9195   29.0730   29.8965 C.3       3 GLC5        0.0000 
     64 CA          6.2550   27.9220   28.2700 C.3       6 GLP5        0.0000 
     65 CA          5.0915   28.8755   40.9520 C.3       3 GLC5        0.0000 
     66 CA          3.8110   28.6660   39.5600 C.3       9 GLL5        0.0000 
     67 CA          6.3720   29.0850   42.3440 C.3       6 GLP5        0.0000 
     68 CA          3.4575   26.5275   39.7420 C.3       3 GLC5        0.0000 
     69 CA          3.1040   24.3890   39.9240 C.3       6 GLP5        0.0000 
     70 CA          4.9825   27.6685   38.6605 C.3       3 GLC5        0.0000 
     71 CA          1.7288   38.1855   36.2220 C.3       3 GLC5        0.0000 
     72 CA          2.4390   37.5410   37.9750 C.3       9 GLL5        0.0000 
     73 CA          1.2600   38.1900   34.2510 C.3       6 GLP5        0.0000 
     74 CA          3.7353   36.0102   38.4080 C.3       3 GLC5        0.0000 
     75 CA          5.4560   35.0230   38.9200 C.3       6 GLP5        0.0000 
     76 CA          0.8842   36.2057   40.1358 C.3       3 GLC5        0.0000 
     77 CA          0.1260   36.5070   38.0810 C.3       9 GLL5        0.0000 
     78 CA          2.2428   29.0165   40.7647 C.3       3 GLC5        0.0000 
     79 CA          0.8600   28.6500   42.1810 C.3       6 GLP5        0.0000 
     80 CA          3.9510   31.1560   35.0810 C.3       3 GLC5        0.0000 
     81 CA          4.4490   32.8940   34.1760 C.3       6 GLP5        0.0000 
     82 CA          2.6805   27.5500   35.9765 C.3       3 GLC5        0.0000 
     83 CA          4.2945   30.9180   33.9387 C.3       3 GLC5        0.0000 
     84 CA          3.5910   29.3850   34.0360 C.3       9 GLL5        0.0000 
     85 CA         -0.1867   28.8535   37.4562 C.3       3 GLC5        0.0000 
     86 CA          1.4460   30.5160   37.5490 C.3       9 GLL5        0.0000 
     87 CA         -1.4060   27.5400   36.8420 C.3       6 GLP5        0.0000 
     88 CA          0.5015   29.4307   40.5885 C.3       3 GLC5        0.0000 
     89 CA          0.6190   29.8180   38.5920 C.3       9 GLL5        0.0000 
     90 CA          7.4280   30.0817   31.2520 C.3       3 GLC5        0.0000 
     91 CA          9.1200   30.3740   30.3570 C.3       6 GLP5        0.0000 
     92 CA          1.8341   37.2411   39.9428 C.3       3 GLC5        0.0000 
     93 CA          0.9285   38.7972   40.6530 C.3       3 GLC5        0.0000 
     94 CA          0.4560   38.9830   38.7130 C.3       9 GLL5        0.0000 
     95 CA         -0.0375   36.6931   36.3865 C.3       3 GLC5        0.0000 
     96 CA         -0.2820   36.2490   34.5300 C.3       6 GLP5        0.0000 
     97 CA         -1.8485   39.5056   38.2315 C.3       3 GLC5        0.0000 
     98 CA         -3.6280   39.6770   37.5610 C.3       6 GLP5        0.0000 
     99 CA         -1.7365   30.3447   38.2767 C.3       3 GLC5        0.0000 
    100 CA         -0.4850   32.0400   39.2050 C.3       9 GLL5        0.0000 
    101 CA         -3.0640   29.3670   37.2510 C.3       6 GLP5        0.0000 
    102 CA          2.8093   26.9353   30.5595 C.3       3 GLC5        0.0000 
    103 CA          1.9940   26.8640   28.6580 C.3       6 GLP5        0.0000 
    104 CA          4.1063   25.6043   31.4155 C.3       3 GLC5        0.0000 
    105 CA          4.0300   27.6080   32.2270 C.3       9 GLL5        0.0000 
    106 CA          4.5880   24.2020   30.3700 C.3       6 GLP5        0.0000 
    107 CA          5.2447   29.7432   39.1674 C.3       3 GLC5        0.0000 
@<TRIPOS>BOND
@<TRIPOS>SUBSTRUCTURE
     1 ALC1       32 GROUP        1 X    ALC  0     ROOT ALC X 1
     2 SEC2       29 GROUP        1 X    SEC  0     **** SEC X 2
     3 GLC5        1 GROUP        1 X    GLC  0     **** GLC X 6
     4 ALP1       34 GROUP        1 Y    ALP  0     ROOT ALP Y 8
     5 SEP2       31 GROUP        1 Y    SEP  0     **** SEP Y 9
     6 GLP5        3 GROUP        1 Y    GLP  0     **** GLP Y 13
     7 ALL1       33 GROUP        1 Z    ALL  0     ROOT ALL Z 15
     8 SEL2       30 GROUP        1 Z    SEL  0     **** SEL Z 16
     9 GLL5        2 GROUP        1 Z    GLL  0     **** GLL Z 20
@<TRIPOS>SET

