#    Name: 4g1y_0VO_1_ligand
#    Modification time : Mon Mar 24 21:12:50 2014

@<TRIPOS>MOLECULE
4g1y_0VO_1_ligand
   64    65     1     0     0
SMALL
NO_CHARGES


@<TRIPOS>ATOM
      1 C1          2.4390   37.5410   37.9750 C.ar      1 0VO501      0.0000 
      2 C5          0.1260   36.5070   38.0810 C.ar      1 0VO501      0.0000 
      3 C6          1.5900   36.4540   37.8170 C.ar      1 0VO501      0.0000 
      4 C7          2.8440   30.1100   37.7740 C.2       1 0VO501      0.0000 
      5 C9          3.4400   30.1000   39.1370 C.3       1 0VO501      0.0000 
      6 C10         0.0450   35.1700   38.9980 C.3       1 0VO501      0.0000 
      7 C11         3.7440   29.7270   36.5530 C.2       1 0VO501      0.0000 
      8 C12         3.1620   29.1090   35.4190 C.2       1 0VO501      0.0000 
      9 C16         3.5910   29.3850   34.0360 C.2       1 0VO501      0.0000 
     10 C18         1.4460   30.5160   37.5490 C.ar      1 0VO501      0.0000 
     11 C19         0.6190   29.8180   38.5920 C.ar      1 0VO501      0.0000 
     12 C24         4.6890   28.4990   33.3670 C.3       1 0VO501      0.0000 
     13 C25         5.8880   29.3550   32.7710 C.3       1 0VO501      0.0000 
     14 C2          1.9560   38.8210   38.4110 C.ar      1 0VO501      0.0000 
     15 C3          0.4560   38.9830   38.7130 C.ar      1 0VO501      0.0000 
     16 C4         -0.4440   37.7940   38.5370 C.ar      1 0VO501      0.0000 
     17 C48        -0.1440   40.2800   39.1790 C.3       1 0VO501      0.0000 
     18 O49         0.2130   40.5350   40.5530 O.3       1 0VO501      0.0000 
     19 C52         3.0100   39.9190   38.5360 C.3       1 0VO501      0.0000 
     20 O53         4.3460   39.4550   38.1820 O.3       1 0VO501      0.0000 
     21 O1          0.2530   34.0970   37.9270 O.3       1 0VO501      0.0000 
     22 C14         0.3030   32.7390   38.2040 C.ar      1 0VO501      0.0000 
     23 C17         1.2840   31.9920   37.3590 C.ar      1 0VO501      0.0000 
     24 C20        -0.3330   30.6050   39.4000 C.ar      1 0VO501      0.0000 
     25 C21        -0.4850   32.0400   39.2050 C.ar      1 0VO501      0.0000 
     26 C26         4.0300   27.6080   32.2270 C.3       1 0VO501      0.0000 
     27 O2          5.2170   27.5910   34.3590 O.3       1 0VO501      0.0000 
     28 C28         3.2190   26.4050   32.6950 C.3       1 0VO501      0.0000 
     29 C29         5.5840   30.2240   31.5230 C.3       1 0VO501      0.0000 
     30 C8          3.8110   28.6660   39.5600 C.3       1 0VO501      0.0000 
     31 H           3.4499   37.4470   37.7785 H         1 0VO501      0.0000 
     32 H           1.9574   35.5351   37.4987 H         1 0VO501      0.0000 
     33 H           2.7323   30.5004   39.8654 H         1 0VO501      0.0000 
     34 H           4.3450   30.7101   39.1618 H         1 0VO501      0.0000 
     35 H          -0.9102   35.1233   39.3972 H         1 0VO501      0.0000 
     36 H           0.8404   35.1987   39.6617 H         1 0VO501      0.0000 
     37 H           4.7115   29.9431   36.6354 H         1 0VO501      0.0000 
     38 H           2.3949   28.4254   35.5432 H         1 0VO501      0.0000 
     39 H           3.2075   30.1206   33.5015 H         1 0VO501      0.0000 
     40 H           0.7202   28.8433   38.7261 H         1 0VO501      0.0000 
     41 H           6.7108   28.6534   32.5300 H         1 0VO501      0.0000 
     42 H           6.2662   30.0084   33.5818 H         1 0VO501      0.0000 
     43 H          -1.4136   37.8807   38.7278 H         1 0VO501      0.0000 
     44 H          -1.2357   40.2222   39.0605 H         1 0VO501      0.0000 
     45 H           0.2150   41.0864   38.5232 H         1 0VO501      0.0000 
     46 H           2.9893   40.2943   39.5744 H         1 0VO501      0.0000 
     47 H           2.7042   40.7598   37.8886 H         1 0VO501      0.0000 
     48 H           1.8223   32.4684   36.6794 H         1 0VO501      0.0000 
     49 H          -0.8876   30.1298   40.1017 H         1 0VO501      0.0000 
     50 H          -1.1460   32.5541   39.7726 H         1 0VO501      0.0000 
     51 H           4.8481   27.2708   31.5621 H         1 0VO501      0.0000 
     52 H           3.3900   28.2760   31.6193 H         1 0VO501      0.0000 
     53 H           3.7750   25.7667   33.2274 H         1 0VO501      0.0000 
     54 H           2.4505   26.6776   33.2738 H         1 0VO501      0.0000 
     55 H           2.8388   25.8914   31.9258 H         1 0VO501      0.0000 
     56 H           6.3909   30.7291   31.2166 H         1 0VO501      0.0000 
     57 H           5.2747   29.6693   30.7506 H         1 0VO501      0.0000 
     58 H           4.8680   30.8980   31.7052 H         1 0VO501      0.0000 
     59 H           4.4741   28.2542   38.9349 H         1 0VO501      0.0000 
     60 H           4.2155   28.6414   40.4742 H         1 0VO501      0.0000 
     61 H           3.0117   28.0652   39.5769 H         1 0VO501      0.0000 
     62 H          -0.5498   40.1743   41.0897 H         1 0VO501      0.0000 
     63 H           4.2612   39.1118   37.2466 H         1 0VO501      0.0000 
     64 H           5.2634   26.7114   33.8854 H         1 0VO501      0.0000 
@<TRIPOS>BOND
     1    3    1 ar   
     2   14    1 ar   
     3   31    1 1    
     4    3    2 ar   
     5    6    2 1    
     6   16    2 ar   
     7   32    3 1    
     8    5    4 1    
     9    7    4 2    
    10   10    4 1    
    11   30    5 1    
    12   33    5 1    
    13   34    5 1    
    14   21    6 1    
    15   35    6 1    
    16   36    6 1    
    17    8    7 1    
    18   37    7 1    
    19    9    8 2    
    20   38    8 1    
    21   12    9 1    
    22   39    9 1    
    23   11   10 ar   
    24   23   10 ar   
    25   24   11 ar   
    26   40   11 1    
    27   13   12 1    
    28   26   12 1    
    29   27   12 1    
    30   29   13 1    
    31   41   13 1    
    32   42   13 1    
    33   15   14 ar   
    34   19   14 1    
    35   16   15 ar   
    36   17   15 1    
    37   43   16 1    
    38   18   17 1    
    39   44   17 1    
    40   45   17 1    
    41   62   18 1    
    42   20   19 1    
    43   46   19 1    
    44   47   19 1    
    45   63   20 1    
    46   22   21 1    
    47   23   22 ar   
    48   25   22 ar   
    49   48   23 1    
    50   25   24 ar   
    51   49   24 1    
    52   50   25 1    
    53   28   26 1    
    54   51   26 1    
    55   52   26 1    
    56   64   27 1    
    57   53   28 1    
    58   54   28 1    
    59   55   28 1    
    60   56   29 1    
    61   57   29 1    
    62   58   29 1    
    63   59   30 1    
    64   60   30 1    
    65   61   30 1    
@<TRIPOS>SUBSTRUCTURE
     1 0VO501      1 GROUP   
@<TRIPOS>SET

