#    Name: 3mqe_416_2_INTS_M
#    Modification time : Mon Mar 24 23:36:42 2014

@<TRIPOS>MOLECULE
3mqe_416_2_INTS_M
   57     0     6     0     0
SMALL
NO_CHARGES


@<TRIPOS>ATOM
      1 CA         64.3540  -21.6575  -51.9970 C.3       2 GLC5        0.0000 
      2 CA         62.8950  -23.2500  -51.6800 C.3       6 GLL5        0.0000 
      3 CA         65.8130  -20.0650  -52.3140 C.3       4 GLP5        0.0000 
      4 CA         61.5455  -22.2405  -51.7235 C.3       2 GLC5        0.0000 
      5 CA         60.1960  -21.2310  -51.7670 C.3       4 GLP5        0.0000 
      6 CA         57.8045  -20.4690  -47.6060 C.3       2 GLC5        0.0000 
      7 CA         59.5210  -20.8070  -46.9210 C.3       6 GLL5        0.0000 
      8 CA         56.0880  -20.1310  -48.2910 C.3       4 GLP5        0.0000 
      9 CA         64.2305  -20.8480  -48.8700 C.3       2 GLC5        0.0000 
     10 CA         63.0700  -22.3850  -47.8300 C.3       6 GLL5        0.0000 
     11 CA         65.3910  -19.3110  -49.9100 C.3       4 GLP5        0.0000 
     12 CA         62.9000  -27.0625  -53.5335 C.3       2 GLC5        0.0000 
     13 CA         63.5030  -25.1700  -52.6010 C.3       6 GLL5        0.0000 
     14 CA         62.2970  -28.9550  -54.4660 C.3       4 GLP5        0.0000 
     15 CA         64.7810  -26.6615  -52.6920 C.3       2 GLC5        0.0000 
     16 CA         66.0590  -28.1530  -52.7830 C.3       4 GLP5        0.0000 
     17 CA         65.6835  -25.7280  -52.8060 C.3       2 GLC5        0.0000 
     18 CA         64.9750  -23.9540  -51.6730 C.3       6 GLL5        0.0000 
     19 CA         66.3920  -27.5020  -53.9390 C.3       4 GLP5        0.0000 
     20 CA         66.8030  -24.9150  -51.3975 C.3       2 GLC5        0.0000 
     21 CA         68.6310  -25.8760  -51.1220 C.3       4 GLP5        0.0000 
     22 CA         65.3940  -22.0095  -51.9935 C.3       2 GLC5        0.0000 
     23 N          59.2275  -26.7160  -51.1670 N.am      1 SEC2        0.0000 
     24 N          60.3390  -27.0320  -51.0510 N.am      5 SEL2        0.0000 
     25 N          58.1160  -26.4000  -51.2830 N.am      3 SEP2        0.0000 
     26 CA         60.5940  -23.0840  -50.6555 C.3       2 GLC5        0.0000 
     27 CA         60.9920  -24.9370  -49.5440 C.3       6 GLL5        0.0000 
     28 CA         63.8265  -19.1810  -48.5550 C.3       2 GLC5        0.0000 
     29 CA         62.2620  -19.0510  -47.2000 C.3       6 GLL5        0.0000 
     30 CA         61.4905  -19.6880  -48.9250 C.3       2 GLC5        0.0000 
     31 CA         60.7190  -20.3250  -50.6500 C.3       4 GLP5        0.0000 
     32 CA         64.6625  -21.4865  -44.7595 C.3       2 GLC5        0.0000 
     33 CA         64.1030  -20.2990  -46.2710 C.3       6 GLL5        0.0000 
     34 CA         65.2220  -22.6740  -43.2480 C.3       4 GLP5        0.0000 
     35 CA         64.5195  -19.1605  -44.8030 C.3       2 GLC5        0.0000 
     36 CA         64.9360  -18.0220  -43.3350 C.3       4 GLP5        0.0000 
     37 CA         64.7470  -19.8050  -48.0905 C.3       2 GLC5        0.0000 
     38 CA         63.5940  -21.5065  -44.1815 C.3       2 GLC5        0.0000 
     39 CA         61.9660  -20.3390  -45.1150 C.3       6 GLL5        0.0000 
     40 CA         64.4065  -26.5080  -49.2670 C.3       2 GLC5        0.0000 
     41 CA         63.3880  -25.0720  -50.2180 C.3       6 GLL5        0.0000 
     42 CA         65.4250  -27.9440  -48.3160 C.3       4 GLP5        0.0000 
     43 CA         60.4378  -20.8158  -48.9368 C.3       2 GLC5        0.0000 
     44 CA         60.7920  -21.8060  -47.5260 C.3       6 GLL5        0.0000 
     45 CA         62.7933  -23.3402  -53.4824 C.3       2 GLC5        0.0000 
     46 CA         62.1900  -22.1960  -54.8610 C.3       4 GLP5        0.0000 
     47 CA         61.1485  -26.0898  -48.3145 C.3       2 GLC5        0.0000 
     48 CA         60.8120  -26.9310  -46.7630 C.3       4 GLP5        0.0000 
     49 CA         59.8450  -25.2073  -50.9185 C.3       2 GLC5        0.0000 
     50 CA         58.2050  -25.1660  -51.9710 C.3       4 GLP5        0.0000 
     51 CA         63.0517  -19.3807  -44.2065 C.3       2 GLC5        0.0000 
     52 CA         62.6050  -20.3240  -46.4850 C.3       6 GLL5        0.0000 
     53 CA         63.8180  -18.4300  -42.6130 C.3       4 GLP5        0.0000 
     54 CA         61.4577  -21.5033  -49.3514 C.3       2 GLC5        0.0000 
     55 CA         61.6244  -23.8074  -46.7381 C.3       2 GLC5        0.0000 
     56 CA         61.3620  -23.7550  -48.7870 C.3       6 GLL5        0.0000 
     57 CA         61.5050  -24.9700  -45.4320 C.3       4 GLP5        0.0000 
@<TRIPOS>BOND
@<TRIPOS>SUBSTRUCTURE
     1 SEC2       23 GROUP        1 X    SEC  0     ROOT SEC X 2
     2 GLC5        1 GROUP        1 X    GLC  0     **** GLC X 6
     3 SEP2       25 GROUP        1 Y    SEP  0     ROOT SEP Y 9
     4 GLP5        3 GROUP        1 Y    GLP  0     **** GLP Y 13
     5 SEL2       24 GROUP        1 Z    SEL  0     ROOT SEL Z 16
     6 GLL5        2 GROUP        1 Z    GLL  0     **** GLL Z 20
@<TRIPOS>SET

