#    Name: 3mqe_416_2_ligand
#    Modification time : Mon Mar 24 23:36:42 2014

@<TRIPOS>MOLECULE
3mqe_416_2_ligand
   35    36     1     0     0
SMALL
NO_CHARGES


@<TRIPOS>ATOM
      1 C1         60.4090  -22.9100  -48.2600 C.ar      1 416701      0.0000 
      2 F1         62.8950  -23.2500  -51.6800 F         1 416701      0.0000 
      3 O1         63.7220  -24.2940  -49.0510 O.3       1 416701      0.0000 
      4 CL1        59.5210  -20.8070  -46.9210 Cl        1 416701      0.0000 
      5 C2         63.0700  -22.3850  -47.8300 C.ar      1 416701      0.0000 
      6 F2         63.5030  -25.1700  -52.6010 F         1 416701      0.0000 
      7 O2         62.5320  -27.5500  -51.2950 O.co2     1 416701      0.0000 
      8 C3         61.3620  -23.7550  -48.7870 C.ar      1 416701      0.0000 
      9 F3         64.9750  -23.9540  -51.6730 F         1 416701      0.0000 
     10 O3         60.3390  -27.0320  -51.0510 O.co2     1 416701      0.0000 
     11 C4         60.7920  -21.8060  -47.5260 C.ar      1 416701      0.0000 
     12 C5         62.1340  -21.5210  -47.2920 C.ar      1 416701      0.0000 
     13 C6         62.6960  -23.4880  -48.5660 C.ar      1 416701      0.0000 
     14 C7         60.9920  -24.9370  -49.5440 C.2       1 416701      0.0000 
     15 C8         62.6050  -20.3240  -46.4850 C.3       1 416701      0.0000 
     16 C9         62.2620  -19.0510  -47.2000 C.3       1 416701      0.0000 
     17 C10        64.1030  -20.2990  -46.2710 C.3       1 416701      0.0000 
     18 C11        61.9660  -20.3390  -45.1150 C.3       1 416701      0.0000 
     19 C12        61.9780  -25.5600  -50.1880 C.2       1 416701      0.0000 
     20 C13        61.5730  -26.8230  -50.9190 C.2       1 416701      0.0000 
     21 C14        63.3880  -25.0720  -50.2180 C.3       1 416701      0.0000 
     22 C15        63.6850  -24.3480  -51.5330 C.3       1 416701      0.0000 
     23 H          59.4060  -23.1029  -48.4144 H         1 416701      0.0000 
     24 H          64.0836  -22.1952  -47.6736 H         1 416701      0.0000 
     25 H          60.0294  -25.2227  -49.5459 H         1 416701      0.0000 
     26 H          64.0391  -25.9916  -50.2291 H         1 416701      0.0000 
     27 H          62.5621  -18.2455  -46.6889 H         1 416701      0.0000 
     28 H          62.6928  -19.0035  -48.1012 H         1 416701      0.0000 
     29 H          61.2764  -18.9582  -47.3410 H         1 416701      0.0000 
     30 H          64.6015  -20.2705  -47.1374 H         1 416701      0.0000 
     31 H          64.3893  -19.5003  -45.7417 H         1 416701      0.0000 
     32 H          64.4210  -21.1078  -45.7763 H         1 416701      0.0000 
     33 H          62.1976  -21.1682  -44.6062 H         1 416701      0.0000 
     34 H          62.2611  -19.5620  -44.5590 H         1 416701      0.0000 
     35 H          60.9684  -20.2979  -45.1700 H         1 416701      0.0000 
@<TRIPOS>BOND
     1    8    1 ar   
     2   11    1 ar   
     3   23    1 1    
     4   22    2 1    
     5   13    3 1    
     6   21    3 1    
     7   11    4 1    
     8   12    5 ar   
     9   13    5 ar   
    10   24    5 1    
    11   22    6 1    
    12   20    7 ar   
    13   13    8 ar   
    14   14    8 1    
    15   22    9 1    
    16   20   10 ar   
    17   12   11 ar   
    18   15   12 1    
    19   19   14 2    
    20   25   14 1    
    21   16   15 1    
    22   17   15 1    
    23   18   15 1    
    24   27   16 1    
    25   28   16 1    
    26   29   16 1    
    27   30   17 1    
    28   31   17 1    
    29   32   17 1    
    30   33   18 1    
    31   34   18 1    
    32   35   18 1    
    33   20   19 1    
    34   21   19 1    
    35   22   21 1    
    36   26   21 1    
@<TRIPOS>SUBSTRUCTURE
     1 416701      1 GROUP   
@<TRIPOS>SET

