#    Name: 3APX_1_CAVITY_N1_6.mol2
#    Modification time : Tue Mar 11 09:27:21 2014

@<TRIPOS>MOLECULE
3APX_1_CAVITY_N1_6.mol2
  131     0     7     0     0
SMALL
NO_CHARGES


@<TRIPOS>ATOM
      1 CA         -2.2032   -0.4782   16.3515 C.3       6 GLY6        0.0000 
      2 O          -1.6981   -1.4525   18.1669 O.2       2 ALA2        0.0000 
      3 O          -2.6691   -1.7184   17.0549 O.2       2 ALA2        0.0000 
      4 CZ         -3.7132   -0.9177   17.7751 C.ar      5 PHE5        0.0000 
      5 NZ         -8.5681   -2.2472   12.2153 N.2       4 LYS4        0.0000 
      6 CZ         -9.6122   -1.4465   12.9355 C.ar      5 PHE5        0.0000 
      7 CZ        -10.6563   -0.6457   13.6557 C.ar      5 PHE5        0.0000 
      8 CZ         -3.2081   -1.8919   19.5906 C.ar      5 PHE5        0.0000 
      9 CZ         -4.1791   -2.1579   18.4786 C.ar      5 PHE5        0.0000 
     10 CA         -4.1060   -3.2245   16.6464 C.3       6 GLY6        0.0000 
     11 NZ         -9.0341   -3.4874   12.9187 N.2       4 LYS4        0.0000 
     12 CZ        -10.0781   -2.6866   13.6389 C.ar      5 PHE5        0.0000 
     13 CA         -7.9169   -5.3548   10.3663 C.3       6 GLY6        0.0000 
     14 CA         -8.9610   -4.5541   11.0865 C.3       6 GLY6        0.0000 
     15 DU        -10.0050   -3.7533   11.8067 H         7 CUB7        0.0000 
     16 OG        -12.0932   -2.1518   13.2472 O.2       1 SER1        0.0000 
     17 DU         -9.9319   -4.8200    9.9746 H         7 CUB7        0.0000 
     18 DU        -12.0201   -3.2185   11.4150 H         7 CUB7        0.0000 
     19 N          -3.5279   -5.2655   16.6296 N.2       2 ALA2        0.0000 
     20 N          -4.5720   -4.4647   17.3498 N.2       2 ALA2        0.0000 
     21 NZ         -3.4548   -6.3321   14.7974 N.2       4 LYS4        0.0000 
     22 NZ         -4.4989   -5.5314   15.5177 N.2       4 LYS4        0.0000 
     23 OG         -5.5430   -4.7306   16.2379 O.2       1 SER1        0.0000 
     24 CZ         -8.5290   -4.4617   14.7341 C.ar      5 PHE5        0.0000 
     25 NZ         -8.4559   -5.5283   12.9019 N.2       4 LYS4        0.0000 
     26 CZ         -9.5000   -4.7276   13.6221 C.ar      5 PHE5        0.0000 
     27 CZ        -10.5441   -3.9268   14.3424 C.ar      5 PHE5        0.0000 
     28 O          -8.3828   -6.5950   11.0698 O.2       2 ALA2        0.0000 
     29 O          -9.4269   -5.7943   11.7900 O.2       2 ALA2        0.0000 
     30 DU        -10.4710   -4.9935   12.5102 H         7 CUB7        0.0000 
     31 OG        -11.5150   -4.1928   13.2304 O.2       1 SER1        0.0000 
     32 O          -9.3538   -6.8609    9.9578 O.2       2 ALA2        0.0000 
     33 N         -10.3979   -6.0602   10.6780 N.2       2 ALA2        0.0000 
     34 DU        -11.4420   -5.2594   11.3982 H         7 CUB7        0.0000 
     35 OG        -12.4860   -4.4587   12.1184 O.2       1 SER1        0.0000 
     36 OG        -13.5301   -3.6579   12.8386 O.2       1 SER1        0.0000 
     37 N         -11.3689   -6.3261    9.5660 N.2       2 ALA2        0.0000 
     38 N         -12.4129   -5.5253   10.2862 N.2       2 ALA2        0.0000 
     39 CA         -1.9057   -8.1072   15.8926 C.3       6 GLY6        0.0000 
     40 CA         -3.9938   -6.5057   17.3331 C.3       6 GLY6        0.0000 
     41 OG         -5.0379   -5.7049   18.0533 O.2       1 SER1        0.0000 
     42 CA         -2.8767   -8.3731   14.7807 C.3       6 GLY6        0.0000 
     43 NZ         -3.9207   -7.5723   15.5009 N.2       4 LYS4        0.0000 
     44 NZ         -4.9648   -6.7716   16.2211 N.2       4 LYS4        0.0000 
     45 OG         -6.0089   -5.9708   16.9413 O.2       1 SER1        0.0000 
     46 OG         -7.0530   -5.1701   17.6615 O.2       1 SER1        0.0000 
     47 O          -4.8917   -7.8382   14.3889 O.2       2 ALA2        0.0000 
     48 NZ         -5.9358   -7.0375   15.1091 N.2       4 LYS4        0.0000 
     49 NZ         -6.9799   -6.2367   15.8293 N.2       4 LYS4        0.0000 
     50 CZ         -8.0240   -5.4360   16.5495 C.ar      5 PHE5        0.0000 
     51 NZ         -7.9509   -6.5026   14.7173 N.2       4 LYS4        0.0000 
     52 CZ         -8.9949   -5.7019   15.4376 C.ar      5 PHE5        0.0000 
     53 CZ        -10.0390   -4.9011   16.1578 C.ar      5 PHE5        0.0000 
     54 O          -8.9218   -6.7685   13.6054 O.2       2 ALA2        0.0000 
     55 DU         -9.9659   -5.9678   14.3256 H         7 CUB7        0.0000 
     56 CA        -11.0100   -5.1670   15.0458 C.3       6 GLY6        0.0000 
     57 O          -8.8488   -7.8352   11.7732 O.2       2 ALA2        0.0000 
     58 O          -9.8928   -7.0345   12.4934 O.2       2 ALA2        0.0000 
     59 CA        -10.9369   -6.2337   13.2136 C.3       6 GLY6        0.0000 
     60 CA        -11.9810   -5.4329   13.9338 C.3       6 GLY6        0.0000 
     61 NZ         -9.8197   -8.1011   10.6612 N.2       4 LYS4        0.0000 
     62 O         -10.8638   -7.3004   11.3814 O.2       2 ALA2        0.0000 
     63 CA        -11.9079   -6.4996   12.1016 C.3       6 GLY6        0.0000 
     64 CA        -12.9520   -5.6989   12.8218 C.3       6 GLY6        0.0000 
     65 N         -13.9960   -4.8981   13.5421 N.2       2 ALA2        0.0000 
     66 CA         -4.4598   -7.7459   18.0365 C.3       6 GLY6        0.0000 
     67 CA         -2.2985  -10.4140   14.7639 C.3       6 GLY6        0.0000 
     68 CZ         -3.3426   -9.6133   15.4841 C.ar      5 PHE5        0.0000 
     69 CA         -4.3867   -8.8125   16.2043 C.3       6 GLY6        0.0000 
     70 CA         -5.4308   -8.0118   16.9245 C.3       6 GLY6        0.0000 
     71 OG         -6.4748   -7.2110   17.6447 O.2       1 SER1        0.0000 
     72 OG         -7.5189   -6.4103   18.3649 O.2       1 SER1        0.0000 
     73 O          -3.2695  -10.6799   13.6519 O.2       2 ALA2        0.0000 
     74 O          -4.3136   -9.8792   14.3721 O.2       2 ALA2        0.0000 
     75 OD1        -5.3577   -9.0784   15.0923 O.3       3 ASP3        0.0000 
     76 DU         -6.4017   -8.2777   15.8125 H         7 CUB7        0.0000 
     77 DU         -7.4458   -7.4769   16.5328 H         7 CUB7        0.0000 
     78 DU         -8.4899   -6.6762   17.2530 H         7 CUB7        0.0000 
     79 CZ         -9.5340   -5.8754   17.9732 C.ar      5 PHE5        0.0000 
     80 O          -6.3287   -9.3443   13.9804 O.2       2 ALA2        0.0000 
     81 O          -7.3727   -8.5436   14.7006 O.2       2 ALA2        0.0000 
     82 DU         -8.4168   -7.7428   15.4208 H         7 CUB7        0.0000 
     83 DU         -9.4609   -6.9421   16.1410 H         7 CUB7        0.0000 
     84 CA        -10.5050   -6.1413   16.8612 C.3       6 GLY6        0.0000 
     85 O          -8.3437   -8.8095   13.5886 O.2       2 ALA2        0.0000 
     86 DU         -9.3878   -8.0087   14.3088 H         7 CUB7        0.0000 
     87 DU        -10.4319   -7.2080   15.0290 H         7 CUB7        0.0000 
     88 CA        -11.4759   -6.4072   15.7492 C.3       6 GLY6        0.0000 
     89 NZ         -9.3147   -9.0754   12.4766 N.2       4 LYS4        0.0000 
     90 O         -10.3588   -8.2747   13.1968 O.2       2 ALA2        0.0000 
     91 CA        -11.4028   -7.4739   13.9170 C.3       6 GLY6        0.0000 
     92 CA        -12.4469   -6.6731   14.6372 C.3       6 GLY6        0.0000 
     93 CA         -5.8967   -9.2520   17.6279 C.3       6 GLY6        0.0000 
     94 OG         -6.9408   -8.4512   18.3482 O.2       1 SER1        0.0000 
     95 CZ         -3.7355  -11.9201   14.3553 C.ar      5 PHE5        0.0000 
     96 CZ         -4.7795  -11.1194   15.0756 C.ar      5 PHE5        0.0000 
     97 CZ         -5.8236  -10.3186   15.7958 C.ar      5 PHE5        0.0000 
     98 OG         -6.8677   -9.5179   16.5160 O.2       1 SER1        0.0000 
     99 OG         -7.9118   -8.7171   17.2362 O.2       1 SER1        0.0000 
    100 OG         -8.9558   -7.9164   17.9564 O.2       1 SER1        0.0000 
    101 O          -4.7064  -12.1860   13.2434 O.2       2 ALA2        0.0000 
    102 O          -5.7505  -11.3853   13.9636 O.2       2 ALA2        0.0000 
    103 OG         -6.7946  -10.5845   14.6838 O.2       1 SER1        0.0000 
    104 OG         -7.8387   -9.7838   15.4040 O.2       1 SER1        0.0000 
    105 OG         -8.8827   -8.9830   16.1242 O.2       1 SER1        0.0000 
    106 OG         -9.9268   -8.1823   16.8444 O.2       1 SER1        0.0000 
    107 CA        -10.9709   -7.3815   17.5646 C.3       6 GLY6        0.0000 
    108 O          -6.7215  -11.6512   12.8516 O.2       2 ALA2        0.0000 
    109 O          -7.7656  -10.8504   13.5718 O.2       2 ALA2        0.0000 
    110 OG         -8.8096  -10.0497   14.2920 O.2       1 SER1        0.0000 
    111 OG         -9.8537   -9.2489   15.0122 O.2       1 SER1        0.0000 
    112 CA        -10.8978   -8.4482   15.7324 C.3       6 GLY6        0.0000 
    113 CA        -11.9419   -7.6474   16.4527 C.3       6 GLY6        0.0000 
    114 NZ         -8.7366  -11.1164   12.4598 N.2       4 LYS4        0.0000 
    115 NZ         -9.7806  -10.3156   13.1801 N.2       4 LYS4        0.0000 
    116 O         -10.8247   -9.5148   13.9003 O.2       2 ALA2        0.0000 
    117 CA        -11.8688   -8.7141   14.6205 C.3       6 GLY6        0.0000 
    118 CZ         -6.2164  -12.6255   14.6670 C.ar      5 PHE5        0.0000 
    119 OG        -10.3928   -9.4225   17.5479 O.2       1 SER1        0.0000 
    120 OG        -11.4368   -8.6217   18.2681 O.2       1 SER1        0.0000 
    121 CZ         -7.1874  -12.8914   13.5550 C.ar      5 PHE5        0.0000 
    122 OG         -8.2315  -12.0906   14.2753 O.2       1 SER1        0.0000 
    123 OG         -9.2756  -11.2899   14.9955 O.2       1 SER1        0.0000 
    124 OG        -10.3197  -10.4891   15.7157 O.2       1 SER1        0.0000 
    125 CZ        -11.3637   -9.6884   16.4359 C.ar      5 PHE5        0.0000 
    126 CA        -12.4078   -8.8876   17.1561 C.3       6 GLY6        0.0000 
    127 CA         -9.2025  -12.3566   13.1633 C.3       6 GLY6        0.0000 
    128 CA        -10.2466  -11.5558   13.8835 C.3       6 GLY6        0.0000 
    129 CZ        -11.2906  -10.7550   14.6037 C.ar      5 PHE5        0.0000 
    130 CA        -12.3347   -9.9543   15.3239 C.3       6 GLY6        0.0000 
    131 OG        -11.2175  -11.8217   12.7715 O.2       1 SER1        0.0000 
@<TRIPOS>BOND
@<TRIPOS>SUBSTRUCTURE
     1 SER1       16 GROUP   
     2 ALA2        2 GROUP   
     3 ASP3       75 GROUP   
     4 LYS4        5 GROUP   
     5 PHE5        4 GROUP   
     6 GLY6        1 GROUP   
     7 CUB7       15 GROUP   
@<TRIPOS>SET

