#    Name: 3apx_Z80_1_INTS_M
#    Modification time : Mon Mar 24 18:00:17 2014

@<TRIPOS>MOLECULE
3apx_Z80_1_INTS_M
   48     0     3     0     0
SMALL
NO_CHARGES


@<TRIPOS>ATOM
      1 CA         -2.2475  -12.8110   14.3445 C.3       1 GLC5        0.0000 
      2 CA         -2.5550  -10.6190   14.6510 C.3       3 GLL5        0.0000 
      3 CA         -1.9400  -15.0030   14.0380 C.3       2 GLP5        0.0000 
      4 CA         -1.3495  -11.2220   13.3300 C.3       1 GLC5        0.0000 
      5 CA         -0.1440  -11.8250   12.0090 C.3       2 GLP5        0.0000 
      6 CA         -2.7430  -12.1145   15.9025 C.3       1 GLC5        0.0000 
      7 CA         -2.9310  -13.6100   17.1540 C.3       2 GLP5        0.0000 
      8 CA         -2.7105   -4.3730   14.9495 C.3       1 GLC5        0.0000 
      9 CA         -2.7290   -6.2280   15.5760 C.3       3 GLL5        0.0000 
     10 CA         -2.6920   -2.5180   14.3230 C.3       2 GLP5        0.0000 
     11 CA         -3.8805   -8.4310   17.7810 C.3       1 GLC5        0.0000 
     12 CA         -5.7210   -9.0460   16.7070 C.3       3 GLL5        0.0000 
     13 CA         -2.0400   -7.8160   18.8550 C.3       2 GLP5        0.0000 
     14 CA         -5.2460  -10.6750   17.3400 C.3       1 GLC5        0.0000 
     15 CA         -4.7710  -12.3040   17.9730 C.3       2 GLP5        0.0000 
     16 CA        -10.0635   -6.3050   18.8800 C.3       1 GLC5        0.0000 
     17 CA         -9.6340   -6.2320   17.0100 C.3       3 GLL5        0.0000 
     18 CA        -10.4930   -6.3780   20.7500 C.3       2 GLP5        0.0000 
     19 CA         -9.5285   -4.0980   16.6690 C.3       1 GLC5        0.0000 
     20 CA         -9.4230   -1.9640   16.3280 C.3       2 GLP5        0.0000 
     21 CA        -11.5195   -5.9845   17.1660 C.3       1 GLC5        0.0000 
     22 CA        -13.4050   -5.7370   17.3220 C.3       2 GLP5        0.0000 
     23 CA         -9.0585   -3.9590   15.5780 C.3       1 GLC5        0.0000 
     24 CA         -8.6940   -5.9540   14.8280 C.3       3 GLL5        0.0000 
     25 CA         -9.8825  -13.3095   12.3345 C.3       1 GLC5        0.0000 
     26 CA         -8.4350  -12.4490   13.3690 C.3       3 GLL5        0.0000 
     27 CA        -11.3300  -14.1700   11.3000 C.3       2 GLP5        0.0000 
     28 CA         -7.9360  -14.2220   13.1255 C.3       1 GLC5        0.0000 
     29 CA         -7.4370  -15.9950   12.8820 C.3       2 GLP5        0.0000 
     30 CA         -8.5820  -12.6805   11.1695 C.3       1 GLC5        0.0000 
     31 CA         -8.7290  -12.9120    8.9700 C.3       2 GLP5        0.0000 
     32 CA         -8.6145  -13.3070   15.1155 C.3       1 GLC5        0.0000 
     33 CA         -8.7940  -14.1650   16.8620 C.3       2 GLP5        0.0000 
     34 CA         -0.8708   -5.3155   16.4027 C.3       1 GLC5        0.0000 
     35 CA         -1.5220   -6.8580   15.2830 C.3       3 GLL5        0.0000 
     36 CA          0.3840   -4.0880   17.3760 C.3       2 GLP5        0.0000 
     37 CA          0.2888   -6.9932   14.6283 C.3       1 GLC5        0.0000 
     38 CA          2.0890   -6.4480   14.1150 C.3       2 GLP5        0.0000 
     39 CA         -0.3491   -9.7376   14.9722 C.3       1 GLC5        0.0000 
     40 CA         -1.5010   -8.2190   15.0000 C.3       3 GLL5        0.0000 
     41 CA          1.3600  -10.4690   15.0300 C.3       2 GLP5        0.0000 
     42 CA         -4.5323  -13.4305   11.7245 C.3       1 GLC5        0.0000 
     43 CA         -4.3660  -12.2990   13.6610 C.3       3 GLL5        0.0000 
     44 CA         -4.0530  -14.3420    9.9390 C.3       2 GLP5        0.0000 
     45 CA         -2.3894   -7.2332   13.5434 C.3       1 GLC5        0.0000 
     46 CA         -3.9010   -6.9810   15.5890 C.3       3 GLL5        0.0000 
     47 CA         -2.0760   -6.8650   11.7920 C.3       2 GLP5        0.0000 
     48 CA         -2.3714   -7.7087   17.0749 C.3       1 GLC5        0.0000 
@<TRIPOS>BOND
@<TRIPOS>SUBSTRUCTURE
     1 GLC5        1 GROUP        1 X    GLC  0     ROOT GLC X 6
     2 GLP5        3 GROUP        1 Y    GLP  0     ROOT GLP Y 13
     3 GLL5        2 GROUP        1 Z    GLL  0     ROOT GLL Z 20
@<TRIPOS>SET

