#    Name: 3apx_Z80_1_ligand
#    Modification time : Mon Mar 24 18:00:17 2014

@<TRIPOS>MOLECULE
3apx_Z80_1_ligand
   41    43     1     0     0
SMALL
NO_CHARGES


@<TRIPOS>ATOM
      1 C1         -3.8910   -8.3580   15.3150 C.ar      1 Z80190      0.0000 
      2 N1         -5.1470   -9.0230   15.3440 N.pl3     1 Z80190      0.0000 
      3 S1         -2.5550  -10.6190   14.6510 S.3       1 Z80190      0.0000 
      4 C2         -2.6760   -8.9680   15.0070 C.ar      1 Z80190      0.0000 
      5 N2         -8.7830   -6.8590   15.9870 N.4       1 Z80190      0.0000 
      6 C3         -4.1530  -11.0820   14.3160 C.ar      1 Z80190      0.0000 
      7 C4         -5.2440  -10.2890   14.6880 C.ar      1 Z80190      0.0000 
      8 C5         -2.7290   -6.2280   15.5760 C.ar      1 Z80190      0.0000 
      9 C6         -1.5220   -6.8580   15.2830 C.ar      1 Z80190      0.0000 
     10 C7         -1.5010   -8.2190   15.0000 C.ar      1 Z80190      0.0000 
     11 C8         -4.3660  -12.2990   13.6610 C.ar      1 Z80190      0.0000 
     12 C9         -5.6570  -12.7390   13.3590 C.ar      1 Z80190      0.0000 
     13 C10        -6.7440  -11.9500   13.7200 C.ar      1 Z80190      0.0000 
     14 C11        -6.5270  -10.7420   14.3700 C.ar      1 Z80190      0.0000 
     15 C12        -5.7210   -9.0460   16.7070 C.3       1 Z80190      0.0000 
     16 C13        -7.1990   -8.6300   16.6400 C.3       1 Z80190      0.0000 
     17 C14        -7.4320   -7.1220   16.5190 C.3       1 Z80190      0.0000 
     18 C15        -9.6340   -6.2320   17.0100 C.3       1 Z80190      0.0000 
     19 C16        -8.6940   -5.9540   14.8280 C.3       1 Z80190      0.0000 
     20 CL1        -8.4350  -12.4490   13.3690 Cl        1 Z80190      0.0000 
     21 C17        -3.9010   -6.9810   15.5890 C.ar      1 Z80190      0.0000 
     22 H          -9.2330   -7.7918   15.6705 H         1 Z80190      0.0000 
     23 H          -2.7548   -5.2273   15.7787 H         1 Z80190      0.0000 
     24 H          -0.6488   -6.3167   15.2763 H         1 Z80190      0.0000 
     25 H          -0.6032   -8.6824   14.7815 H         1 Z80190      0.0000 
     26 H          -3.5547  -12.8820   13.3963 H         1 Z80190      0.0000 
     27 H          -5.7980  -13.6295   12.8790 H         1 Z80190      0.0000 
     28 H          -7.3456  -10.1514   14.6306 H         1 Z80190      0.0000 
     29 H          -5.1976   -8.3500   17.3568 H         1 Z80190      0.0000 
     30 H          -5.6644  -10.0445   17.1317 H         1 Z80190      0.0000 
     31 H          -7.7118   -8.9999   17.5450 H         1 Z80190      0.0000 
     32 H          -7.6698   -9.1352   15.7786 H         1 Z80190      0.0000 
     33 H          -7.3138   -6.6743   17.5072 H         1 Z80190      0.0000 
     34 H          -6.6703   -6.7073   15.8566 H         1 Z80190      0.0000 
     35 H          -4.8028   -6.5188   15.8052 H         1 Z80190      0.0000 
     36 H          -9.7357   -6.8145   17.8165 H         1 Z80190      0.0000 
     37 H          -9.2569   -5.3605   17.3236 H         1 Z80190      0.0000 
     38 H         -10.5539   -6.0461   16.6648 H         1 Z80190      0.0000 
     39 H          -8.2768   -5.0784   15.0716 H         1 Z80190      0.0000 
     40 H          -8.1428   -6.3465   14.0918 H         1 Z80190      0.0000 
     41 H          -9.5951   -5.7526   14.4440 H         1 Z80190      0.0000 
@<TRIPOS>BOND
     1    2    1 1    
     2    4    1 ar   
     3   21    1 ar   
     4    7    2 1    
     5   15    2 1    
     6    4    3 1    
     7    6    3 1    
     8   10    4 ar   
     9   17    5 1    
    10   18    5 1    
    11   19    5 1    
    12   22    5 1    
    13    7    6 ar   
    14   11    6 ar   
    15   14    7 ar   
    16    9    8 ar   
    17   21    8 ar   
    18   23    8 1    
    19   10    9 ar   
    20   24    9 1    
    21   25   10 1    
    22   12   11 ar   
    23   26   11 1    
    24   13   12 ar   
    25   27   12 1    
    26   14   13 ar   
    27   20   13 1    
    28   28   14 1    
    29   16   15 1    
    30   29   15 1    
    31   30   15 1    
    32   17   16 1    
    33   31   16 1    
    34   32   16 1    
    35   33   17 1    
    36   34   17 1    
    37   36   18 1    
    38   37   18 1    
    39   38   18 1    
    40   39   19 1    
    41   40   19 1    
    42   41   19 1    
    43   35   21 1    
@<TRIPOS>SUBSTRUCTURE
     1 Z80190      1 GROUP   
@<TRIPOS>SET

