#    Name: 3tll_62D_1_INTS_M
#    Modification time : Mon Mar 24 20:20:20 2014

@<TRIPOS>MOLECULE
3tll_62D_1_INTS_M
   50     0     9     0     0
SMALL
NO_CHARGES


@<TRIPOS>ATOM
      1 CA         20.3745   17.6810   14.9325 C.3       3 GLC5        0.0000 
      2 CA         18.2510   17.9700   14.5420 C.3       9 GLL5        0.0000 
      3 CA         22.4980   17.3920   15.3230 C.3       6 GLP5        0.0000 
      4 CA         18.2010   16.2015   15.0860 C.3       3 GLC5        0.0000 
      5 CA         18.1510   14.4330   15.6300 C.3       6 GLP5        0.0000 
      6 CA         20.0700   19.6700   18.9920 C.3       3 GLC5        0.0000 
      7 CA         18.8250   17.8400   19.1360 C.3       9 GLL5        0.0000 
      8 CA         21.3150   21.5000   18.8480 C.3       6 GLP5        0.0000 
      9 CA         20.9785   18.4185   21.5580 C.3       3 GLC5        0.0000 
     10 CA         19.1840   17.8660   20.4440 C.3       9 GLL5        0.0000 
     11 CA         22.7730   18.9710   22.6720 C.3       6 GLP5        0.0000 
     12 CA         17.8385   15.9320   17.1255 C.3       3 GLC5        0.0000 
     13 CA         17.5260   17.4310   18.6210 C.3       9 GLL5        0.0000 
     14 O          20.2625   19.0870   15.5895 O.2       1 ALC1        0.0000 
     15 O          19.1530   18.2310   15.6410 O.2       7 ALL1        0.0000 
     16 O          21.3720   19.9430   15.5380 O.2       4 ALP1        0.0000 
     17 N          19.7985   17.8945   24.7060 N.am      2 SEC2        0.0000 
     18 N          19.3710   17.8760   23.3190 N.am      8 SEL2        0.0000 
     19 N          20.2260   17.9130   26.0930 N.am      5 SEP2        0.0000 
     20 N          20.6980   17.8045   23.0805 N.am      2 SEC2        0.0000 
     21 N          22.0250   17.7330   22.8420 N.am      5 SEP2        0.0000 
     22 O          17.3910   17.1565   24.9700 O.2       1 ALC1        0.0000 
     23 O          17.2680   17.1280   23.5770 O.2       7 ALL1        0.0000 
     24 O          17.5140   17.1850   26.3630 O.2       4 ALP1        0.0000 
     25 O          15.2350   16.8400   25.2850 O.2       1 ALC1        0.0000 
     26 O          15.1750   16.3130   23.9690 O.2       7 ALL1        0.0000 
     27 O          15.2950   17.3670   26.6010 O.2       4 ALP1        0.0000 
     28 O          16.3445   16.7490   25.1660 O.2       1 ALC1        0.0000 
     29 CA         12.3295   15.4180   25.3020 C.3       3 GLC5        0.0000 
     30 CA         13.8360   15.8110   23.6820 C.3       9 GLL5        0.0000 
     31 CA         10.8230   15.0250   26.9220 C.3       6 GLP5        0.0000 
     32 CA         15.0980   14.8520   25.0960 C.3       3 GLC5        0.0000 
     33 CA         16.3600   13.8930   26.5100 C.3       6 GLP5        0.0000 
     34 CA         14.8270   14.4825   22.9605 C.3       3 GLC5        0.0000 
     35 CA         15.8180   13.1540   22.2390 C.3       6 GLP5        0.0000 
     36 CA         13.3960   18.2315   22.1600 C.3       3 GLC5        0.0000 
     37 CA         12.8770   16.7660   22.9720 C.3       9 GLL5        0.0000 
     38 CA         13.9150   19.6970   21.3480 C.3       6 GLP5        0.0000 
     39 CA         18.7377   15.6910   19.9855 C.3       3 GLC5        0.0000 
     40 CA         18.4710   13.5290   20.1810 C.3       6 GLP5        0.0000 
     41 CA         19.0754   19.3320   21.3017 C.3       3 GLC5        0.0000 
     42 CA         19.5900   21.0120   22.0070 C.3       6 GLP5        0.0000 
     43 CA         17.9650   15.3880   20.6568 C.3       3 GLC5        0.0000 
     44 CA         18.1170   17.4510   21.4030 C.3       9 GLL5        0.0000 
     45 CA         15.2810   18.3610   20.7745 C.3       3 GLC5        0.0000 
     46 CA         16.8010   17.0430   20.8620 C.3       9 GLL5        0.0000 
     47 CA         17.7402   15.3740   19.6307 C.3       3 GLC5        0.0000 
     48 CA         16.4930   17.0070   19.5400 C.3       9 GLL5        0.0000 
     49 CA         12.0757   15.0787   22.4510 C.3       3 GLC5        0.0000 
     50 CA         10.7950   13.8690   21.5750 C.3       6 GLP5        0.0000 
@<TRIPOS>BOND
@<TRIPOS>SUBSTRUCTURE
     1 ALC1       14 GROUP        1 X    ALC  0     ROOT ALC X 1
     2 SEC2       17 GROUP        1 X    SEC  0     **** SEC X 2
     3 GLC5        1 GROUP        1 X    GLC  0     **** GLC X 6
     4 ALP1       16 GROUP        1 Y    ALP  0     ROOT ALP Y 8
     5 SEP2       19 GROUP        1 Y    SEP  0     **** SEP Y 9
     6 GLP5        3 GROUP        1 Y    GLP  0     **** GLP Y 13
     7 ALL1       15 GROUP        1 Z    ALL  0     ROOT ALL Z 15
     8 SEL2       18 GROUP        1 Z    SEL  0     **** SEL Z 16
     9 GLL5        2 GROUP        1 Z    GLL  0     **** GLL Z 20
@<TRIPOS>SET

