#    Name: 3tll_62D_1_ligand
#    Modification time : Mon Mar 24 20:20:20 2014

@<TRIPOS>MOLECULE
3tll_62D_1_ligand
   33    35     1     0     0
SMALL
NO_CHARGES


@<TRIPOS>ATOM
      1 N1         17.5470   17.5420   17.3130 N.pl3     1 62D501      0.0000 
      2 N3         19.5340   18.1670   17.9430 N.2       1 62D501      0.0000 
      3 C4         18.8410   18.0110   16.8850 C.2       1 62D501      0.0000 
      4 C5         18.2510   17.9700   14.5420 C.3       1 62D501      0.0000 
      5 C6         18.8250   17.8400   19.1360 C.ar      1 62D501      0.0000 
      6 C7         19.1840   17.8660   20.4440 C.ar      1 62D501      0.0000 
      7 C8         18.1170   17.4510   21.4030 C.ar      1 62D501      0.0000 
      8 C10        16.0980   16.6700   23.1160 C.2       1 62D501      0.0000 
      9 C1         16.8010   17.0430   20.8620 C.ar      1 62D501      0.0000 
     10 C2         16.4930   17.0070   19.5400 C.ar      1 62D501      0.0000 
     11 C3         17.5260   17.4310   18.6210 C.ar      1 62D501      0.0000 
     12 N2         19.1530   18.2310   15.6410 N.pl3     1 62D501      0.0000 
     13 C9         18.2580   17.4530   22.7500 C.2       1 62D501      0.0000 
     14 O1         19.3710   17.8760   23.3190 O.2       1 62D501      0.0000 
     15 N4         17.2680   17.1280   23.5770 N.am      1 62D501      0.0000 
     16 N5         15.1750   16.3130   23.9690 N.pl3     1 62D501      0.0000 
     17 C11        13.8360   15.8110   23.6820 C.3       1 62D501      0.0000 
     18 N6         15.8430   16.6250   21.8390 N.2       1 62D501      0.0000 
     19 C12        12.8770   16.7660   22.9720 C.3       1 62D501      0.0000 
     20 H          16.8462   17.3571   16.6753 H         1 62D501      0.0000 
     21 H          20.0626   18.1277   20.8024 H         1 62D501      0.0000 
     22 H          15.6079   16.7089   19.1771 H         1 62D501      0.0000 
     23 H          20.0960   18.6182   15.3586 H         1 62D501      0.0000 
     24 H          17.4046   17.2322   24.6190 H         1 62D501      0.0000 
     25 H          15.3755   16.3775   25.0373 H         1 62D501      0.0000 
     26 H          13.3366   15.4781   24.6315 H         1 62D501      0.0000 
     27 H          13.8986   14.8760   23.0626 H         1 62D501      0.0000 
     28 H          18.6625   18.2020   13.6606 H         1 62D501      0.0000 
     29 H          17.9882   17.0061   14.4981 H         1 62D501      0.0000 
     30 H          17.4070   18.5006   14.6202 H         1 62D501      0.0000 
     31 H          12.7161   17.5959   23.5062 H         1 62D501      0.0000 
     32 H          13.2308   17.0541   22.0822 H         1 62D501      0.0000 
     33 H          11.9849   16.3441   22.8101 H         1 62D501      0.0000 
@<TRIPOS>BOND
     1    3    1 1    
     2   11    1 1    
     3   20    1 1    
     4    3    2 2    
     5    5    2 1    
     6   12    3 1    
     7   12    4 1    
     8   28    4 1    
     9   29    4 1    
    10   30    4 1    
    11    6    5 ar   
    12   11    5 ar   
    13    7    6 ar   
    14   21    6 1    
    15    9    7 ar   
    16   13    7 1    
    17   15    8 1    
    18   16    8 1    
    19   18    8 2    
    20   10    9 ar   
    21   18    9 1    
    22   11   10 ar   
    23   22   10 1    
    24   23   12 1    
    25   14   13 2    
    26   15   13 am   
    27   24   15 1    
    28   17   16 1    
    29   25   16 1    
    30   19   17 1    
    31   26   17 1    
    32   27   17 1    
    33   31   19 1    
    34   32   19 1    
    35   33   19 1    
@<TRIPOS>SUBSTRUCTURE
     1 62D501      1 GROUP   
@<TRIPOS>SET

