#    Name: 4blr_UTP_2_INTS_M
#    Modification time : Tue Mar 25 07:53:24 2014

@<TRIPOS>MOLECULE
4blr_UTP_2_INTS_M
   51     0     9     0     0
SMALL
NO_CHARGES


@<TRIPOS>ATOM
      1 N          69.4010   52.7695   37.5235 N.am      1 SEC2        0.0000 
      2 N          69.0770   54.0940   37.3780 N.am      7 SEL2        0.0000 
      3 N          69.7250   51.4450   37.6690 N.am      4 SEP2        0.0000 
      4 CA         66.6915   53.1430   36.5225 C.3       3 GLC5        0.0000 
      5 CA         68.4900   52.9360   35.4900 C.3       9 GLL5        0.0000 
      6 CA         64.8930   53.3500   37.5550 C.3       6 GLP5        0.0000 
      7 CA         66.1445   53.6270   35.4865 C.3       3 GLC5        0.0000 
      8 CA         67.8140   52.9140   34.2860 C.3       9 GLL5        0.0000 
      9 CA         64.4750   54.3400   36.6870 C.3       6 GLP5        0.0000 
     10 CA         64.3515   53.5680   32.1615 C.3       3 GLC5        0.0000 
     11 CA         66.4450   53.9330   32.5950 C.3       9 GLL5        0.0000 
     12 CA         62.2580   53.2030   31.7280 C.3       6 GLP5        0.0000 
     13 N          66.6105   53.6455   28.3595 N.am      1 SEC2        0.0000 
     14 N          67.0590   52.4210   29.4210 N.am      7 SEL2        0.0000 
     15 N          66.1620   54.8700   27.2980 N.am      4 SEP2        0.0000 
     16 CA         66.2930   49.1420   32.8250 C.3       3 GLC5        0.0000 
     17 CA         65.5760   50.5300   31.7430 C.3       9 GLL5        0.0000 
     18 CA         67.0100   47.7540   33.9070 C.3       6 GLP5        0.0000 
     19 CA         64.3950   48.7730   31.9375 C.3       3 GLC5        0.0000 
     20 CA         63.2140   47.0160   32.1320 C.3       6 GLP5        0.0000 
     21 NZ         67.8125   47.7045   27.4270 N.4       2 LYC4        0.0000 
     22 NZ         67.1900   49.1200   28.6250 N.4       8 LYL4        0.0000 
     23 NZ         68.4350   46.2890   26.2290 N.4       5 LYP4        0.0000 
     24 N          64.1165   47.1635   30.2605 N.am      1 SEC2        0.0000 
     25 N          65.1530   47.8940   29.6940 N.am      7 SEL2        0.0000 
     26 N          63.0800   46.4330   30.8270 N.am      4 SEP2        0.0000 
     27 N          61.8340   51.4325   29.9140 N.am      1 SEC2        0.0000 
     28 N          62.8000   51.5240   28.8010 N.am      7 SEL2        0.0000 
     29 N          60.8680   51.3410   31.0270 N.am      4 SEP2        0.0000 
     30 N          62.1270   48.8255   30.5485 N.am      1 SEC2        0.0000 
     31 N          62.8710   48.9660   29.2320 N.am      7 SEL2        0.0000 
     32 N          61.3830   48.6850   31.8650 N.am      4 SEP2        0.0000 
     33 N          62.9755   47.6995   30.0295 N.am      1 SEC2        0.0000 
     34 NZ         63.1410   46.8710   25.7420 N.4       2 LYC4        0.0000 
     35 NZ         64.2690   47.6010   27.1110 N.4       8 LYL4        0.0000 
     36 NZ         62.0130   46.1410   24.3730 N.4       5 LYP4        0.0000 
     37 NZ         62.6580   47.3355   24.6730 N.4       2 LYC4        0.0000 
     38 NZ         63.3030   48.5300   24.9730 N.4       8 LYL4        0.0000 
     39 N          62.6580   47.3355   24.6730 N.am      1 SEC2        0.0000 
     40 N          63.3030   48.5300   24.9730 N.am      7 SEL2        0.0000 
     41 N          62.0130   46.1410   24.3730 N.am      4 SEP2        0.0000 
     42 CA         69.2720   51.1885   34.6215 C.3       3 GLC5        0.0000 
     43 CA         70.3920   49.4520   34.3550 C.3       6 GLP5        0.0000 
     44 CA         69.8405   53.6250   34.8345 C.3       3 GLC5        0.0000 
     45 CA         71.5290   54.3250   34.7810 C.3       6 GLP5        0.0000 
     46 CA         68.3235   51.8920   36.4775 C.3       3 GLC5        0.0000 
     47 CA         68.4950   50.8590   38.0670 C.3       6 GLP5        0.0000 
     48 CA         63.9582   52.2373   31.6545 C.3       3 GLC5        0.0000 
     49 CA         64.4202   50.5583   32.7820 C.3       3 GLC5        0.0000 
     50 CA         65.7410   52.0130   31.4190 C.3       9 GLL5        0.0000 
     51 CA         63.1820   49.8450   33.9830 C.3       6 GLP5        0.0000 
@<TRIPOS>BOND
@<TRIPOS>SUBSTRUCTURE
     1 SEC2        1 GROUP        1 X    SEC  0     ROOT SEC X 2
     2 LYC4       21 GROUP        1 X    LYC  0     **** LYC X 4
     3 GLC5        4 GROUP        1 X    GLC  0     **** GLC X 6
     4 SEP2        3 GROUP        1 Y    SEP  0     ROOT SEP Y 9
     5 LYP4       23 GROUP        1 Y    LYP  0     **** LYP Y 11
     6 GLP5        6 GROUP        1 Y    GLP  0     **** GLP Y 13
     7 SEL2        2 GROUP        1 Z    SEL  0     ROOT SEL Z 16
     8 LYL4       22 GROUP        1 Z    LYL  0     **** LYL Z 18
     9 GLL5        5 GROUP        1 Z    GLL  0     **** GLL Z 20
@<TRIPOS>SET

