#    Name: 4blr_UTP_2_ligand
#    Modification time : Tue Mar 25 07:53:25 2014

@<TRIPOS>MOLECULE
4blr_UTP_2_ligand
   40    41     1     0     0
SMALL
NO_CHARGES


@<TRIPOS>ATOM
      1 O4         69.0770   54.0940   37.3780 O.2       1 UTP400      0.0000 
      2 C4         68.4680   54.0790   36.2860 C.2       1 UTP400      0.0000 
      3 C5         68.4900   52.9360   35.4900 C.2       1 UTP400      0.0000 
      4 C6         67.8140   52.9140   34.2860 C.2       1 UTP400      0.0000 
      5 N3         67.7920   55.1620   35.8770 N.am      1 UTP400      0.0000 
      6 C2         67.1310   55.1570   34.7060 C.2       1 UTP400      0.0000 
      7 O2         66.5100   56.1870   34.3570 O.2       1 UTP400      0.0000 
      8 N1         67.1450   53.9970   33.8820 N.am      1 UTP400      0.0000 
      9 C1'        66.4450   53.9330   32.5950 C.3       1 UTP400      0.0000 
     10 O4'        65.5650   52.8030   32.5990 O.3       1 UTP400      0.0000 
     11 C2'        67.4330   53.7340   31.4480 C.3       1 UTP400      0.0000 
     12 O2'        67.2930   54.7610   30.4630 O.3       1 UTP400      0.0000 
     13 C3'        67.1050   52.3780   30.8520 C.3       1 UTP400      0.0000 
     14 O3'        67.0590   52.4210   29.4210 O.3       1 UTP400      0.0000 
     15 C4'        65.7410   52.0130   31.4190 C.3       1 UTP400      0.0000 
     16 C5'        65.5760   50.5300   31.7430 C.3       1 UTP400      0.0000 
     17 O5'        66.4210   49.7000   30.9460 O.3       1 UTP400      0.0000 
     18 PA         65.9590   49.1570   29.4990 P.3       1 UTP400      0.0000 
     19 O1A        67.1900   49.1200   28.6250 O.co2     1 UTP400      0.0000 
     20 O2A        65.1530   47.8940   29.6940 O.co2     1 UTP400      0.0000 
     21 O3A        65.0170   50.3410   28.9320 O.3       1 UTP400      0.0000 
     22 PB         63.4560   50.1840   28.5580 P.3       1 UTP400      0.0000 
     23 O1B        62.8000   51.5240   28.8010 O.co2     1 UTP400      0.0000 
     24 O2B        62.8710   48.9660   29.2320 O.co2     1 UTP400      0.0000 
     25 O3B        63.4830   49.9770   26.9500 O.3       1 UTP400      0.0000 
     26 PG         64.2140   48.7690   26.1550 P.3       1 UTP400      0.0000 
     27 O1G        64.2690   47.6010   27.1110 O.co2     1 UTP400      0.0000 
     28 O2G        65.5640   49.3300   25.7770 O.co2     1 UTP400      0.0000 
     29 O3G        63.3030   48.5300   24.9730 O.co2     1 UTP400      0.0000 
     30 H          69.0144   52.1062   35.8056 H         1 UTP400      0.0000 
     31 H          67.8383   52.0498   33.7126 H         1 UTP400      0.0000 
     32 H          67.7774   56.0234   36.4755 H         1 UTP400      0.0000 
     33 H          65.9013   54.8372   32.4154 H         1 UTP400      0.0000 
     34 H          68.4180   53.6892   31.8613 H         1 UTP400      0.0000 
     35 H          67.8150   51.6670   31.2218 H         1 UTP400      0.0000 
     36 H          64.9895   52.2918   30.6799 H         1 UTP400      0.0000 
     37 H          64.5074   50.2752   31.6005 H         1 UTP400      0.0000 
     38 H          65.7838   50.4004   32.8233 H         1 UTP400      0.0000 
     39 H          66.9355   54.2957   29.6532 H         1 UTP400      0.0000 
     40 H          66.3867   51.7272   29.1628 H         1 UTP400      0.0000 
@<TRIPOS>BOND
     1    2    1 2    
     2    3    2 1    
     3    5    2 1    
     4    4    3 2    
     5   30    3 1    
     6    8    4 1    
     7   31    4 1    
     8    6    5 1    
     9   32    5 1    
    10    7    6 2    
    11    8    6 1    
    12    9    8 1    
    13   10    9 1    
    14   11    9 1    
    15   33    9 1    
    16   15   10 1    
    17   12   11 1    
    18   13   11 1    
    19   34   11 1    
    20   39   12 1    
    21   14   13 1    
    22   15   13 1    
    23   35   13 1    
    24   40   14 1    
    25   16   15 1    
    26   36   15 1    
    27   17   16 1    
    28   37   16 1    
    29   38   16 1    
    30   18   17 1    
    31   19   18 ar   
    32   20   18 ar   
    33   21   18 1    
    34   22   21 1    
    35   23   22 ar   
    36   24   22 ar   
    37   25   22 1    
    38   26   25 1    
    39   27   26 ar   
    40   28   26 ar   
    41   29   26 ar   
@<TRIPOS>SUBSTRUCTURE
     1 UTP400      1 GROUP   
@<TRIPOS>SET

