#    Name: 1n06_ADP_2_INTS_M
#    Modification time : Tue Mar 25 12:17:40 2014

@<TRIPOS>MOLECULE
1n06_ADP_2_INTS_M
   65     0     9     0     0
SMALL
NO_CHARGES


@<TRIPOS>ATOM
      1 N          15.4090   22.7125   32.3065 N.am      2 SEC2        0.0000 
      2 N          13.8900   22.0680   32.7110 N.am      8 SEL2        0.0000 
      3 N          16.9280   23.3570   31.9020 N.am      5 SEP2        0.0000 
      4 N          14.2315   23.4030   32.0230 N.am      2 SEC2        0.0000 
      5 N          14.5730   24.7380   31.3350 N.am      5 SEP2        0.0000 
      6 N          12.8540   23.0110   32.3585 N.am      2 SEC2        0.0000 
      7 N          11.8180   23.9540   32.0060 N.am      5 SEP2        0.0000 
      8 N          16.4220   22.7745   33.0600 N.am      2 SEC2        0.0000 
      9 N          15.9160   22.1920   34.2180 N.am      8 SEL2        0.0000 
     10 N          12.7490   24.1620   33.1820 N.am      2 SEC2        0.0000 
     11 N          13.6800   24.3700   34.3580 N.am      8 SEL2        0.0000 
     12 N          13.4025   25.5720   33.4525 N.am      2 SEC2        0.0000 
     13 N          13.1250   26.7740   32.5470 N.am      5 SEP2        0.0000 
     14 CA          9.8020   24.4105   34.2755 C.3       3 GLC5        0.0000 
     15 CA         10.7070   22.5770   35.1950 C.3       9 GLL5        0.0000 
     16 CA          8.8970   26.2440   33.3560 C.3       6 GLP5        0.0000 
     17 CA          7.9165   20.4835   34.5120 C.3       3 GLC5        0.0000 
     18 CA          8.4690   21.6040   36.0400 C.3       9 GLL5        0.0000 
     19 CA          7.3640   19.3630   32.9840 C.3       6 GLP5        0.0000 
     20 O          10.4005   20.5070   37.2115 O.2       1 ALC1        0.0000 
     21 O           8.9060   20.3240   36.5090 O.2       7 ALL1        0.0000 
     22 O          11.8950   20.6900   37.9140 O.2       4 ALP1        0.0000 
     23 CA          5.4255   22.0605   36.4980 C.3       3 GLC5        0.0000 
     24 CA          7.2770   22.2210   36.8250 C.3       9 GLL5        0.0000 
     25 CA          3.5740   21.9000   36.1710 C.3       6 GLP5        0.0000 
     26 N           6.3880   21.6680   39.4005 N.am      2 SEC2        0.0000 
     27 N           7.2440   21.6810   38.1590 N.am      8 SEL2        0.0000 
     28 N           5.5320   21.6550   40.6420 N.am      5 SEP2        0.0000 
     29 CA          9.2335   24.9740   37.1570 C.3       3 GLC5        0.0000 
     30 CA          7.5760   23.7470   36.7860 C.3       9 GLL5        0.0000 
     31 CA         10.8910   26.2010   37.5280 C.3       6 GLP5        0.0000 
     32 CA          8.2365   24.9955   35.0710 C.3       3 GLC5        0.0000 
     33 CA          5.5455   23.3205   36.9705 C.3       3 GLC5        0.0000 
     34 CA          3.5150   22.8940   37.1550 C.3       6 GLP5        0.0000 
     35 CA          2.6195   24.8030   32.7790 C.3       3 GLC5        0.0000 
     36 CA          4.3810   25.3610   33.4250 C.3       9 GLL5        0.0000 
     37 CA          0.8580   24.2450   32.1330 C.3       6 GLP5        0.0000 
     38 CA          2.7250   25.9620   34.7740 C.3       3 GLC5        0.0000 
     39 CA          1.0690   26.5630   36.1230 C.3       6 GLP5        0.0000 
     40 O           2.8100   26.4950   31.9010 O.2       1 ALC1        0.0000 
     41 O           3.5370   26.3590   33.1300 O.2       7 ALL1        0.0000 
     42 O           2.0830   26.6310   30.6720 O.2       4 ALP1        0.0000 
     43 N           3.5690   24.1185   31.4965 N.am      2 SEC2        0.0000 
     44 N           4.5440   24.3250   32.5500 N.am      8 SEL2        0.0000 
     45 N           2.5940   23.9120   30.4430 N.am      5 SEP2        0.0000 
     46 CA          6.9215   22.8050   31.8290 C.3       3 GLC5        0.0000 
     47 CA          5.4050   23.2870   32.8190 C.3       9 GLL5        0.0000 
     48 CA          8.4380   22.3230   30.8390 C.3       6 GLP5        0.0000 
     49 CA          5.6870   21.2985   33.2105 C.3       3 GLC5        0.0000 
     50 CA          5.9690   19.3100   33.6020 C.3       6 GLP5        0.0000 
     51 CA          4.9480   23.2335   30.9710 C.3       3 GLC5        0.0000 
     52 CA          4.4910   23.1800   29.1230 C.3       6 GLP5        0.0000 
     53 CA          3.2035   23.0640   32.7810 C.3       3 GLC5        0.0000 
     54 CA          1.0020   22.8410   32.7430 C.3       6 GLP5        0.0000 
     55 CA          7.4525   25.2610   34.1150 C.3       3 GLC5        0.0000 
     56 CA          6.0080   24.2780   34.8740 C.3       9 GLL5        0.0000 
     57 CA         10.5113   24.4143   36.6110 C.3       3 GLC5        0.0000 
     58 CA          9.5560   22.6780   36.1930 C.3       9 GLL5        0.0000 
     59 CA         10.1756   21.0734   37.3190 C.3       3 GLC5        0.0000 
     60 CA         11.0510   20.0310   38.7710 C.3       6 GLP5        0.0000 
     61 CA          7.0397   23.3880   38.8268 C.3       3 GLC5        0.0000 
     62 CA          6.6530   23.7920   40.8480 C.3       6 GLP5        0.0000 
     63 CA          6.3018   26.3105   33.5805 C.3       3 GLC5        0.0000 
     64 CA          5.1360   25.3430   34.6190 C.3       9 GLL5        0.0000 
     65 CA          7.8450   27.2690   33.1390 C.3       6 GLP5        0.0000 
@<TRIPOS>BOND
@<TRIPOS>SUBSTRUCTURE
     1 ALC1       20 GROUP        1 X    ALC  0     ROOT ALC X 1
     2 SEC2        1 GROUP        1 X    SEC  0     **** SEC X 2
     3 GLC5       14 GROUP        1 X    GLC  0     **** GLC X 6
     4 ALP1       22 GROUP        1 Y    ALP  0     ROOT ALP Y 8
     5 SEP2        3 GROUP        1 Y    SEP  0     **** SEP Y 9
     6 GLP5       16 GROUP        1 Y    GLP  0     **** GLP Y 13
     7 ALL1       21 GROUP        1 Z    ALL  0     ROOT ALL Z 15
     8 SEL2        2 GROUP        1 Z    SEL  0     **** SEL Z 16
     9 GLL5       15 GROUP        1 Z    GLL  0     **** GLL Z 20
@<TRIPOS>SET

