#    Name: 1n06_ADP_2_ligand
#    Modification time : Tue Mar 25 12:17:40 2014

@<TRIPOS>MOLECULE
1n06_ADP_2_ligand
   39    41     1     0     0
SMALL
NO_CHARGES


@<TRIPOS>ATOM
      1 PB         14.4640   21.5440   33.9910 P.3       1 ADP301      0.0000 
      2 O1B        13.8900   22.0680   32.7110 O.co2     1 ADP301      0.0000 
      3 O2B        14.5800   20.0660   33.8690 O.co2     1 ADP301      0.0000 
      4 O3B        15.9160   22.1920   34.2180 O.co2     1 ADP301      0.0000 
      5 PA         13.1840   23.4550   35.4210 P.3       1 ADP301      0.0000 
      6 O1A        13.6800   24.3700   34.3580 O.co2     1 ADP301      0.0000 
      7 O2A        13.7110   23.9210   36.7220 O.co2     1 ADP301      0.0000 
      8 O3A        13.5530   21.8810   35.2850 O.3       1 ADP301      0.0000 
      9 O5'        11.5990   23.6230   35.4730 O.3       1 ADP301      0.0000 
     10 C5'        10.7070   22.5770   35.1950 C.3       1 ADP301      0.0000 
     11 C4'         9.5560   22.6780   36.1930 C.3       1 ADP301      0.0000 
     12 O4'         8.8150   23.9080   36.0800 O.3       1 ADP301      0.0000 
     13 C3'         8.4690   21.6040   36.0400 C.3       1 ADP301      0.0000 
     14 O3'         8.9060   20.3240   36.5090 O.3       1 ADP301      0.0000 
     15 C2'         7.2770   22.2210   36.8250 C.3       1 ADP301      0.0000 
     16 O2'         7.2440   21.6810   38.1590 O.3       1 ADP301      0.0000 
     17 C1'         7.5760   23.7470   36.7860 C.3       1 ADP301      0.0000 
     18 N9          6.5850   24.5490   36.0840 N.pl3     1 ADP301      0.0000 
     19 C8          6.0730   25.6880   36.5040 C.2       1 ADP301      0.0000 
     20 N7          5.2370   26.1610   35.6830 N.2       1 ADP301      0.0000 
     21 C5          5.1360   25.3430   34.6190 C.ar      1 ADP301      0.0000 
     22 C6          4.3810   25.3610   33.4250 C.ar      1 ADP301      0.0000 
     23 N6          3.5370   26.3590   33.1300 N.pl3     1 ADP301      0.0000 
     24 N1          4.5440   24.3250   32.5500 N.ar      1 ADP301      0.0000 
     25 C2          5.4050   23.2870   32.8190 C.ar      1 ADP301      0.0000 
     26 N3          6.1500   23.2500   33.9760 N.ar      1 ADP301      0.0000 
     27 C4          6.0080   24.2780   34.8740 C.ar      1 ADP301      0.0000 
     28 H          11.1625   21.5936   35.3161 H         1 ADP301      0.0000 
     29 H          10.2811   22.6436   34.1933 H         1 ADP301      0.0000 
     30 H           9.9428   22.5886   37.2083 H         1 ADP301      0.0000 
     31 H           8.1840   21.6053   34.9966 H         1 ADP301      0.0000 
     32 H           6.4007   22.0401   36.2613 H         1 ADP301      0.0000 
     33 H           7.6971   24.0841   37.8024 H         1 ADP301      0.0000 
     34 H           6.3373   26.1093   37.3838 H         1 ADP301      0.0000 
     35 H           3.0152   26.2581   32.2829 H         1 ADP301      0.0000 
     36 H           3.5045   27.1154   33.7833 H         1 ADP301      0.0000 
     37 H           5.4963   22.5081   32.1297 H         1 ADP301      0.0000 
     38 H           9.8819   20.2890   36.2937 H         1 ADP301      0.0000 
     39 H           7.7878   20.8431   38.1124 H         1 ADP301      0.0000 
@<TRIPOS>BOND
     1    2    1 ar   
     2    3    1 ar   
     3    4    1 ar   
     4    8    1 1    
     5    6    5 ar   
     6    7    5 ar   
     7    8    5 1    
     8    9    5 1    
     9   10    9 1    
    10   11   10 1    
    11   28   10 1    
    12   29   10 1    
    13   12   11 1    
    14   13   11 1    
    15   30   11 1    
    16   17   12 1    
    17   14   13 1    
    18   15   13 1    
    19   31   13 1    
    20   38   14 1    
    21   16   15 1    
    22   17   15 1    
    23   32   15 1    
    24   39   16 1    
    25   18   17 1    
    26   33   17 1    
    27   19   18 1    
    28   27   18 1    
    29   20   19 2    
    30   34   19 1    
    31   21   20 1    
    32   22   21 ar   
    33   27   21 ar   
    34   23   22 1    
    35   24   22 ar   
    36   35   23 1    
    37   36   23 1    
    38   25   24 ar   
    39   26   25 ar   
    40   37   25 1    
    41   27   26 ar   
@<TRIPOS>SUBSTRUCTURE
     1 ADP301      1 GROUP   
@<TRIPOS>SET

