#    Name: 2r7b_253_1_INTS_M
#    Modification time : Mon Mar 24 23:18:40 2014

@<TRIPOS>MOLECULE
2r7b_253_1_INTS_M
   63     0     9     0     0
SMALL
NO_CHARGES


@<TRIPOS>ATOM
      1 CA         87.6250   14.2765   16.5580 C.3       3 GLC5        0.0000 
      2 CA         89.2630   14.0150   15.0910 C.3       9 GLL5        0.0000 
      3 CA         85.9870   14.5380   18.0250 C.3       6 GLP5        0.0000 
      4 CA         88.1330   12.5765   15.5465 C.3       3 GLC5        0.0000 
      5 CA         87.0030   11.1380   16.0020 C.3       6 GLP5        0.0000 
      6 CA         89.7520   12.2035   13.8500 C.3       3 GLC5        0.0000 
      7 CA         90.2410   10.3920   12.6090 C.3       6 GLP5        0.0000 
      8 CA         89.7520   14.9695   13.1405 C.3       3 GLC5        0.0000 
      9 CA         90.2410   15.9240   11.1900 C.3       6 GLP5        0.0000 
     10 CA         86.7420   14.8905   16.0190 C.3       3 GLC5        0.0000 
     11 CA         87.4970   15.2430   14.0130 C.3       9 GLL5        0.0000 
     12 CA         87.9990   19.5180   12.0395 C.3       3 GLC5        0.0000 
     13 CA         87.5050   18.8260   13.7300 C.3       9 GLL5        0.0000 
     14 CA         88.4930   20.2100   10.3490 C.3       6 GLP5        0.0000 
     15 CA         81.3795   16.0565   14.4750 C.3       3 GLC5        0.0000 
     16 CA         82.4100   16.7270   12.7570 C.3       9 GLL5        0.0000 
     17 CA         80.3490   15.3860   16.1930 C.3       6 GLP5        0.0000 
     18 CA         83.4220   15.8050   10.9875 C.3       3 GLC5        0.0000 
     19 CA         84.4340   14.8830    9.2180 C.3       6 GLP5        0.0000 
     20 N          80.2195   15.3365   10.0885 N.am      2 SEC2        0.0000 
     21 N          80.7210   15.2520   11.6430 N.am      8 SEL2        0.0000 
     22 N          79.7180   15.4210    8.5340 N.am      5 SEP2        0.0000 
     23 CA         78.0570   15.2450   11.7375 C.3       3 GLC5        0.0000 
     24 CA         78.8180   17.1560   11.3820 C.3       9 GLL5        0.0000 
     25 CA         77.2960   13.3340   12.0930 C.3       6 GLP5        0.0000 
     26 CA         79.3965   13.7545   11.9035 C.3       3 GLC5        0.0000 
     27 CA         81.4970   14.1750   11.7140 C.3       9 GLL5        0.0000 
     28 CA         81.1435   14.8525    9.6530 C.3       3 GLC5        0.0000 
     29 CA         80.7900   15.5300    7.5920 C.3       6 GLP5        0.0000 
     30 O          81.6240   11.7200   11.2580 O.2       1 ALC1        0.0000 
     31 O          80.9580   13.0530   11.2210 O.2       7 ALL1        0.0000 
     32 O          82.2900   10.3870   11.2950 O.2       4 ALP1        0.0000 
     33 CA         83.9375   11.1775   12.6025 C.3       3 GLC5        0.0000 
     34 CA         83.5560   13.0820   12.2830 C.3       9 GLL5        0.0000 
     35 CA         84.3190    9.2730   12.9220 C.3       6 GLP5        0.0000 
     36 CA         85.0955   12.6235   11.0695 C.3       3 GLC5        0.0000 
     37 CA         86.6350   12.1650    9.8560 C.3       6 GLP5        0.0000 
     38 N          85.3435   11.8725   12.1790 N.am      2 SEC2        0.0000 
     39 N          84.8210   13.1080   12.7470 N.am      8 SEL2        0.0000 
     40 N          85.8660   10.6370   11.6110 N.am      5 SEP2        0.0000 
     41 CA         88.7138   15.9030   12.6105 C.3       3 GLC5        0.0000 
     42 CA         84.8256   16.0975   15.4519 C.3       3 GLC5        0.0000 
     43 CA         86.8760   16.5210   14.0490 C.3       9 GLL5        0.0000 
     44 CA         84.1910   16.1230   17.3570 C.3       6 GLP5        0.0000 
     45 CA         79.3266   17.2135   13.6435 C.3       3 GLC5        0.0000 
     46 CA         81.0950   16.4920   12.1440 C.3       9 GLL5        0.0000 
     47 CA         78.9390   17.3430   15.5470 C.3       6 GLP5        0.0000 
     48 CA         80.7246   16.8610    9.8800 C.3       3 GLC5        0.0000 
     49 CA         80.1260   17.5320   12.0520 C.3       9 GLL5        0.0000 
     50 CA         81.7350   16.6380    8.0200 C.3       6 GLP5        0.0000 
     51 CA         82.2713   19.3938   15.0693 C.3       3 GLC5        0.0000 
     52 CA         81.6500   19.0590   13.1980 C.3       9 GLL5        0.0000 
     53 CA         82.4090   20.2330   16.9040 C.3       6 GLP5        0.0000 
     54 CA         80.3806   17.9181   14.3143 C.3       3 GLC5        0.0000 
     55 CA         82.6170   18.0500   13.2710 C.3       9 GLL5        0.0000 
     56 CA         82.1244   12.7220   13.4586 C.3       3 GLC5        0.0000 
     57 CA         81.3970   11.7890   14.7810 C.3       6 GLP5        0.0000 
     58 CA         83.6429   14.2690   10.6771 C.3       3 GLC5        0.0000 
     59 CA         84.9822   13.9425   15.1660 C.3       3 GLC5        0.0000 
     60 CA         85.4120   14.2620   13.1900 C.3       9 GLL5        0.0000 
     61 CA         83.8870   13.6910   16.9450 C.3       6 GLP5        0.0000 
     62 CA         86.3563   13.1795   11.6215 C.3       3 GLC5        0.0000 
     63 CA         84.5754   14.8960   11.1561 C.3       3 GLC5        0.0000 
@<TRIPOS>BOND
@<TRIPOS>SUBSTRUCTURE
     1 ALC1       30 GROUP        1 X    ALC  0     ROOT ALC X 1
     2 SEC2       20 GROUP        1 X    SEC  0     **** SEC X 2
     3 GLC5        1 GROUP        1 X    GLC  0     **** GLC X 6
     4 ALP1       32 GROUP        1 Y    ALP  0     ROOT ALP Y 8
     5 SEP2       22 GROUP        1 Y    SEP  0     **** SEP Y 9
     6 GLP5        3 GROUP        1 Y    GLP  0     **** GLP Y 13
     7 ALL1       31 GROUP        1 Z    ALL  0     ROOT ALL Z 15
     8 SEL2       21 GROUP        1 Z    SEL  0     **** SEL Z 16
     9 GLL5        2 GROUP        1 Z    GLL  0     **** GLL Z 20
@<TRIPOS>SET

