#    Name: 2r7b_253_1_ligand
#    Modification time : Mon Mar 24 23:18:40 2014

@<TRIPOS>MOLECULE
2r7b_253_1_ligand
   43    46     1     0     0
SMALL
NO_CHARGES


@<TRIPOS>ATOM
      1 C1         89.2630   14.0150   15.0910 C.3       1 253701      0.0000 
      2 O2         88.8500   15.1850   14.4000 O.3       1 253701      0.0000 
      3 C3         87.4970   15.2430   14.0130 C.ar      1 253701      0.0000 
      4 C23        86.8760   16.5210   14.0490 C.ar      1 253701      0.0000 
      5 O24        87.6900   17.5970   14.4460 O.3       1 253701      0.0000 
      6 C25        87.5050   18.8260   13.7300 C.3       1 253701      0.0000 
      7 C22        85.5190   16.6530   13.6820 C.ar      1 253701      0.0000 
      8 C21        84.7230   15.5570   13.2280 C.ar      1 253701      0.0000 
      9 C11        83.3200   15.5550   12.7690 C.ar      1 253701      0.0000 
     10 C12        82.4100   16.7270   12.7570 C.ar      1 253701      0.0000 
     11 C19        81.0950   16.4920   12.1440 C.ar      1 253701      0.0000 
     12 N20        80.7210   15.2520   11.6430 N.ar      1 253701      0.0000 
     13 C17        80.1260   17.5320   12.0520 C.ar      1 253701      0.0000 
     14 C18        78.8180   17.1560   11.3820 C.3       1 253701      0.0000 
     15 C15        80.4050   18.8140   12.5860 C.ar      1 253701      0.0000 
     16 N16        79.4900   19.8150   12.5380 N.pl3     1 253701      0.0000 
     17 C14        81.6500   19.0590   13.1980 C.ar      1 253701      0.0000 
     18 C13        82.6170   18.0500   13.2710 C.ar      1 253701      0.0000 
     19 C8         82.7980   14.2810   12.2650 C.ar      1 253701      0.0000 
     20 C9         81.4970   14.1750   11.7140 C.ar      1 253701      0.0000 
     21 N1         80.9580   13.0530   11.2210 N.pl3     1 253701      0.0000 
     22 C7         83.5560   13.0820   12.2830 C.ar      1 253701      0.0000 
     23 N6         84.8210   13.1080   12.7470 N.ar      1 253701      0.0000 
     24 C5         85.4120   14.2620   13.1900 C.ar      1 253701      0.0000 
     25 C4         86.7430   14.1260   13.5840 C.ar      1 253701      0.0000 
     26 H          85.0710   17.5906   13.7427 H         1 253701      0.0000 
     27 H          78.5998   19.5791   12.1483 H         1 253701      0.0000 
     28 H          79.7868   20.7000   12.8966 H         1 253701      0.0000 
     29 H          81.8457   19.9873   13.5927 H         1 253701      0.0000 
     30 H          83.5360   18.2554   13.7174 H         1 253701      0.0000 
     31 H          80.0334   13.1356   10.8491 H         1 253701      0.0000 
     32 H          81.5283   12.2329   11.2688 H         1 253701      0.0000 
     33 H          83.1165   12.2204   11.9393 H         1 253701      0.0000 
     34 H          87.1932   13.1977   13.5652 H         1 253701      0.0000 
     35 H          90.2341   14.0468   15.3277 H         1 253701      0.0000 
     36 H          88.7572   13.8897   15.9445 H         1 253701      0.0000 
     37 H          89.1218   13.1906   14.5429 H         1 253701      0.0000 
     38 H          88.1111   19.5467   14.0665 H         1 253701      0.0000 
     39 H          87.6913   18.7185   12.7534 H         1 253701      0.0000 
     40 H          86.5689   19.1674   13.8140 H         1 253701      0.0000 
     41 H          78.9576   16.8502   10.4402 H         1 253701      0.0000 
     42 H          78.3531   16.4141   11.8652 H         1 253701      0.0000 
     43 H          78.1826   17.9275   11.3486 H         1 253701      0.0000 
@<TRIPOS>BOND
     1    2    1 1    
     2   35    1 1    
     3   36    1 1    
     4   37    1 1    
     5    3    2 1    
     6    4    3 ar   
     7   25    3 ar   
     8    5    4 1    
     9    7    4 ar   
    10    6    5 1    
    11   38    6 1    
    12   39    6 1    
    13   40    6 1    
    14    8    7 ar   
    15   26    7 1    
    16    9    8 ar   
    17   24    8 ar   
    18   10    9 ar   
    19   19    9 ar   
    20   11   10 ar   
    21   18   10 ar   
    22   12   11 ar   
    23   13   11 ar   
    24   20   12 ar   
    25   14   13 1    
    26   15   13 ar   
    27   41   14 1    
    28   42   14 1    
    29   43   14 1    
    30   16   15 1    
    31   17   15 ar   
    32   27   16 1    
    33   28   16 1    
    34   18   17 ar   
    35   29   17 1    
    36   30   18 1    
    37   20   19 ar   
    38   22   19 ar   
    39   21   20 1    
    40   31   21 1    
    41   32   21 1    
    42   23   22 ar   
    43   33   22 1    
    44   24   23 ar   
    45   25   24 ar   
    46   34   25 1    
@<TRIPOS>SUBSTRUCTURE
     1 253701      1 GROUP   
@<TRIPOS>SET

