#    Name: 3qlr_QLR_2_INTS_M
#    Modification time : Mon Apr  7 19:42:22 2014

@<TRIPOS>MOLECULE
3qlr_QLR_2_INTS_M
   69     0     9     0     0
SMALL
NO_CHARGES


@<TRIPOS>ATOM
      1 N          19.6365  -36.3755    6.8650 N.am      2 SEC2        0.0000 
      2 N          19.2490  -35.4940    7.7370 N.am      8 SEL2        0.0000 
      3 N          20.0240  -37.2570    5.9930 N.am      5 SEP2        0.0000 
      4 CA         19.1265  -32.3250    7.0930 C.3       3 GLC5        0.0000 
      5 CA         18.7830  -34.2920    7.3210 C.3       9 GLL5        0.0000 
      6 CA         19.4700  -30.3580    6.8650 C.3       6 GLP5        0.0000 
      7 CA         17.0250  -33.2685    6.9600 C.3       3 GLC5        0.0000 
      8 CA         15.2670  -32.2450    6.5990 C.3       6 GLP5        0.0000 
      9 CA         17.5185  -35.4885    6.1705 C.3       3 GLC5        0.0000 
     10 CA         16.2540  -36.6850    5.0200 C.3       6 GLP5        0.0000 
     11 CA         20.6955  -34.4120    8.0090 C.3       3 GLC5        0.0000 
     12 CA         22.6080  -34.5320    8.6970 C.3       6 GLP5        0.0000 
     13 CA         18.4500  -31.6795    9.3510 C.3       3 GLC5        0.0000 
     14 CA         17.9480  -33.8590    9.4680 C.3       9 GLL5        0.0000 
     15 CA         18.9520  -29.5000    9.2340 C.3       6 GLP5        0.0000 
     16 CA         16.6075  -33.0520    8.0335 C.3       3 GLC5        0.0000 
     17 CA         17.8635  -33.5995   17.6840 C.3       3 GLC5        0.0000 
     18 CA         18.0580  -35.1630   16.2420 C.3       9 GLL5        0.0000 
     19 CA         17.6690  -32.0360   19.1260 C.3       6 GLP5        0.0000 
     20 CA         18.8275  -35.5005   17.8255 C.3       3 GLC5        0.0000 
     21 CA         19.5970  -35.8380   19.4090 C.3       6 GLP5        0.0000 
     22 CA         15.6475  -40.2850   17.1085 C.3       3 GLC5        0.0000 
     23 CA         17.0780  -40.9310   15.7150 C.3       9 GLL5        0.0000 
     24 CA         14.2170  -39.6390   18.5020 C.3       6 GLP5        0.0000 
     25 CA         23.5155  -38.6860   11.5135 C.3       3 GLC5        0.0000 
     26 CA         22.5940  -37.6280   12.8210 C.3       9 GLL5        0.0000 
     27 CA         24.4370  -39.7440   10.2060 C.3       6 GLP5        0.0000 
     28 CA         22.6130  -35.9930   12.0210 C.3       3 GLC5        0.0000 
     29 CA         22.6320  -34.3580   11.2210 C.3       6 GLP5        0.0000 
     30 CA         18.5345  -38.6460   10.2430 C.3       3 GLC5        0.0000 
     31 CA         19.6520  -37.2850    9.4680 C.3       9 GLL5        0.0000 
     32 CA         17.4170  -40.0070   11.0180 C.3       6 GLP5        0.0000 
     33 CA         20.9995  -38.9525    9.2850 C.3       3 GLC5        0.0000 
     34 CA         22.3470  -40.6200    9.1020 C.3       6 GLP5        0.0000 
     35 O          19.6450  -34.7840    5.2790 O.2       1 ALC1        0.0000 
     36 O          18.9550  -33.8870    6.0480 O.2       7 ALL1        0.0000 
     37 O          20.3350  -35.6810    4.5100 O.2       4 ALP1        0.0000 
     38 O          16.7285  -31.8635    9.5300 O.2       1 ALC1        0.0000 
     39 O          17.3010  -33.0450   10.3050 O.2       7 ALL1        0.0000 
     40 O          16.1560  -30.6820    8.7550 O.2       4 ALP1        0.0000 
     41 O          15.7685  -32.4875   10.1650 O.2       1 ALC1        0.0000 
     42 O          14.2360  -31.9300   10.0250 O.2       4 ALP1        0.0000 
     43 CA         17.1265  -37.3370   10.7505 C.3       3 GLC5        0.0000 
     44 CA         18.2200  -35.4820   11.2840 C.3       9 GLL5        0.0000 
     45 CA         16.0330  -39.1920   10.2170 C.3       6 GLP5        0.0000 
     46 CA         19.4385  -33.9410   11.2345 C.3       3 GLC5        0.0000 
     47 CA         20.6570  -32.4000   11.1850 C.3       6 GLP5        0.0000 
     48 CA         17.7230  -37.9030   11.7330 C.3       3 GLC5        0.0000 
     49 CA         18.0290  -35.7990   12.4480 C.3       9 GLL5        0.0000 
     50 CA         19.6060  -34.3210   12.4295 C.3       3 GLC5        0.0000 
     51 CA         21.1830  -32.8430   12.4110 C.3       6 GLP5        0.0000 
     52 CA         19.6270  -33.8700   13.5620 C.3       3 GLC5        0.0000 
     53 CA         18.0710  -34.8970   14.7130 C.3       9 GLL5        0.0000 
     54 CA         15.9450  -35.5190   13.2120 C.3       3 GLC5        0.0000 
     55 CA         17.7800  -36.1420   13.8550 C.3       9 GLL5        0.0000 
     56 CA         14.1100  -34.8960   12.5690 C.3       6 GLP5        0.0000 
     57 CA         18.5493  -33.2295   15.4392 C.3       3 GLC5        0.0000 
     58 CA         19.0340  -31.4290   15.4010 C.3       6 GLP5        0.0000 
     59 CA         20.9066  -35.4630    9.0821 C.3       3 GLC5        0.0000 
     60 CA         18.4230  -35.0900    9.9180 C.3       9 GLL5        0.0000 
     61 CA         16.3158  -35.3628   11.5495 C.3       3 GLC5        0.0000 
     62 CA         14.5070  -35.0850   11.2330 C.3       6 GLP5        0.0000 
     63 CA         17.9080  -38.9398   12.8087 C.3       3 GLC5        0.0000 
     64 CA         18.6720  -37.3330   14.2480 C.3       9 GLL5        0.0000 
     65 CA         18.7593  -38.1047   17.1575 C.3       3 GLC5        0.0000 
     66 CA         18.1260  -38.4120   14.9510 C.3       9 GLL5        0.0000 
     67 CA         18.9870  -37.2530   19.1890 C.3       6 GLP5        0.0000 
     68 CA         16.3251  -35.0850   15.6016 C.3       3 GLC5        0.0000 
     69 CA         14.7280  -34.5840   16.5370 C.3       6 GLP5        0.0000 
@<TRIPOS>BOND
@<TRIPOS>SUBSTRUCTURE
     1 ALC1       35 GROUP        1 X    ALC  0     ROOT ALC X 1
     2 SEC2        1 GROUP        1 X    SEC  0     **** SEC X 2
     3 GLC5        4 GROUP        1 X    GLC  0     **** GLC X 6
     4 ALP1       37 GROUP        1 Y    ALP  0     ROOT ALP Y 8
     5 SEP2        3 GROUP        1 Y    SEP  0     **** SEP Y 9
     6 GLP5        6 GROUP        1 Y    GLP  0     **** GLP Y 13
     7 ALL1       36 GROUP        1 Z    ALL  0     ROOT ALL Z 15
     8 SEL2        2 GROUP        1 Z    SEL  0     **** SEL Z 16
     9 GLL5        5 GROUP        1 Z    GLL  0     **** GLL Z 20
@<TRIPOS>SET

