#    Name: 3qlr_QLR_2_ligand
#    Modification time : Mon Apr  7 19:42:22 2014

@<TRIPOS>MOLECULE
3qlr_QLR_2_ligand
   50    51     1     0     0
SMALL
NO_CHARGES


@<TRIPOS>ATOM
      1 N1         19.2490  -35.4940    7.7370 N.ar      1 QLR194      0.0000 
      2 C2         18.7830  -34.2920    7.3210 C.ar      1 QLR194      0.0000 
      3 N3         18.1340  -33.4970    8.1830 N.ar      1 QLR194      0.0000 
      4 C4         17.9480  -33.8590    9.4680 C.ar      1 QLR194      0.0000 
      5 C5         18.4230  -35.0900    9.9180 C.ar      1 QLR194      0.0000 
      6 C6         19.0940  -35.9160    9.0150 C.ar      1 QLR194      0.0000 
      7 CAA        18.0580  -35.1630   16.2420 C.3       1 QLR194      0.0000 
      8 CAB        17.0780  -40.9310   15.7150 C.3       1 QLR194      0.0000 
      9 CAC        22.5940  -37.6280   12.8210 C.3       1 QLR194      0.0000 
     10 CAD        21.6990  -41.2310   14.2200 C.3       1 QLR194      0.0000 
     11 CAE        19.6520  -37.2850    9.4680 C.3       1 QLR194      0.0000 
     12 NAF        18.9550  -33.8870    6.0480 N.pl3     1 QLR194      0.0000 
     13 NAG        17.3010  -33.0450   10.3050 N.pl3     1 QLR194      0.0000 
     14 CAH        18.2200  -35.4820   11.2840 C.1       1 QLR194      0.0000 
     15 CAI        18.0290  -35.7990   12.4480 C.1       1 QLR194      0.0000 
     16 CAJ        18.1260  -38.4120   14.9510 C.ar      1 QLR194      0.0000 
     17 CAK        20.0230  -37.3320   13.8960 C.ar      1 QLR194      0.0000 
     18 CAL        18.0710  -34.8970   14.7130 C.3       1 QLR194      0.0000 
     19 OAO        18.4550  -40.5880   16.0000 O.3       1 QLR194      0.0000 
     20 OAP        22.1720  -38.4370   13.9180 O.3       1 QLR194      0.0000 
     21 OAQ        21.0480  -40.5540   15.3250 O.3       1 QLR194      0.0000 
     22 CAU        18.6720  -37.3330   14.2480 C.ar      1 QLR194      0.0000 
     23 CAW        18.9370  -39.5010   15.3010 C.ar      1 QLR194      0.0000 
     24 CAX        20.8380  -38.4140   14.2430 C.ar      1 QLR194      0.0000 
     25 CAY        20.2870  -39.4940   14.9460 C.ar      1 QLR194      0.0000 
     26 CAZ        17.7800  -36.1420   13.8550 C.3       1 QLR194      0.0000 
     27 H          18.5585  -33.0001    5.8110 H         1 QLR194      0.0000 
     28 H          19.4639  -34.5093    5.4532 H         1 QLR194      0.0000 
     29 H          17.5517  -33.1168   11.2704 H         1 QLR194      0.0000 
     30 H          16.6237  -32.4365    9.8914 H         1 QLR194      0.0000 
     31 H          17.1350  -38.4081   15.2105 H         1 QLR194      0.0000 
     32 H          20.4194  -36.5368   13.3820 H         1 QLR194      0.0000 
     33 H          19.0557  -34.4940   14.4369 H         1 QLR194      0.0000 
     34 H          17.3236  -34.1234   14.4866 H         1 QLR194      0.0000 
     35 H          16.7521  -36.4185   13.9899 H         1 QLR194      0.0000 
     36 H          18.7400  -35.8450   16.5061 H         1 QLR194      0.0000 
     37 H          18.2550  -34.3337   16.7649 H         1 QLR194      0.0000 
     38 H          17.1697  -35.5013   16.5526 H         1 QLR194      0.0000 
     39 H          16.9433  -41.1557   14.7499 H         1 QLR194      0.0000 
     40 H          16.7751  -41.7228   16.2453 H         1 QLR194      0.0000 
     41 H          16.4556  -40.1785   15.9304 H         1 QLR194      0.0000 
     42 H          23.5766  -37.7110   12.6547 H         1 QLR194      0.0000 
     43 H          22.1306  -37.8823   11.9721 H         1 QLR194      0.0000 
     44 H          22.4044  -36.6590   12.9796 H         1 QLR194      0.0000 
     45 H          22.3134  -40.6203   13.7204 H         1 QLR194      0.0000 
     46 H          22.2468  -42.0076   14.5311 H         1 QLR194      0.0000 
     47 H          21.0369  -41.5852   13.5595 H         1 QLR194      0.0000 
     48 H          20.6434  -37.3398    9.3489 H         1 QLR194      0.0000 
     49 H          19.4626  -37.4621   10.4338 H         1 QLR194      0.0000 
     50 H          19.2521  -38.0396    8.9477 H         1 QLR194      0.0000 
@<TRIPOS>BOND
     1    2    1 ar   
     2    6    1 ar   
     3    3    2 ar   
     4   12    2 1    
     5    4    3 ar   
     6    5    4 ar   
     7   13    4 1    
     8    6    5 ar   
     9   14    5 1    
    10   11    6 1    
    11   18    7 1    
    12   36    7 1    
    13   37    7 1    
    14   38    7 1    
    15   19    8 1    
    16   39    8 1    
    17   40    8 1    
    18   41    8 1    
    19   20    9 1    
    20   42    9 1    
    21   43    9 1    
    22   44    9 1    
    23   21   10 1    
    24   45   10 1    
    25   46   10 1    
    26   47   10 1    
    27   48   11 1    
    28   49   11 1    
    29   50   11 1    
    30   27   12 1    
    31   28   12 1    
    32   29   13 1    
    33   30   13 1    
    34   15   14 3    
    35   26   15 1    
    36   22   16 ar   
    37   23   16 ar   
    38   31   16 1    
    39   22   17 ar   
    40   24   17 ar   
    41   32   17 1    
    42   26   18 1    
    43   33   18 1    
    44   34   18 1    
    45   23   19 1    
    46   24   20 1    
    47   25   21 1    
    48   26   22 1    
    49   25   23 ar   
    50   25   24 ar   
    51   35   26 1    
@<TRIPOS>SUBSTRUCTURE
     1 QLR194      1 GROUP   
@<TRIPOS>SET

