#    Name: 2c5n_CK8_2_INTS_M
#    Modification time : Mon Mar 24 22:40:09 2014

@<TRIPOS>MOLECULE
2c5n_CK8_2_INTS_M
   64     0     9     0     0
SMALL
NO_CHARGES


@<TRIPOS>ATOM
      1 CA         45.2455   45.6555   18.9370 C.3       3 GLC5        0.0000 
      2 CA         45.2560   47.2000   20.1590 C.3       9 GLL5        0.0000 
      3 CA         45.2350   44.1110   17.7150 C.3       6 GLP5        0.0000 
      4 CA         46.7185   47.5595   18.6610 C.3       3 GLC5        0.0000 
      5 CA         48.1810   47.9190   17.1630 C.3       6 GLP5        0.0000 
      6 N          46.7090   45.5940   19.6585 N.am      2 SEC2        0.0000 
      7 N          46.0390   46.3460   20.7990 N.am      8 SEL2        0.0000 
      8 N          47.3790   44.8420   18.5180 N.am      5 SEP2        0.0000 
      9 CA         45.0130   45.2970   23.2630 C.3       3 GLC5        0.0000 
     10 CA         46.2470   46.4650   22.1170 C.3       9 GLL5        0.0000 
     11 CA         43.7790   44.1290   24.4090 C.3       6 GLP5        0.0000 
     12 CA         44.2340   46.0455   21.5005 C.3       3 GLC5        0.0000 
     13 CA         42.2210   45.6260   20.8840 C.3       6 GLP5        0.0000 
     14 CA         46.8925   48.1150   21.5755 C.3       3 GLC5        0.0000 
     15 CA         47.5380   49.7650   21.0340 C.3       6 GLP5        0.0000 
     16 CA         44.8525   49.5250   19.1145 C.3       3 GLC5        0.0000 
     17 CA         44.6080   48.2010   20.8700 C.3       9 GLL5        0.0000 
     18 CA         45.0970   50.8490   17.3590 C.3       6 GLP5        0.0000 
     19 CA         42.9575   48.4080   19.5125 C.3       3 GLC5        0.0000 
     20 CA         41.3070   48.6150   18.1550 C.3       6 GLP5        0.0000 
     21 CA         44.5730   46.4605   25.6095 C.3       3 GLC5        0.0000 
     22 CA         45.3370   48.5350   25.3340 C.3       9 GLL5        0.0000 
     23 CA         43.8090   44.3860   25.8850 C.3       6 GLP5        0.0000 
     24 CA         43.3815   47.5880   25.1570 C.3       3 GLC5        0.0000 
     25 CA         41.4260   46.6410   24.9800 C.3       6 GLP5        0.0000 
     26 CA         42.0910   52.3970   26.7200 C.3       3 GLC5        0.0000 
     27 CA         42.3800   52.2060   24.6350 C.3       9 GLL5        0.0000 
     28 CA         41.8020   52.5880   28.8050 C.3       6 GLP5        0.0000 
     29 CA         41.6040   50.3690   25.5415 C.3       3 GLC5        0.0000 
     30 CA         40.8280   48.5320   26.4480 C.3       6 GLP5        0.0000 
     31 CA         40.7345   52.5445   24.8745 C.3       3 GLC5        0.0000 
     32 CA         39.0890   52.8830   25.1140 C.3       6 GLP5        0.0000 
     33 CA         43.5305   54.0735   24.4180 C.3       3 GLC5        0.0000 
     34 CA         44.6810   55.9410   24.2010 C.3       6 GLP5        0.0000 
     35 O          47.8280   44.7595   21.6750 O.2       1 ALC1        0.0000 
     36 O          47.0990   45.5430   22.5790 O.2       7 ALL1        0.0000 
     37 O          48.5570   43.9760   20.7710 O.2       4 ALP1        0.0000 
     38 CA         45.7085   44.7190   24.1005 C.3       3 GLC5        0.0000 
     39 CA         47.6380   45.3090   23.7920 C.3       9 GLL5        0.0000 
     40 CA         49.7905   43.4625   22.3040 C.3       3 GLC5        0.0000 
     41 CA         48.5020   44.2210   23.8840 C.3       9 GLL5        0.0000 
     42 CA         51.0790   42.7040   20.7240 C.3       6 GLP5        0.0000 
     43 CA         45.5755   45.2245   25.3990 C.3       3 GLC5        0.0000 
     44 CA         47.3420   46.0630   24.9130 C.3       9 GLL5        0.0000 
     45 CA         50.7415   45.5115   29.2335 C.3       3 GLC5        0.0000 
     46 CA         48.9400   45.1750   28.5940 C.3       9 GLL5        0.0000 
     47 CA         52.5430   45.8480   29.8730 C.3       6 GLP5        0.0000 
     48 CA         51.5160   43.8415   26.0255 C.3       3 GLC5        0.0000 
     49 CA         50.2260   43.2420   27.6220 C.3       9 GLL5        0.0000 
     50 CA         52.8060   44.4410   24.4290 C.3       6 GLP5        0.0000 
     51 CA         51.3845   44.5450   28.7475 C.3       3 GLC5        0.0000 
     52 CA         46.2350   48.7328   20.7742 C.3       3 GLC5        0.0000 
     53 CA         43.5572   46.8174   21.1256 C.3       3 GLC5        0.0000 
     54 CA         46.0433   49.2820   21.8227 C.3       3 GLC5        0.0000 
     55 CA         44.8550   48.3170   22.2200 C.3       9 GLL5        0.0000 
     56 CA         42.9053   47.9805   24.3520 C.3       3 GLC5        0.0000 
     57 CA         44.2420   49.2810   23.0030 C.3       9 GLL5        0.0000 
     58 CA         49.8985   44.9255   23.6965 C.3       3 GLC5        0.0000 
     59 CA         51.7270   45.0860   23.5550 C.3       6 GLP5        0.0000 
     60 CA         50.3245   44.6750   24.6142 C.3       3 GLC5        0.0000 
     61 CA         49.0670   43.8830   25.1090 C.3       9 GLL5        0.0000 
     62 CA         46.5475   44.3047   26.3908 C.3       3 GLC5        0.0000 
     63 CA         48.7770   44.6450   26.2380 C.3       9 GLL5        0.0000 
     64 CA         44.7500   43.4240   26.5950 C.3       6 GLP5        0.0000 
@<TRIPOS>BOND
@<TRIPOS>SUBSTRUCTURE
     1 ALC1       35 GROUP        1 X    ALC  0     ROOT ALC X 1
     2 SEC2        6 GROUP        1 X    SEC  0     **** SEC X 2
     3 GLC5        1 GROUP        1 X    GLC  0     **** GLC X 6
     4 ALP1       37 GROUP        1 Y    ALP  0     ROOT ALP Y 8
     5 SEP2        8 GROUP        1 Y    SEP  0     **** SEP Y 9
     6 GLP5        3 GROUP        1 Y    GLP  0     **** GLP Y 13
     7 ALL1       36 GROUP        1 Z    ALL  0     ROOT ALL Z 15
     8 SEL2        7 GROUP        1 Z    SEL  0     **** SEL Z 16
     9 GLL5        2 GROUP        1 Z    GLL  0     **** GLL Z 20
@<TRIPOS>SET

