#    Name: 2c5n_CK8_2_ligand
#    Modification time : Mon Mar 24 22:40:09 2014

@<TRIPOS>MOLECULE
2c5n_CK8_2_ligand
   42    44     1     0     0
SMALL
NO_CHARGES


@<TRIPOS>ATOM
      1 C6         45.2560   47.2000   20.1590 C.ar      1 CK81298     0.0000 
      2 N1         46.0390   46.3460   20.7990 N.ar      1 CK81298     0.0000 
      3 C2         46.2470   46.4650   22.1170 C.ar      1 CK81298     0.0000 
      4 N3         45.6530   47.4260   22.8110 N.ar      1 CK81298     0.0000 
      5 C4         44.8550   48.3170   22.2200 C.ar      1 CK81298     0.0000 
      6 C5         44.6080   48.2010   20.8700 C.ar      1 CK81298     0.0000 
      7 C5A        44.2420   49.2810   23.0030 C.2       1 CK81298     0.0000 
      8 C1A        44.5270   49.3590   24.4450 C.2       1 CK81298     0.0000 
      9 N2A        43.9070   50.3670   25.0570 N.2       1 CK81298     0.0000 
     10 C3A        43.1780   51.0240   24.1440 C.2       1 CK81298     0.0000 
     11 S4A        43.2170   50.5190   22.5210 S.3       1 CK81298     0.0000 
     12 C6A        45.3370   48.5350   25.3340 C.3       1 CK81298     0.0000 
     13 C7A        42.3800   52.2060   24.6350 C.3       1 CK81298     0.0000 
     14 N7         47.0990   45.5430   22.5790 N.pl3     1 CK81298     0.0000 
     15 C1B        47.6380   45.3090   23.7920 C.ar      1 CK81298     0.0000 
     16 C2B        48.5020   44.2210   23.8840 C.ar      1 CK81298     0.0000 
     17 C3B        49.0670   43.8830   25.1090 C.ar      1 CK81298     0.0000 
     18 C4B        48.7770   44.6450   26.2380 C.ar      1 CK81298     0.0000 
     19 C5B        47.9130   45.7260   26.1350 C.ar      1 CK81298     0.0000 
     20 C6B        47.3420   46.0630   24.9130 C.ar      1 CK81298     0.0000 
     21 N7B        49.3060   44.3550   27.4510 N.pl3     1 CK81298     0.0000 
     22 C8B        48.9400   45.1750   28.5940 C.3       1 CK81298     0.0000 
     23 C9B        50.2260   43.2420   27.6220 C.3       1 CK81298     0.0000 
     24 H          45.1083   47.1465   19.1336 H         1 CK81298     0.0000 
     25 H          43.9625   48.8356   20.3972 H         1 CK81298     0.0000 
     26 H          47.4410   44.8023   21.7875 H         1 CK81298     0.0000 
     27 H          48.7219   43.6679   23.0458 H         1 CK81298     0.0000 
     28 H          49.6956   43.0750   25.1816 H         1 CK81298     0.0000 
     29 H          47.6911   46.2867   26.9741 H         1 CK81298     0.0000 
     30 H          46.7062   46.8656   24.8467 H         1 CK81298     0.0000 
     31 H          46.2966   48.5181   25.0531 H         1 CK81298     0.0000 
     32 H          45.3131   48.8705   26.2757 H         1 CK81298     0.0000 
     33 H          45.0203   47.5867   25.3526 H         1 CK81298     0.0000 
     34 H          42.9666   52.9085   25.0380 H         1 CK81298     0.0000 
     35 H          41.8674   52.6413   23.8949 H         1 CK81298     0.0000 
     36 H          41.7165   51.9413   25.3348 H         1 CK81298     0.0000 
     37 H          49.3903   44.8664   29.4319 H         1 CK81298     0.0000 
     38 H          49.1941   46.1329   28.4604 H         1 CK81298     0.0000 
     39 H          47.9551   45.1542   28.7658 H         1 CK81298     0.0000 
     40 H          51.0458   43.3480   27.0593 H         1 CK81298     0.0000 
     41 H          50.5308   43.1544   28.5704 H         1 CK81298     0.0000 
     42 H          49.8063   42.3708   27.3673 H         1 CK81298     0.0000 
@<TRIPOS>BOND
     1    2    1 ar   
     2    6    1 ar   
     3   24    1 1    
     4    3    2 ar   
     5    4    3 ar   
     6   14    3 1    
     7    5    4 ar   
     8    6    5 ar   
     9    7    5 1    
    10   25    6 1    
    11    8    7 2    
    12   11    7 1    
    13    9    8 1    
    14   12    8 1    
    15   10    9 2    
    16   11   10 1    
    17   13   10 1    
    18   31   12 1    
    19   32   12 1    
    20   33   12 1    
    21   34   13 1    
    22   35   13 1    
    23   36   13 1    
    24   15   14 1    
    25   26   14 1    
    26   16   15 ar   
    27   20   15 ar   
    28   17   16 ar   
    29   27   16 1    
    30   18   17 ar   
    31   28   17 1    
    32   19   18 ar   
    33   21   18 1    
    34   20   19 ar   
    35   29   19 1    
    36   30   20 1    
    37   22   21 1    
    38   23   21 1    
    39   37   22 1    
    40   38   22 1    
    41   39   22 1    
    42   40   23 1    
    43   41   23 1    
    44   42   23 1    
@<TRIPOS>SUBSTRUCTURE
     1 CK81298     1 GROUP   
@<TRIPOS>SET

