#    Name: 2VBV_2_CAVITY_N1_6.mol2
#    Modification time : Mon Mar 10 15:51:01 2014

@<TRIPOS>MOLECULE
2VBV_2_CAVITY_N1_6.mol2
  108     0     6     0     0
SMALL
NO_CHARGES


@<TRIPOS>ATOM
      1 N         -12.0653  -24.9749   -6.2963 N.2       2 ALA2        0.0000 
      2 CA        -12.9094  -10.8790   -2.8191 C.3       5 GLY6        0.0000 
      3 CA        -11.5964  -10.9413   -3.5416 C.3       5 GLY6        0.0000 
      4 CA        -13.6333  -11.0809   -4.1172 C.3       5 GLY6        0.0000 
      5 CA        -12.3203  -11.1433   -4.8397 C.3       5 GLY6        0.0000 
      6 CZ        -11.0072  -11.2057   -5.5623 C.ar      4 PHE5        0.0000 
      7 CA        -13.0442  -11.3453   -6.1379 C.3       5 GLY6        0.0000 
      8 NZ        -15.3623  -16.6943   -0.5464 N.2       3 LYS4        0.0000 
      9 NZ        -17.3993  -16.8339   -1.1221 N.2       3 LYS4        0.0000 
     10 CZ        -16.0862  -16.8963   -1.8446 C.ar      4 PHE5        0.0000 
     11 CZ        -14.7732  -16.9587   -2.5671 C.ar      4 PHE5        0.0000 
     12 N         -16.8101  -17.0983   -3.1427 N.2       2 ALA2        0.0000 
     13 N         -15.4971  -17.1607   -3.8652 N.2       2 ALA2        0.0000 
     14 CZ        -14.1840  -17.2230   -4.5877 C.ar      4 PHE5        0.0000 
     15 CZ        -12.8710  -17.2854   -5.3102 C.ar      4 PHE5        0.0000 
     16 CZ        -11.5579  -17.3478   -6.0327 C.ar      4 PHE5        0.0000 
     17 N         -14.9079  -17.4250   -5.8859 N.2       2 ALA2        0.0000 
     18 DU        -13.5949  -17.4874   -6.6084 H         6 CUB7        0.0000 
     19 OG        -12.2818  -17.5498   -7.3309 O.2       1 SER1        0.0000 
     20 N         -15.6318  -17.6270   -7.1840 N.2       2 ALA2        0.0000 
     21 CA        -14.3188  -17.6894   -7.9065 C.3       5 GLY6        0.0000 
     22 CA        -16.7187  -15.1469   -0.0308 C.3       5 GLY6        0.0000 
     23 CA        -15.4056  -15.2093   -0.7534 C.3       5 GLY6        0.0000 
     24 CZ        -14.0926  -15.2717   -1.4759 C.ar      4 PHE5        0.0000 
     25 OG        -17.4426  -15.3489   -1.3290 O.2       1 SER1        0.0000 
     26 DU        -16.1295  -15.4113   -2.0515 H         6 CUB7        0.0000 
     27 CZ        -14.8165  -15.4736   -2.7740 C.ar      4 PHE5        0.0000 
     28 CZ        -13.5034  -15.5360   -3.4965 C.ar      4 PHE5        0.0000 
     29 N         -16.8534  -15.6132   -3.3496 N.2       2 ALA2        0.0000 
     30 CA        -15.5404  -15.6756   -4.0721 C.3       5 GLY6        0.0000 
     31 CA        -14.2273  -15.7380   -4.7946 C.3       5 GLY6        0.0000 
     32 CZ        -12.9143  -15.8004   -5.5172 C.ar      4 PHE5        0.0000 
     33 OG        -11.6012  -15.8628   -6.2397 O.2       1 SER1        0.0000 
     34 CA        -13.6382  -16.0024   -6.8153 C.3       5 GLY6        0.0000 
     35 OG        -12.3251  -16.0648   -7.5378 O.2       1 SER1        0.0000 
     36 DU        -11.9739  -23.0236   -3.1844 H         6 CUB7        0.0000 
     37 CA        -10.6608  -23.0859   -3.9069 C.3       5 GLY6        0.0000 
     38 DU        -14.0108  -23.1632   -3.7601 H         6 CUB7        0.0000 
     39 DU        -12.6978  -23.2255   -4.4826 H         6 CUB7        0.0000 
     40 N         -11.3847  -23.2879   -5.2051 N.2       2 ALA2        0.0000 
     41 DU        -14.7347  -23.3651   -5.0582 H         6 CUB7        0.0000 
     42 N         -13.4217  -23.4275   -5.7807 N.2       2 ALA2        0.0000 
     43 CZ        -14.1456  -23.6295   -7.0789 C.ar      4 PHE5        0.0000 
     44 CZ        -12.6063  -21.2742   -1.3707 C.ar      4 PHE5        0.0000 
     45 CZ        -13.3302  -21.4761   -2.6689 C.ar      4 PHE5        0.0000 
     46 CZ        -12.0172  -21.5385   -3.3914 C.ar      4 PHE5        0.0000 
     47 CZ        -10.7041  -21.6009   -4.1139 C.ar      4 PHE5        0.0000 
     48 DU        -15.3672  -21.6157   -3.2445 H         6 CUB7        0.0000 
     49 CZ        -14.0541  -21.6781   -3.9670 C.ar      4 PHE5        0.0000 
     50 CZ        -12.7411  -21.7405   -4.6895 C.ar      4 PHE5        0.0000 
     51 CZ        -11.4280  -21.8029   -5.4120 C.ar      4 PHE5        0.0000 
     52 CA        -16.0911  -21.8177   -4.5426 C.3       5 GLY6        0.0000 
     53 DU        -14.7780  -21.8801   -5.2651 H         6 CUB7        0.0000 
     54 N         -13.4650  -21.9425   -5.9876 N.2       2 ALA2        0.0000 
     55 CA        -16.8150  -22.0197   -5.8408 C.3       5 GLY6        0.0000 
     56 CZ        -15.5019  -22.0821   -6.5633 C.ar      4 PHE5        0.0000 
     57 CZ        -14.1889  -22.1445   -7.2858 C.ar      4 PHE5        0.0000 
     58 O         -16.0381  -13.4599    1.0604 O.2       2 ALA2        0.0000 
     59 NZ        -16.7620  -13.6619   -0.2378 N.2       3 LYS4        0.0000 
     60 NZ        -15.4489  -13.7243   -0.9603 N.2       3 LYS4        0.0000 
     61 NZ        -14.1359  -13.7866   -1.6828 N.2       3 LYS4        0.0000 
     62 CA        -12.8228  -13.8490   -2.4053 C.3       5 GLY6        0.0000 
     63 NZ        -17.4859  -13.8639   -1.5359 N.2       3 LYS4        0.0000 
     64 NZ        -16.1728  -13.9262   -2.2584 N.2       3 LYS4        0.0000 
     65 CA        -14.8598  -13.9886   -2.9809 C.3       5 GLY6        0.0000 
     66 CZ        -13.5467  -14.0510   -3.7034 C.ar      4 PHE5        0.0000 
     67 CA        -12.2337  -14.1134   -4.4259 C.3       5 GLY6        0.0000 
     68 CA        -10.9206  -14.1758   -5.1484 C.3       5 GLY6        0.0000 
     69 CA        -14.2706  -14.2530   -5.0016 C.3       5 GLY6        0.0000 
     70 CA        -12.9576  -14.3154   -5.7241 C.3       5 GLY6        0.0000 
     71 CA        -11.6445  -14.3777   -6.4466 C.3       5 GLY6        0.0000 
     72 NZ        -12.8661  -12.3640   -2.6122 N.2       3 LYS4        0.0000 
     73 CA        -11.5531  -12.4264   -3.3347 C.3       5 GLY6        0.0000 
     74 CA        -10.2400  -12.4888   -4.0572 C.3       5 GLY6        0.0000 
     75 NZ        -14.9031  -12.5036   -3.1878 N.2       3 LYS4        0.0000 
     76 CA        -13.5900  -12.5660   -3.9103 C.3       5 GLY6        0.0000 
     77 CA        -12.2770  -12.6284   -4.6328 C.3       5 GLY6        0.0000 
     78 CA        -10.9639  -12.6907   -5.3553 C.3       5 GLY6        0.0000 
     79 CA        -13.0009  -12.8303   -5.9310 C.3       5 GLY6        0.0000 
     80 CA        -11.6878  -12.8927   -6.6535 C.3       5 GLY6        0.0000 
     81 NZ        -15.2757  -19.6644   -0.1326 N.2       3 LYS4        0.0000 
     82 NZ        -17.3127  -19.8040   -0.7083 N.2       3 LYS4        0.0000 
     83 NZ        -15.9996  -19.8664   -1.4308 N.2       3 LYS4        0.0000 
     84 CZ        -14.6866  -19.9287   -2.1533 C.ar      4 PHE5        0.0000 
     85 DU        -18.0366  -20.0059   -2.0064 H         6 CUB7        0.0000 
     86 N         -16.7235  -20.0683   -2.7289 N.2       2 ALA2        0.0000 
     87 CZ        -15.4105  -20.1307   -3.4514 C.ar      4 PHE5        0.0000 
     88 CZ        -14.0974  -20.1931   -4.1739 C.ar      4 PHE5        0.0000 
     89 CZ        -12.7844  -20.2555   -4.8964 C.ar      4 PHE5        0.0000 
     90 CZ        -11.4713  -20.3179   -5.6189 C.ar      4 PHE5        0.0000 
     91 N         -17.4474  -20.2703   -4.0270 N.2       2 ALA2        0.0000 
     92 N         -16.1344  -20.3327   -4.7495 N.2       2 ALA2        0.0000 
     93 DU        -14.8213  -20.3951   -5.4721 H         6 CUB7        0.0000 
     94 CZ        -13.5083  -20.4575   -6.1946 C.ar      4 PHE5        0.0000 
     95 CA        -12.1952  -20.5198   -6.9171 C.3       5 GLY6        0.0000 
     96 CZ        -15.5452  -20.5971   -6.7702 C.ar      4 PHE5        0.0000 
     97 NZ        -15.3190  -18.1793   -0.3395 N.2       3 LYS4        0.0000 
     98 NZ        -17.3560  -18.3189   -0.9152 N.2       3 LYS4        0.0000 
     99 NZ        -16.0429  -18.3813   -1.6377 N.2       3 LYS4        0.0000 
    100 O         -18.0799  -18.5209   -2.2133 O.2       2 ALA2        0.0000 
    101 N         -16.7668  -18.5833   -2.9358 N.2       2 ALA2        0.0000 
    102 N         -15.4538  -18.6457   -3.6583 N.2       2 ALA2        0.0000 
    103 CZ        -14.1407  -18.7081   -4.3808 C.ar      4 PHE5        0.0000 
    104 N         -14.8646  -18.9100   -5.6790 N.2       2 ALA2        0.0000 
    105 CZ        -13.5516  -18.9724   -6.4015 C.ar      4 PHE5        0.0000 
    106 O         -12.2385  -19.0348   -7.1240 O.2       2 ALA2        0.0000 
    107 N         -15.5885  -19.1120   -6.9771 N.2       2 ALA2        0.0000 
    108 CZ        -14.2755  -19.1744   -7.6996 C.ar      4 PHE5        0.0000 
@<TRIPOS>BOND
@<TRIPOS>SUBSTRUCTURE
     1 SER1       19 GROUP   
     2 ALA2        1 GROUP   
     3 LYS4        8 GROUP   
     4 PHE5        6 GROUP   
     5 GLY6        2 GROUP   
     6 CUB7       18 GROUP   
@<TRIPOS>SET

