#    Name: 2vbv_FMN_2_INTS_M
#    Modification time : Tue Mar 25 01:24:31 2014

@<TRIPOS>MOLECULE
2vbv_FMN_2_INTS_M
   71     0    12     0     0
SMALL
NO_CHARGES


@<TRIPOS>ATOM
      1 N         -12.4320  -19.1950   -8.5655 N.am      2 SEC2        0.0000 
      2 N         -12.5690  -18.9510   -6.9280 N.am     10 SEL2        0.0000 
      3 N         -12.2950  -19.4390  -10.2030 N.am      6 SEP2        0.0000 
      4 CA        -14.6780  -14.7600   -5.9390 C.3       4 GLC5        0.0000 
      5 CA        -12.8200  -15.2860   -5.2360 C.3      12 GLL5        0.0000 
      6 CA        -16.5360  -14.2340   -6.6420 C.3       8 GLP5        0.0000 
      7 CA        -10.0190  -10.9385   -3.8190 C.3       4 GLC5        0.0000 
      8 CA        -11.0900  -11.9840   -5.4040 C.3      12 GLL5        0.0000 
      9 CA         -8.9480   -9.8930   -2.2340 C.3       8 GLP5        0.0000 
     10 CA         -9.4945  -12.5395   -6.7145 C.3       4 GLC5        0.0000 
     11 CA         -7.8990  -13.0950   -8.0250 C.3       8 GLP5        0.0000 
     12 CA         -9.8425  -10.7475   -6.1345 C.3       4 GLC5        0.0000 
     13 CA         -8.5950   -9.5110   -6.8650 C.3       8 GLP5        0.0000 
     14 CA        -11.5705  -10.4035   -2.3090 C.3       4 GLC5        0.0000 
     15 CA        -13.1040  -11.5650   -3.1490 C.3      12 GLL5        0.0000 
     16 CA        -10.0370   -9.2420   -1.4690 C.3       8 GLP5        0.0000 
     17 CA        -13.1015  -10.2485   -2.0715 C.3       4 GLC5        0.0000 
     18 CA        -13.0990   -8.9320   -0.9940 C.3       8 GLP5        0.0000 
     19 CA        -13.7360  -10.0165   -3.9645 C.3       4 GLC5        0.0000 
     20 CA        -14.3680   -8.4680   -4.7800 C.3       8 GLP5        0.0000 
     21 CA        -16.2620  -14.5030   -4.3595 C.3       4 GLC5        0.0000 
     22 CA        -15.9310  -15.8290   -3.1280 C.3      12 GLL5        0.0000 
     23 CA        -16.5930  -13.1770   -5.5910 C.3       8 GLP5        0.0000 
     24 CA        -17.9400  -16.1575   -3.5315 C.3       4 GLC5        0.0000 
     25 CA        -19.9490  -16.4860   -3.9350 C.3       8 GLP5        0.0000 
     26 CA        -18.4290  -16.2560   -2.3595 C.3       4 GLC5        0.0000 
     27 CA        -16.9090  -16.0260   -0.7840 C.3      12 GLL5        0.0000 
     28 CA        -18.3525  -16.2395    0.3465 C.3       4 GLC5        0.0000 
     29 CA        -19.7960  -16.4530    1.4770 C.3       8 GLP5        0.0000 
     30 N         -19.1430  -15.3480   -2.0550 N.am      2 SEC2        0.0000 
     31 N         -18.1310  -16.2920   -1.4060 N.am     10 SEL2        0.0000 
     32 N         -20.1550  -14.4040   -2.7040 N.am      6 SEP2        0.0000 
     33 N         -19.5235  -16.6855   -1.5880 N.am      2 SEC2        0.0000 
     34 N         -20.9160  -17.0790   -1.7700 N.am      6 SEP2        0.0000 
     35 O         -16.3895  -12.2645   -1.2580 O.2       1 ALC1        0.0000 
     36 O         -17.0420  -13.7280   -1.5070 O.2       9 ALL1        0.0000 
     37 O         -15.7370  -10.8010   -1.0090 O.2       5 ALP1        0.0000 
     38 CA        -14.1830  -13.3645    1.0180 C.3       4 GLC5        0.0000 
     39 CA        -15.7770  -14.2220    0.4770 C.3      12 GLL5        0.0000 
     40 CA        -12.5890  -12.5070    1.5590 C.3       8 GLP5        0.0000 
     41 Zn        -15.9420  -10.2925    2.7040 Zn        3 ZIC7        0.0000 
     42 Zn        -16.2780  -11.2420    2.6910 Zn       11 ZIL7        0.0000 
     43 Zn        -15.6060   -9.3430    2.7170 Zn        7 ZIP7        0.0000 
     44 N         -17.7080  -10.4595    2.9205 N.am      2 SEC2        0.0000 
     45 N         -16.2780  -11.2420    2.6910 N.am     10 SEL2        0.0000 
     46 N         -19.1380   -9.6770    3.1500 N.am      6 SEP2        0.0000 
     47 N         -18.6110  -11.2610    2.7990 N.am      2 SEC2        0.0000 
     48 N         -18.0840  -12.8450    2.4480 N.am     10 SEL2        0.0000 
     49 N         -19.1745  -13.2955    3.1185 N.am      2 SEC2        0.0000 
     50 N         -20.2650  -13.7460    3.7890 N.am      6 SEP2        0.0000 
     51 N         -15.2270  -14.3200    4.1010 N.am      2 SEC2        0.0000 
     52 N         -16.0280  -13.6230    3.5650 N.am     10 SEL2        0.0000 
     53 N         -14.4260  -15.0170    4.6370 N.am      6 SEP2        0.0000 
     54 N         -14.6185  -13.5235    3.0495 N.am      2 SEC2        0.0000 
     55 N         -13.2090  -13.4240    2.5340 N.am      6 SEP2        0.0000 
     56 CA        -12.7267  -13.9695   -7.0803 C.3       4 GLC5        0.0000 
     57 CA        -11.9510  -14.2700   -5.5790 C.3      12 GLL5        0.0000 
     58 CA        -13.0680  -13.1610   -8.7530 C.3       8 GLP5        0.0000 
     59 CA        -10.8353  -13.7305   -3.8718 C.3       4 GLC5        0.0000 
     60 CA        -12.0790  -13.0360   -5.0070 C.3      12 GLL5        0.0000 
     61 CA        -10.0860  -14.9510   -2.5380 C.3       8 GLP5        0.0000 
     62 CA        -12.3262  -12.8355   -6.9793 C.3       4 GLC5        0.0000 
     63 CA        -15.1300  -13.6865   -4.8285 C.3       4 GLC5        0.0000 
     64 CA        -13.8250  -15.0780   -4.2720 C.3      12 GLL5        0.0000 
     65 CA        -14.1133  -17.0008   -2.1910 C.3       4 GLC5        0.0000 
     66 CA        -12.3820  -17.9020   -1.9650 C.3       8 GLP5        0.0000 
     67 CA        -17.9542  -14.9130    1.1582 C.3       4 GLC5        0.0000 
     68 CA        -19.5290  -15.4260    2.2670 C.3       8 GLP5        0.0000 
     69 CA        -15.6596  -15.6280    1.3430 C.3       4 GLC5        0.0000 
     70 CA        -14.9580  -16.4940    2.7380 C.3       8 GLP5        0.0000 
     71 CA        -11.6966  -14.5360   -3.4439 C.3       4 GLC5        0.0000 
@<TRIPOS>BOND
@<TRIPOS>SUBSTRUCTURE
     1 ALC1       35 GROUP        1 X    ALC  0     ROOT ALC X 1
     2 SEC2        1 GROUP        1 X    SEC  0     **** SEC X 2
     3 ZIC7       41 GROUP        1 X    ZIC  0     **** ZIC X 5
     4 GLC5        4 GROUP        1 X    GLC  0     **** GLC X 6
     5 ALP1       37 GROUP        1 Y    ALP  0     ROOT ALP Y 8
     6 SEP2        3 GROUP        1 Y    SEP  0     **** SEP Y 9
     7 ZIP7       43 GROUP        1 Y    ZIP  0     **** ZIP Y 12
     8 GLP5        6 GROUP        1 Y    GLP  0     **** GLP Y 13
     9 ALL1       36 GROUP        1 Z    ALL  0     ROOT ALL Z 15
    10 SEL2        2 GROUP        1 Z    SEL  0     **** SEL Z 16
    11 ZIL7       42 GROUP        1 Z    ZIL  0     **** ZIL Z 19
    12 GLL5        5 GROUP        1 Z    GLL  0     **** GLL Z 20
@<TRIPOS>SET

