#    Name: 2vbv_FMN_2_ligand
#    Modification time : Tue Mar 25 01:24:31 2014

@<TRIPOS>MOLECULE
2vbv_FMN_2_ligand
   50    52     1     0     0
SMALL
NO_CHARGES


@<TRIPOS>ATOM
      1 N1        -15.3680  -18.3690   -4.1720 N.2       1 FMN1140     0.0000 
      2 C2        -15.2280  -19.6170   -4.7300 C.2       1 FMN1140     0.0000 
      3 O2        -16.0230  -20.4910   -4.3700 O.2       1 FMN1140     0.0000 
      4 N3        -14.2420  -19.8740   -5.6660 N.am      1 FMN1140     0.0000 
      5 C4        -13.4080  -18.8160   -6.0390 C.2       1 FMN1140     0.0000 
      6 O4        -12.5690  -18.9510   -6.9280 O.2       1 FMN1140     0.0000 
      7 C4A       -13.5370  -17.5590   -5.4670 C.2       1 FMN1140     0.0000 
      8 N5        -12.6670  -16.5270   -5.8410 N.2       1 FMN1140     0.0000 
      9 C5A       -12.8200  -15.2860   -5.2360 C.ar      1 FMN1140     0.0000 
     10 C6        -11.9510  -14.2700   -5.5790 C.ar      1 FMN1140     0.0000 
     11 C7        -12.0790  -13.0360   -5.0070 C.ar      1 FMN1140     0.0000 
     12 C7M       -11.0900  -11.9840   -5.4040 C.3       1 FMN1140     0.0000 
     13 C8        -13.0770  -12.8020   -4.0430 C.ar      1 FMN1140     0.0000 
     14 C8M       -13.1040  -11.5650   -3.1490 C.3       1 FMN1140     0.0000 
     15 C9        -13.9410  -13.8260   -3.6770 C.ar      1 FMN1140     0.0000 
     16 C9A       -13.8250  -15.0780   -4.2720 C.ar      1 FMN1140     0.0000 
     17 N10       -14.6920  -16.0960   -3.9380 N.pl3     1 FMN1140     0.0000 
     18 C10       -14.5330  -17.3340   -4.5290 C.2       1 FMN1140     0.0000 
     19 C1'       -15.9310  -15.8290   -3.1280 C.3       1 FMN1140     0.0000 
     20 C2'       -15.7580  -16.3700   -1.7060 C.3       1 FMN1140     0.0000 
     21 O2'       -15.7140  -17.7980   -1.7340 O.3       1 FMN1140     0.0000 
     22 C3'       -16.9090  -16.0260   -0.7840 C.3       1 FMN1140     0.0000 
     23 O3'       -18.1310  -16.2920   -1.4060 O.3       1 FMN1140     0.0000 
     24 C4'       -16.9820  -14.5780   -0.3780 C.3       1 FMN1140     0.0000 
     25 O4'       -17.0420  -13.7280   -1.5070 O.3       1 FMN1140     0.0000 
     26 C5'       -15.7770  -14.2220    0.4770 C.3       1 FMN1140     0.0000 
     27 O5'       -15.9230  -12.9400    1.0330 O.3       1 FMN1140     0.0000 
     28 P         -16.6000  -12.7090    2.4820 P.3       1 FMN1140     0.0000 
     29 O1P       -16.2780  -11.2420    2.6910 O.co2     1 FMN1140     0.0000 
     30 O2P       -18.0840  -12.8450    2.4480 O.co2     1 FMN1140     0.0000 
     31 O3P       -16.0280  -13.6230    3.5650 O.co2     1 FMN1140     0.0000 
     32 H         -14.1232  -20.7943   -6.0708 H         1 FMN1140     0.0000 
     33 H         -11.2031  -14.4497   -6.2715 H         1 FMN1140     0.0000 
     34 H         -14.6658  -13.6598   -2.9672 H         1 FMN1140     0.0000 
     35 H         -16.7879  -16.3168   -3.5883 H         1 FMN1140     0.0000 
     36 H         -16.1176  -14.7582   -3.0768 H         1 FMN1140     0.0000 
     37 H         -14.8509  -15.9771   -1.2841 H         1 FMN1140     0.0000 
     38 H         -16.8190  -16.6210    0.1269 H         1 FMN1140     0.0000 
     39 H         -17.8691  -14.4511    0.2502 H         1 FMN1140     0.0000 
     40 H         -14.8817  -14.2966   -0.1646 H         1 FMN1140     0.0000 
     41 H         -15.6787  -15.0019    1.2522 H         1 FMN1140     0.0000 
     42 H         -10.1526  -12.2531   -5.1829 H         1 FMN1140     0.0000 
     43 H         -11.1180  -11.7998   -6.3865 H         1 FMN1140     0.0000 
     44 H         -11.2635  -11.1164   -4.9380 H         1 FMN1140     0.0000 
     45 H         -12.2832  -11.4989   -2.5816 H         1 FMN1140     0.0000 
     46 H         -13.1596  -10.7216   -3.6835 H         1 FMN1140     0.0000 
     47 H         -13.8889  -11.5716   -2.5294 H         1 FMN1140     0.0000 
     48 H         -15.9591  -18.0460   -2.6713 H         1 FMN1140     0.0000 
     49 H         -18.0195  -17.1957   -1.8195 H         1 FMN1140     0.0000 
     50 H         -17.0758  -12.8016   -1.1319 H         1 FMN1140     0.0000 
@<TRIPOS>BOND
     1    2    1 1    
     2   18    1 2    
     3    3    2 2    
     4    4    2 am   
     5    5    4 am   
     6   32    4 1    
     7    6    5 2    
     8    7    5 1    
     9    8    7 2    
    10   18    7 1    
    11    9    8 1    
    12   10    9 ar   
    13   16    9 ar   
    14   11   10 ar   
    15   33   10 1    
    16   12   11 1    
    17   13   11 ar   
    18   42   12 1    
    19   43   12 1    
    20   44   12 1    
    21   14   13 1    
    22   15   13 ar   
    23   45   14 1    
    24   46   14 1    
    25   47   14 1    
    26   16   15 ar   
    27   34   15 1    
    28   17   16 1    
    29   18   17 1    
    30   19   17 1    
    31   20   19 1    
    32   35   19 1    
    33   36   19 1    
    34   21   20 1    
    35   22   20 1    
    36   37   20 1    
    37   48   21 1    
    38   23   22 1    
    39   24   22 1    
    40   38   22 1    
    41   49   23 1    
    42   25   24 1    
    43   26   24 1    
    44   39   24 1    
    45   50   25 1    
    46   27   26 1    
    47   40   26 1    
    48   41   26 1    
    49   28   27 1    
    50   29   28 ar   
    51   30   28 ar   
    52   31   28 ar   
@<TRIPOS>SUBSTRUCTURE
     1 FMN1140     1 GROUP   
@<TRIPOS>SET

