#    Name: 2X2E_2_CAVITY_N1_6.mol2
#    Modification time : Mon Mar 10 22:01:27 2014

@<TRIPOS>MOLECULE
2X2E_2_CAVITY_N1_6.mol2
   67     0     6     0     0
SMALL
NO_CHARGES


@<TRIPOS>ATOM
      1 CA        -17.8979  -17.0094   63.5794 C.3       5 GLY6        0.0000 
      2 OG        -13.6311  -15.7085   64.1727 O.2       1 SER1        0.0000 
      3 CA        -12.3282  -16.4066   63.9178 C.3       5 GLY6        0.0000 
      4 O         -18.1933  -14.4449   63.8730 O.2       2 ALA2        0.0000 
      5 OG        -16.8904  -15.1430   63.6181 O.2       1 SER1        0.0000 
      6 OG        -15.5874  -15.8411   63.3632 O.2       1 SER1        0.0000 
      7 N         -14.2845  -16.5392   63.1083 N.2       2 ALA2        0.0000 
      8 N         -12.9815  -17.2373   62.8534 N.2       2 ALA2        0.0000 
      9 N         -11.6786  -17.9354   62.5984 N.2       2 ALA2        0.0000 
     10 CA        -18.8467  -15.2756   62.8086 C.3       5 GLY6        0.0000 
     11 O         -17.5437  -15.9738   62.5537 O.2       2 ALA2        0.0000 
     12 N         -16.2408  -16.6719   62.2988 N.2       2 ALA2        0.0000 
     13 N         -14.9378  -17.3700   62.0439 N.2       2 ALA2        0.0000 
     14 N         -13.6349  -18.0681   61.7889 N.2       2 ALA2        0.0000 
     15 N         -12.3319  -18.7662   61.5340 N.2       2 ALA2        0.0000 
     16 O         -18.1971  -16.8045   61.4893 O.2       2 ALA2        0.0000 
     17 NZ        -16.8941  -17.5026   61.2344 N.2       4 LYS4        0.0000 
     18 NZ        -15.5912  -18.2007   60.9794 N.2       4 LYS4        0.0000 
     19 CA        -14.2882  -18.8988   60.7245 C.3       5 GLY6        0.0000 
     20 O         -17.1857  -12.5785   63.9118 O.2       2 ALA2        0.0000 
     21 OG        -15.8828  -13.2766   63.6568 O.2       1 SER1        0.0000 
     22 CA        -14.5799  -13.9748   63.4019 C.3       5 GLY6        0.0000 
     23 CA        -13.2769  -14.6729   63.1470 C.3       5 GLY6        0.0000 
     24 CA        -11.9740  -15.3710   62.8921 C.3       5 GLY6        0.0000 
     25 O         -17.8391  -13.4093   62.8473 O.2       2 ALA2        0.0000 
     26 OG        -16.5362  -14.1074   62.5924 O.2       1 SER1        0.0000 
     27 OG        -15.2332  -14.8055   62.3375 O.2       1 SER1        0.0000 
     28 CA        -13.9303  -15.5036   62.0826 C.3       5 GLY6        0.0000 
     29 CA        -12.6273  -16.2017   61.8277 C.3       5 GLY6        0.0000 
     30 CA        -11.3244  -16.8998   61.5727 C.3       5 GLY6        0.0000 
     31 DU        -17.1895  -14.9381   61.5280 H         6 CUB7        0.0000 
     32 CA        -15.8866  -15.6362   61.2731 C.3       5 GLY6        0.0000 
     33 CA        -14.5836  -16.3344   61.0182 C.3       5 GLY6        0.0000 
     34 CA        -13.2807  -17.0325   60.7632 C.3       5 GLY6        0.0000 
     35 CA        -11.9777  -17.7306   60.5083 C.3       5 GLY6        0.0000 
     36 O         -19.1458  -15.0708   60.7185 O.2       2 ALA2        0.0000 
     37 NZ        -17.8429  -15.7689   60.4636 N.2       4 LYS4        0.0000 
     38 NZ        -16.5399  -16.4670   60.2087 N.2       4 LYS4        0.0000 
     39 NZ        -15.2370  -17.1651   59.9538 N.2       4 LYS4        0.0000 
     40 CA        -13.9340  -17.8632   59.6988 C.3       5 GLY6        0.0000 
     41 NZ        -18.4962  -16.5996   59.3992 N.2       4 LYS4        0.0000 
     42 OD1       -17.4811  -10.0141   64.2054 O.3       3 ASP3        0.0000 
     43 CA        -16.1782  -10.7122   63.9505 C.3       5 GLY6        0.0000 
     44 N         -18.1345  -10.8448   63.1410 N.2       2 ALA2        0.0000 
     45 N         -16.8315  -11.5429   62.8861 N.2       2 ALA2        0.0000 
     46 CA        -15.5286  -12.2410   62.6311 C.3       5 GLY6        0.0000 
     47 N         -17.4849  -12.3737   61.8216 N.2       2 ALA2        0.0000 
     48 N         -16.1820  -13.0718   61.5667 N.2       2 ALA2        0.0000 
     49 CA        -14.8790  -13.7699   61.3118 C.3       5 GLY6        0.0000 
     50 OD1       -16.8353  -13.9025   60.5023 O.3       3 ASP3        0.0000 
     51 CA        -15.5324  -14.6006   60.2474 C.3       5 GLY6        0.0000 
     52 CA        -18.7916  -14.0352   59.6928 C.3       5 GLY6        0.0000 
     53 OD1       -17.4887  -14.7333   59.4379 O.3       3 ASP3        0.0000 
     54 OD1       -16.1857  -15.4314   59.1830 O.3       3 ASP3        0.0000 
     55 CA        -18.1420  -15.5640   58.3735 C.3       5 GLY6        0.0000 
     56 CA        -16.8391  -16.2621   58.1186 C.3       5 GLY6        0.0000 
     57 O         -19.7328   -7.5822   63.6895 O.2       2 ALA2        0.0000 
     58 OD1       -18.4299   -8.2803   63.4346 O.3       3 ASP3        0.0000 
     59 OD1       -17.1269   -8.9784   63.1797 O.3       3 ASP3        0.0000 
     60 N         -19.0832   -9.1111   62.3702 N.2       2 ALA2        0.0000 
     61 CA        -17.7803   -9.8092   62.1153 C.3       5 GLY6        0.0000 
     62 CA        -18.4374  -12.9995   58.6671 C.3       5 GLY6        0.0000 
     63 OD1       -17.1345  -13.6977   58.4122 O.3       3 ASP3        0.0000 
     64 O         -19.3786   -6.5466   62.6639 O.2       2 ALA2        0.0000 
     65 O         -18.0757   -7.2447   62.4089 O.2       2 ALA2        0.0000 
     66 N         -20.0320   -7.3774   61.5994 N.2       2 ALA2        0.0000 
     67 OG        -18.7290   -8.0755   61.3445 O.2       1 SER1        0.0000 
@<TRIPOS>BOND
@<TRIPOS>SUBSTRUCTURE
     1 SER1        2 GROUP   
     2 ALA2        4 GROUP   
     3 ASP3       42 GROUP   
     4 LYS4       17 GROUP   
     5 GLY6        1 GROUP   
     6 CUB7       31 GROUP   
@<TRIPOS>SET

