#    Name: 2x2e_GDP_2_INTS_M
#    Modification time : Tue Mar 25 05:01:03 2014

@<TRIPOS>MOLECULE
2x2e_GDP_2_INTS_M
   73     0    15     0     0
SMALL
NO_CHARGES


@<TRIPOS>ATOM
      1 Zn        -16.7895   -8.3545   65.4840 Zn        4 ZIC7        0.0000 
      2 Zn        -16.1680   -8.9480   64.9950 Zn       14 ZIL7        0.0000 
      3 Zn        -17.4110   -7.7610   65.9730 Zn        9 ZIP7        0.0000 
      4 N         -15.2315   -9.2545   65.9735 N.am      2 SEC2        0.0000 
      5 N         -16.1680   -8.9480   64.9950 N.am     12 SEL2        0.0000 
      6 N         -14.2950   -9.5610   66.9520 N.am      7 SEP2        0.0000 
      7 NZ        -14.6145   -7.3370   62.5305 N.4       3 LYC4        0.0000 
      8 NZ        -14.9800   -8.5830   62.7780 N.4      13 LYL4        0.0000 
      9 NZ        -14.2490   -6.0910   62.2830 N.4       8 LYP4        0.0000 
     10 N         -14.0610   -9.7410   62.3305 N.am      2 SEC2        0.0000 
     11 N         -14.9800   -8.5830   62.7780 N.am     12 SEL2        0.0000 
     12 N         -13.1420  -10.8990   61.8830 N.am      7 SEP2        0.0000 
     13 N         -13.8585   -9.2005   63.5955 N.am      2 SEC2        0.0000 
     14 N         -12.7370   -9.8180   64.4130 N.am      7 SEP2        0.0000 
     15 N         -14.6145   -7.3370   62.5305 N.am      2 SEC2        0.0000 
     16 N         -14.2490   -6.0910   62.2830 N.am      7 SEP2        0.0000 
     17 N         -16.8575   -8.3815   61.1755 N.am      2 SEC2        0.0000 
     18 N         -17.2960   -8.6640   62.7160 N.am     12 SEL2        0.0000 
     19 N         -16.4190   -8.0990   59.6350 N.am      7 SEP2        0.0000 
     20 N         -15.0070  -12.2115   66.4015 N.am      2 SEC2        0.0000 
     21 N         -15.7820  -12.1680   65.1830 N.am     12 SEL2        0.0000 
     22 N         -14.2320  -12.2550   67.6200 N.am      7 SEP2        0.0000 
     23 N         -15.3800  -13.4130   65.6320 N.am      2 SEC2        0.0000 
     24 N         -14.9780  -14.6580   66.0810 N.am      7 SEP2        0.0000 
     25 N         -19.2880  -12.3025   64.2680 N.am      2 SEC2        0.0000 
     26 N         -18.0900  -11.5220   64.2830 N.am     12 SEL2        0.0000 
     27 N         -20.4860  -13.0830   64.2530 N.am      7 SEP2        0.0000 
     28 CA        -17.2545  -11.6420   60.3020 C.3       5 GLC5        0.0000 
     29 CA        -17.1150  -13.0510   61.7630 C.3      15 GLL5        0.0000 
     30 CA        -17.3940  -10.2330   58.8410 C.3      10 GLP5        0.0000 
     31 CA        -15.0620  -12.4265   62.3955 C.3       5 GLC5        0.0000 
     32 CA        -13.0090  -11.8020   63.0280 C.3      10 GLP5        0.0000 
     33 CA        -19.2300  -13.5345   60.3190 C.3       5 GLC5        0.0000 
     34 CA        -17.4060  -14.4400   61.2360 C.3      15 GLL5        0.0000 
     35 CA        -21.0540  -12.6290   59.4020 C.3      10 GLP5        0.0000 
     36 O         -20.1760  -16.6570   62.0260 O.2       1 ALC1        0.0000 
     37 O         -19.0590  -16.1650   61.4720 O.2      11 ALL1        0.0000 
     38 O         -21.2930  -17.1490   62.5800 O.2       6 ALP1        0.0000 
     39 CA        -17.7705  -17.0005   64.4650 C.3       5 GLC5        0.0000 
     40 CA        -16.9530  -16.2400   62.7280 C.3      15 GLL5        0.0000 
     41 CA        -18.5880  -17.7610   66.2020 C.3      10 GLP5        0.0000 
     42 O         -16.3250  -18.3865   63.5345 O.2       1 ALC1        0.0000 
     43 O         -17.3640  -17.5470   63.0630 O.2      11 ALL1        0.0000 
     44 O         -15.2860  -19.2260   64.0060 O.2       6 ALP1        0.0000 
     45 CA        -14.7450  -15.4520   60.1725 C.3       5 GLC5        0.0000 
     46 CA        -16.0260  -16.3200   61.5130 C.3      15 GLL5        0.0000 
     47 CA        -13.4640  -14.5840   58.8320 C.3      10 GLP5        0.0000 
     48 CA        -11.8645  -16.4060   60.5175 C.3       5 GLC5        0.0000 
     49 CA        -12.5240  -17.1150   62.0260 C.3      15 GLL5        0.0000 
     50 CA        -11.2050  -15.6970   59.0090 C.3      10 GLP5        0.0000 
     51 CA        -11.8640  -17.3770   63.9330 C.3       5 GLC5        0.0000 
     52 CA        -11.2040  -17.6390   65.8400 C.3      10 GLP5        0.0000 
     53 N          -9.3865  -17.0215   61.1500 N.am      2 SEC2        0.0000 
     54 N         -10.2250  -17.7210   62.0900 N.am     12 SEL2        0.0000 
     55 N          -8.5480  -16.3220   60.2100 N.am      7 SEP2        0.0000 
     56 N          -9.9380  -18.4035   63.3700 N.am      2 SEC2        0.0000 
     57 N          -9.6510  -19.0860   64.6500 N.am      7 SEP2        0.0000 
     58 O         -10.6890  -19.8365   60.2855 O.2       1 ALC1        0.0000 
     59 O         -11.7110  -19.0510   61.0050 O.2      11 ALL1        0.0000 
     60 O          -9.6670  -20.6220   59.5660 O.2       6 ALP1        0.0000 
     61 O         -14.3575  -20.6000   59.1410 O.2       1 ALC1        0.0000 
     62 O         -13.1060  -20.4530   59.7940 O.2      11 ALL1        0.0000 
     63 O         -15.6090  -20.7470   58.4880 O.2       6 ALP1        0.0000 
     64 O         -12.0590  -21.3995   59.6970 O.2       1 ALC1        0.0000 
     65 O         -11.0120  -22.3460   59.6000 O.2       6 ALP1        0.0000 
     66 O         -11.3865  -20.5375   59.6800 O.2       1 ALC1        0.0000 
     67 CA        -13.6025  -16.0285   60.1605 C.3       5 GLC5        0.0000 
     68 CA        -13.7410  -17.4730   61.4890 C.3      15 GLL5        0.0000 
     69 CA        -14.9210  -19.2760   61.7960 C.3       5 GLC5        0.0000 
     70 CA        -16.1010  -21.0790   62.1030 C.3      10 GLP5        0.0000 
     71 CA        -19.4506  -14.0286   62.4584 C.3       5 GLC5        0.0000 
     72 CA        -18.1080  -15.3850   62.1980 C.3      15 GLL5        0.0000 
     73 CA        -21.2170  -13.4920   63.0680 C.3      10 GLP5        0.0000 
@<TRIPOS>BOND
@<TRIPOS>SUBSTRUCTURE
     1 ALC1       36 GROUP        1 X    ALC  0     ROOT ALC X 1
     2 SEC2        4 GROUP        1 X    SEC  0     **** SEC X 2
     3 LYC4        7 GROUP        1 X    LYC  0     **** LYC X 4
     4 ZIC7        1 GROUP        1 X    ZIC  0     **** ZIC X 5
     5 GLC5       28 GROUP        1 X    GLC  0     **** GLC X 6
     6 ALP1       38 GROUP        1 Y    ALP  0     ROOT ALP Y 8
     7 SEP2        6 GROUP        1 Y    SEP  0     **** SEP Y 9
     8 LYP4        9 GROUP        1 Y    LYP  0     **** LYP Y 11
     9 ZIP7        3 GROUP        1 Y    ZIP  0     **** ZIP Y 12
    10 GLP5       30 GROUP        1 Y    GLP  0     **** GLP Y 13
    11 ALL1       37 GROUP        1 Z    ALL  0     ROOT ALL Z 15
    12 SEL2        5 GROUP        1 Z    SEL  0     **** SEL Z 16
    13 LYL4        8 GROUP        1 Z    LYL  0     **** LYL Z 18
    14 ZIL7        2 GROUP        1 Z    ZIL  0     **** ZIL Z 19
    15 GLL5       29 GROUP        1 Z    GLL  0     **** GLL Z 20
@<TRIPOS>SET

