#    Name: 2x2e_GDP_2_ligand
#    Modification time : Tue Mar 25 05:01:03 2014

@<TRIPOS>MOLECULE
2x2e_GDP_2_ligand
   40    42     1     0     0
SMALL
NO_CHARGES


@<TRIPOS>ATOM
      1 PB        -16.1160   -9.1450   63.5350 P.3       1 GDP1744     0.0000 
      2 O1B       -16.1680   -8.9480   64.9950 O.co2     1 GDP1744     0.0000 
      3 O2B       -14.9800   -8.5830   62.7780 O.co2     1 GDP1744     0.0000 
      4 O3B       -17.2960   -8.6640   62.7160 O.co2     1 GDP1744     0.0000 
      5 O3A       -15.8210  -10.6990   63.2580 O.3       1 GDP1744     0.0000 
      6 PA        -16.6470  -11.8290   64.0400 P.3       1 GDP1744     0.0000 
      7 O1A       -15.7820  -12.1680   65.1830 O.co2     1 GDP1744     0.0000 
      8 O2A       -18.0900  -11.5220   64.2830 O.co2     1 GDP1744     0.0000 
      9 O5'       -16.5870  -13.1110   63.0880 O.3       1 GDP1744     0.0000 
     10 C5'       -17.1150  -13.0510   61.7630 C.3       1 GDP1744     0.0000 
     11 C4'       -17.4060  -14.4400   61.2360 C.3       1 GDP1744     0.0000 
     12 O4'       -16.1580  -15.0810   60.8520 O.3       1 GDP1744     0.0000 
     13 C3'       -18.1080  -15.3850   62.1980 C.3       1 GDP1744     0.0000 
     14 O3'       -19.0590  -16.1650   61.4720 O.3       1 GDP1744     0.0000 
     15 C2'       -16.9530  -16.2400   62.7280 C.3       1 GDP1744     0.0000 
     16 O2'       -17.3640  -17.5470   63.0630 O.3       1 GDP1744     0.0000 
     17 C1'       -16.0260  -16.3200   61.5130 C.3       1 GDP1744     0.0000 
     18 N9        -14.6190  -16.4760   61.8780 N.pl3     1 GDP1744     0.0000 
     19 C8        -13.8940  -15.6140   62.6670 C.2       1 GDP1744     0.0000 
     20 N7        -12.6370  -15.9540   62.7840 N.2       1 GDP1744     0.0000 
     21 C5        -12.5240  -17.1150   62.0260 C.2       1 GDP1744     0.0000 
     22 C6        -11.3860  -17.9240   61.7590 C.2       1 GDP1744     0.0000 
     23 O6        -10.2250  -17.7210   62.0900 O.2       1 GDP1744     0.0000 
     24 N1        -11.7110  -19.0510   61.0050 N.am      1 GDP1744     0.0000 
     25 C2        -12.9740  -19.3260   60.5210 C.2       1 GDP1744     0.0000 
     26 N2        -13.1060  -20.4530   59.7940 N.pl3     1 GDP1744     0.0000 
     27 N3        -14.0370  -18.5490   60.7360 N.2       1 GDP1744     0.0000 
     28 C4        -13.7410  -17.4730   61.4890 C.2       1 GDP1744     0.0000 
     29 H         -16.4092  -12.5653   61.0698 H         1 GDP1744     0.0000 
     30 H         -18.0516  -12.4711   61.7285 H         1 GDP1744     0.0000 
     31 H         -18.0308  -14.3508   60.3387 H         1 GDP1744     0.0000 
     32 H         -18.5101  -14.8251   62.9858 H         1 GDP1744     0.0000 
     33 H         -16.4565  -15.7163   63.4846 H         1 GDP1744     0.0000 
     34 H         -16.3548  -17.1207   60.8896 H         1 GDP1744     0.0000 
     35 H         -14.3195  -14.8152   63.0936 H         1 GDP1744     0.0000 
     36 H         -10.9328  -19.7385   60.7925 H         1 GDP1744     0.0000 
     37 H         -14.0285  -20.6615   59.4690 H         1 GDP1744     0.0000 
     38 H         -12.2697  -20.9805   59.6442 H         1 GDP1744     0.0000 
     39 H         -19.8377  -16.2657   62.0913 H         1 GDP1744     0.0000 
     40 H         -16.5395  -17.9977   63.4051 H         1 GDP1744     0.0000 
@<TRIPOS>BOND
     1    2    1 ar   
     2    3    1 ar   
     3    4    1 ar   
     4    5    1 1    
     5    6    5 1    
     6    7    6 ar   
     7    8    6 ar   
     8    9    6 1    
     9   10    9 1    
    10   11   10 1    
    11   29   10 1    
    12   30   10 1    
    13   12   11 1    
    14   13   11 1    
    15   31   11 1    
    16   17   12 1    
    17   14   13 1    
    18   15   13 1    
    19   32   13 1    
    20   39   14 1    
    21   16   15 1    
    22   17   15 1    
    23   33   15 1    
    24   40   16 1    
    25   18   17 1    
    26   34   17 1    
    27   19   18 1    
    28   28   18 1    
    29   20   19 2    
    30   35   19 1    
    31   21   20 1    
    32   22   21 1    
    33   28   21 2    
    34   23   22 2    
    35   24   22 am   
    36   25   24 1    
    37   36   24 1    
    38   26   25 1    
    39   27   25 2    
    40   37   26 1    
    41   38   26 1    
    42   28   27 1    
@<TRIPOS>SUBSTRUCTURE
     1 GDP1744     1 GROUP   
@<TRIPOS>SET

