#    Name: 4dq1_UMP_1_INTS_M
#    Modification time : Tue Mar 25 10:03:43 2014

@<TRIPOS>MOLECULE
4dq1_UMP_1_INTS_M
   63     0    12     0     0
SMALL
NO_CHARGES


@<TRIPOS>ATOM
      1 O          32.8550    2.3875   10.8860 O.2       1 ALC1        0.0000 
      2 O          33.4600    2.4840   12.0800 O.2       9 ALL1        0.0000 
      3 O          32.2500    2.2910    9.6920 O.2       5 ALP1        0.0000 
      4 N          36.3805    0.6710   11.2775 N.am      2 SEC2        0.0000 
      5 N          35.3190    1.3630   11.7190 N.am     10 SEL2        0.0000 
      6 N          37.4420   -0.0210   10.8360 N.am      6 SEP2        0.0000 
      7 N          30.8245    3.1055   11.3610 N.am      2 SEC2        0.0000 
      8 N          31.5410    3.6020   12.4770 N.am     10 SEL2        0.0000 
      9 N          30.1080    2.6090   10.2450 N.am      6 SEP2        0.0000 
     10 CA         37.6935    2.0925   11.7525 C.3       4 GLC5        0.0000 
     11 CA         37.4960    2.1150   13.7590 C.3      12 GLL5        0.0000 
     12 CA         37.8910    2.0700    9.7460 C.3       8 GLP5        0.0000 
     13 CA         39.4145   -0.1145   15.3285 C.3       4 GLC5        0.0000 
     14 CA         38.5070    1.8470   14.8550 C.3      12 GLL5        0.0000 
     15 CA         40.3220   -2.0760   15.8020 C.3       8 GLP5        0.0000 
     16 N          39.9550    0.3585   13.7640 N.am      2 SEC2        0.0000 
     17 N          38.9920    0.4990   14.7310 N.am     10 SEL2        0.0000 
     18 N          40.9180    0.2180   12.7970 N.am      6 SEP2        0.0000 
     19 N          39.5385   -0.1615   15.5160 N.am      2 SEC2        0.0000 
     20 N          40.0850   -0.8220   16.3010 N.am      6 SEP2        0.0000 
     21 CA         36.7895    4.5960   15.3870 C.3       4 GLC5        0.0000 
     22 CA         37.7590    3.4650   16.5760 C.3      12 GLL5        0.0000 
     23 CA         35.8200    5.7270   14.1980 C.3       8 GLP5        0.0000 
     24 N          39.1115    3.0745   18.9105 N.am      2 SEC2        0.0000 
     25 N          38.9170    3.6540   17.3690 N.am     10 SEL2        0.0000 
     26 N          39.3060    2.4950   20.4520 N.am      6 SEP2        0.0000 
     27 NZ         38.7630    7.2385   16.8900 N.4       3 LYC4        0.0000 
     28 NZ         39.3290    6.0780   17.6630 N.4      11 LYL4        0.0000 
     29 NZ         39.0730    8.4280   15.1390 N.4       7 LYP4        0.0000 
     30 NZ         39.4115    6.4585   18.9865 N.4       3 LYC4        0.0000 
     31 NZ         40.3560    7.8390   20.1380 N.4       7 LYP4        0.0000 
     32 N          38.7630    7.2385   16.8900 N.am      2 SEC2        0.0000 
     33 N          39.3290    6.0780   17.6630 N.am     10 SEL2        0.0000 
     34 N          38.1970    8.3990   16.1170 N.am      6 SEP2        0.0000 
     35 N          39.7355    6.8615   16.4320 N.am      2 SEC2        0.0000 
     36 N          40.1420    7.6450   15.2010 N.am      6 SEP2        0.0000 
     37 N          40.0305    7.1380   18.2875 N.am      2 SEC2        0.0000 
     38 N          40.7320    8.1980   18.9120 N.am      6 SEP2        0.0000 
     39 N          39.4115    6.4585   18.9865 N.am      2 SEC2        0.0000 
     40 N          39.4940    6.8390   20.3100 N.am      6 SEP2        0.0000 
     41 NZ         41.1610    4.1810   19.0665 N.4       3 LYC4        0.0000 
     42 NZ         41.2250    4.4290   17.5710 N.4      11 LYL4        0.0000 
     43 NZ         40.2770    3.0520   21.1360 N.4       7 LYP4        0.0000 
     44 NZ         41.6045    3.3025   17.0695 N.4       3 LYC4        0.0000 
     45 NZ         42.6820    1.7630   15.5200 N.4       7 LYP4        0.0000 
     46 N          41.1610    4.1810   19.0665 N.am      2 SEC2        0.0000 
     47 N          41.2250    4.4290   17.5710 N.am     10 SEL2        0.0000 
     48 N          41.0970    3.9330   20.5620 N.am      6 SEP2        0.0000 
     49 N          41.6045    3.3025   17.0695 N.am      2 SEC2        0.0000 
     50 N          41.9840    2.1760   16.5680 N.am      6 SEP2        0.0000 
     51 NZ         39.4925    6.6510   15.3180 N.4       3 LYC4        0.0000 
     52 NZ         39.9120    4.8740   15.4970 N.4      11 LYL4        0.0000 
     53 N          40.0175    4.5605   14.2510 N.am      2 SEC2        0.0000 
     54 N          39.9120    4.8740   15.4970 N.am     10 SEL2        0.0000 
     55 N          40.1230    4.2470   13.0050 N.am      6 SEP2        0.0000 
     56 CA         34.7000    4.3927   14.3620 C.3       4 GLC5        0.0000 
     57 CA         34.1800    2.7840   14.7610 C.3      12 GLL5        0.0000 
     58 CA         36.3440    3.7743   14.1327 C.3       4 GLC5        0.0000 
     59 CA         36.2400    1.5280   14.3760 C.3      12 GLL5        0.0000 
     60 CA         36.7870    0.0418   13.2052 C.3       4 GLC5        0.0000 
     61 CA         36.7060   -1.7380   12.3430 C.3       8 GLP5        0.0000 
     62 CA         38.7773    3.6910   13.3920 C.3       4 GLC5        0.0000 
     63 CA         39.5530    5.4010   12.4770 C.3       8 GLP5        0.0000 
@<TRIPOS>BOND
@<TRIPOS>SUBSTRUCTURE
     1 ALC1        1 GROUP        1 X    ALC  0     ROOT ALC X 1
     2 SEC2        4 GROUP        1 X    SEC  0     **** SEC X 2
     3 LYC4       27 GROUP        1 X    LYC  0     **** LYC X 4
     4 GLC5       10 GROUP        1 X    GLC  0     **** GLC X 6
     5 ALP1        3 GROUP        1 Y    ALP  0     ROOT ALP Y 8
     6 SEP2        6 GROUP        1 Y    SEP  0     **** SEP Y 9
     7 LYP4       29 GROUP        1 Y    LYP  0     **** LYP Y 11
     8 GLP5       12 GROUP        1 Y    GLP  0     **** GLP Y 13
     9 ALL1        2 GROUP        1 Z    ALL  0     ROOT ALL Z 15
    10 SEL2        5 GROUP        1 Z    SEL  0     **** SEL Z 16
    11 LYL4       28 GROUP        1 Z    LYL  0     **** LYL Z 18
    12 GLL5       11 GROUP        1 Z    GLL  0     **** GLL Z 20
@<TRIPOS>SET

