#    Name: 4dq1_UMP_1_ligand
#    Modification time : Tue Mar 25 10:03:43 2014

@<TRIPOS>MOLECULE
4dq1_UMP_1_ligand
   31    32     1     0     0
SMALL
NO_CHARGES


@<TRIPOS>ATOM
      1 N1         34.9880    2.1220   13.8990 N.am      1 UMP501      0.0000 
      2 C2         34.6080    1.9760   12.5310 C.2       1 UMP501      0.0000 
      3 N3         33.4600    2.4840   12.0800 N.am      1 UMP501      0.0000 
      4 C4         32.6280    3.1460   12.9290 C.2       1 UMP501      0.0000 
      5 C5         32.9800    3.3330   14.2910 C.2       1 UMP501      0.0000 
      6 C6         34.1800    2.7840   14.7610 C.2       1 UMP501      0.0000 
      7 O2         35.3190    1.3630   11.7190 O.2       1 UMP501      0.0000 
      8 O4         31.5410    3.6020   12.4770 O.2       1 UMP501      0.0000 
      9 C1'        36.2400    1.5280   14.3760 C.3       1 UMP501      0.0000 
     10 C2'        37.4960    2.1150   13.7590 C.3       1 UMP501      0.0000 
     11 C3'        38.5070    1.8470   14.8550 C.3       1 UMP501      0.0000 
     12 C4'        37.7160    2.0100   16.1270 C.3       1 UMP501      0.0000 
     13 O3'        38.9920    0.4990   14.7310 O.3       1 UMP501      0.0000 
     14 O4'        36.3790    1.6870   15.7820 O.3       1 UMP501      0.0000 
     15 C5'        37.7590    3.4650   16.5760 C.3       1 UMP501      0.0000 
     16 O5'        38.9170    3.6540   17.3690 O.3       1 UMP501      0.0000 
     17 P          39.9020    4.8540   16.9930 P.3       1 UMP501      0.0000 
     18 OP1        39.3290    6.0780   17.6630 O.co2     1 UMP501      0.0000 
     19 OP2        41.2250    4.4290   17.5710 O.co2     1 UMP501      0.0000 
     20 OP3        39.9120    4.8740   15.4970 O.co2     1 UMP501      0.0000 
     21 H          33.1891    2.3801   11.0781 H         1 UMP501      0.0000 
     22 H          32.3677    3.8564   14.9067 H         1 UMP501      0.0000 
     23 H          34.4256    2.8939   15.7530 H         1 UMP501      0.0000 
     24 H          36.2483    0.4508   14.1425 H         1 UMP501      0.0000 
     25 H          37.3788    3.1514   13.6200 H         1 UMP501      0.0000 
     26 H          37.7540    1.5810   12.8899 H         1 UMP501      0.0000 
     27 H          39.2620    2.5734   14.8112 H         1 UMP501      0.0000 
     28 H          38.1037    1.3867   16.8739 H         1 UMP501      0.0000 
     29 H          36.8411    3.6703   17.1319 H         1 UMP501      0.0000 
     30 H          37.7664    4.0909   15.6804 H         1 UMP501      0.0000 
     31 H          38.1849   -0.0466   14.5053 H         1 UMP501      0.0000 
@<TRIPOS>BOND
     1    2    1 1    
     2    6    1 1    
     3    9    1 1    
     4    3    2 1    
     5    7    2 2    
     6    4    3 1    
     7   21    3 1    
     8    5    4 1    
     9    8    4 2    
    10    6    5 2    
    11   22    5 1    
    12   23    6 1    
    13   10    9 1    
    14   14    9 1    
    15   24    9 1    
    16   11   10 1    
    17   25   10 1    
    18   26   10 1    
    19   12   11 1    
    20   13   11 1    
    21   27   11 1    
    22   14   12 1    
    23   15   12 1    
    24   28   12 1    
    25   31   13 1    
    26   16   15 1    
    27   29   15 1    
    28   30   15 1    
    29   17   16 1    
    30   18   17 ar   
    31   19   17 ar   
    32   20   17 ar   
@<TRIPOS>SUBSTRUCTURE
     1 UMP501      1 GROUP   
@<TRIPOS>SET

