#    Name: 1HE3_1_CAVITY_N1_ALL.mol2
#    Modification time : Tue Mar 11 05:04:20 2014

@<TRIPOS>MOLECULE
1HE3_1_CAVITY_N1_ALL.mol2
   69     0     6     0     0
SMALL
NO_CHARGES


@<TRIPOS>ATOM
      1 CA         20.6526  -14.9510    5.6167 C.3       5 GLY6        0.0000 
      2 CA         19.2839  -14.4547    5.2558 C.3       5 GLY6        0.0000 
      3 CA         15.9981  -14.0550    5.7979 C.3       5 GLY6        0.0000 
      4 CA         22.8452  -13.5691    5.4359 C.3       5 GLY6        0.0000 
      5 CA         20.9282  -13.6656    6.3390 C.3       5 GLY6        0.0000 
      6 DU         21.4765  -13.0728    5.0749 H         6 CUB7        0.0000 
      7 CA         19.5595  -13.1693    5.9781 C.3       5 GLY6        0.0000 
      8 DU         20.1078  -12.5765    4.7139 H         6 CUB7        0.0000 
      9 CA         18.1907  -12.6730    5.6171 C.3       5 GLY6        0.0000 
     10 DU         18.7391  -12.0803    4.3530 H         6 CUB7        0.0000 
     11 CA         16.2737  -12.7695    6.5202 C.3       5 GLY6        0.0000 
     12 CA         16.8220  -12.1768    5.2561 C.3       5 GLY6        0.0000 
     13 N          17.3703  -11.5840    3.9920 N.2       2 ALA2        0.0000 
     14 CA         14.9050  -12.2733    6.1592 C.3       5 GLY6        0.0000 
     15 N          15.4533  -11.6805    4.8951 N.2       2 ALA2        0.0000 
     16 N          23.1208  -12.2836    6.1582 N.2       2 ALA2        0.0000 
     17 N          23.6691  -11.6909    4.8941 N.2       2 ALA2        0.0000 
     18 CA         21.2038  -12.3801    7.0613 C.3       5 GLY6        0.0000 
     19 N          21.7521  -11.7874    5.7972 N.2       2 ALA2        0.0000 
     20 N          22.3004  -11.1946    4.5331 N.2       2 ALA2        0.0000 
     21 CA         19.8351  -11.8839    6.7003 C.3       5 GLY6        0.0000 
     22 O          20.3834  -11.2911    5.4362 O.2       2 ALA2        0.0000 
     23 O          20.9317  -10.6983    4.1721 O.2       2 ALA2        0.0000 
     24 CA         17.9180  -11.9804    7.6035 C.3       5 GLY6        0.0000 
     25 O          18.4663  -11.3876    6.3394 O.2       2 ALA2        0.0000 
     26 O          19.0146  -10.7948    5.0752 O.2       2 ALA2        0.0000 
     27 O          19.5630  -10.2021    3.8111 O.2       2 ALA2        0.0000 
     28 CZ         16.0010  -12.0768    8.5066 C.ar      4 PHE5        0.0000 
     29 CA         16.5493  -11.4841    7.2425 C.3       5 GLY6        0.0000 
     30 N          17.0976  -10.8913    5.9784 N.2       2 ALA2        0.0000 
     31 CZ         15.1806  -10.9878    6.8815 C.ar      4 PHE5        0.0000 
     32 CA         22.2998  -12.1837    9.4087 C.3       5 GLY6        0.0000 
     33 N          22.8481  -11.5910    8.1446 N.2       2 ALA2        0.0000 
     34 CA         20.3827  -12.2802   10.3118 C.3       5 GLY6        0.0000 
     35 CA         20.9310  -11.6874    9.0477 C.3       5 GLY6        0.0000 
     36 N          21.4794  -11.0947    7.7836 N.2       2 ALA2        0.0000 
     37 N          22.0277  -10.5019    6.5195 N.2       2 ALA2        0.0000 
     38 N          22.5760   -9.9092    5.2554 N.2       2 ALA2        0.0000 
     39 N          23.1243   -9.3164    3.9913 N.2       2 ALA2        0.0000 
     40 CA         18.4657  -12.3767   11.2150 C.3       5 GLY6        0.0000 
     41 CA         19.0140  -11.7839    9.9509 C.3       5 GLY6        0.0000 
     42 CA         19.5623  -11.1912    8.6867 C.3       5 GLY6        0.0000 
     43 O          20.1106  -10.5984    7.4226 O.2       2 ALA2        0.0000 
     44 O          20.6589  -10.0057    6.1585 O.2       2 ALA2        0.0000 
     45 O          21.2073   -9.4129    4.8944 O.2       2 ALA2        0.0000 
     46 O          21.7556   -8.8202    3.6303 O.2       2 ALA2        0.0000 
     47 O          22.3039   -8.2274    2.3662 O.2       2 ALA2        0.0000 
     48 OG         17.0970  -11.8804   10.8540 O.2       1 SER1        0.0000 
     49 CA         17.6453  -11.2877    9.5899 C.3       5 GLY6        0.0000 
     50 CZ         18.1936  -10.6949    8.3258 C.ar      4 PHE5        0.0000 
     51 O          18.7419  -10.1022    7.0616 O.2       2 ALA2        0.0000 
     52 CZ         16.2766  -10.7914    9.2289 C.ar      4 PHE5        0.0000 
     53 CZ         16.8249  -10.1986    7.9648 C.ar      4 PHE5        0.0000 
     54 N          23.1237  -10.3055    8.8669 N.2       2 ALA2        0.0000 
     55 OG         21.2066  -10.4020    9.7700 O.2       1 SER1        0.0000 
     56 OG         21.7549   -9.8093    8.5059 O.2       1 SER1        0.0000 
     57 N          22.3032   -9.2165    7.2418 N.2       2 ALA2        0.0000 
     58 N          22.8516   -8.6237    5.9777 N.2       2 ALA2        0.0000 
     59 NZ         23.3999   -8.0310    4.7135 N.2       3 LYS4        0.0000 
     60 CA         18.7413  -11.0913   11.9373 C.3       5 GLY6        0.0000 
     61 OG         19.2896  -10.4985   10.6732 O.2       1 SER1        0.0000 
     62 OG         20.3862   -9.3130    8.1449 O.2       1 SER1        0.0000 
     63 O          20.9345   -8.7202    6.8808 O.2       2 ALA2        0.0000 
     64 O          21.4828   -8.1275    5.6167 O.2       2 ALA2        0.0000 
     65 NZ         22.0311   -7.5347    4.3526 N.2       3 LYS4        0.0000 
     66 O          17.3726  -10.5950   11.5763 O.2       2 ALA2        0.0000 
     67 OG         17.9209  -10.0022   10.3122 O.2       1 SER1        0.0000 
     68 CZ         16.5521   -9.5060    9.9512 C.ar      4 PHE5        0.0000 
     69 NZ         22.5788   -7.9311    7.9641 N.2       3 LYS4        0.0000 
@<TRIPOS>BOND
@<TRIPOS>SUBSTRUCTURE
     1 SER1       48 GROUP   
     2 ALA2       13 GROUP   
     3 LYS4       59 GROUP   
     4 PHE5       28 GROUP   
     5 GLY6        1 GROUP   
     6 CUB7        6 GROUP   
@<TRIPOS>SET

