#    Name: 1he3_MBV_1_INTS_M
#    Modification time : Tue Mar 25 05:24:41 2014

@<TRIPOS>MOLECULE
1he3_MBV_1_INTS_M
   62     0     3     0     0
SMALL
NO_CHARGES


@<TRIPOS>ATOM
      1 CA         11.0515   -8.7955    9.3340 C.3       1 GLC5        0.0000 
      2 CA         12.4380   -9.9400    8.3370 C.3       3 GLL5        0.0000 
      3 CA          9.6650   -7.6510   10.3310 C.3       2 GLP5        0.0000 
      4 CA         13.1525  -11.4315    9.1310 C.3       1 GLC5        0.0000 
      5 CA         13.8670  -12.9230    9.9250 C.3       2 GLP5        0.0000 
      6 CA         10.7040  -10.5285    8.3885 C.3       1 GLC5        0.0000 
      7 CA          8.9700  -11.1170    8.4400 C.3       2 GLP5        0.0000 
      8 CA         11.7445   -8.4445    7.5370 C.3       1 GLC5        0.0000 
      9 CA         11.0510   -6.9490    6.7370 C.3       2 GLP5        0.0000 
     10 CA         13.9485   -8.4825    8.3870 C.3       1 GLC5        0.0000 
     11 CA         15.4590   -7.0250    8.4370 C.3       2 GLP5        0.0000 
     12 CA         14.6530  -11.8040    8.9285 C.3       1 GLC5        0.0000 
     13 CA         15.4390  -10.6850    7.9320 C.3       3 GLL5        0.0000 
     14 CA         15.6555   -9.1020    7.5510 C.3       1 GLC5        0.0000 
     15 CA         15.8720   -7.5190    7.1700 C.3       2 GLP5        0.0000 
     16 CA         16.0915   -9.3095   11.0530 C.3       1 GLC5        0.0000 
     17 CA         17.4150  -10.4560   10.2210 C.3       3 GLL5        0.0000 
     18 CA         14.7680   -8.1630   11.8850 C.3       2 GLP5        0.0000 
     19 CA         15.6410  -11.6895   10.0730 C.3       1 GLC5        0.0000 
     20 CA         16.9445   -8.5390    9.8200 C.3       1 GLC5        0.0000 
     21 CA         16.4740   -6.6220    9.4190 C.3       2 GLP5        0.0000 
     22 CA         21.6095  -12.9605    8.9980 C.3       1 GLC5        0.0000 
     23 CA         20.3550  -11.2110    9.1100 C.3       3 GLL5        0.0000 
     24 CA         22.8640  -14.7100    8.8860 C.3       2 GLP5        0.0000 
     25 CA         20.6750  -11.3270   11.0760 C.3       1 GLC5        0.0000 
     26 CA         20.9950  -11.4430   13.0420 C.3       2 GLP5        0.0000 
     27 CA         10.2305   -8.4655    5.2095 C.3       1 GLC5        0.0000 
     28 CA         10.7230  -10.0400    4.4550 C.3       3 GLL5        0.0000 
     29 CA          9.7380   -6.8910    5.9640 C.3       2 GLP5        0.0000 
     30 CA          8.8875   -9.6565    3.9865 C.3       1 GLC5        0.0000 
     31 CA          7.0520   -9.2730    3.5180 C.3       2 GLP5        0.0000 
     32 CA         13.9827  -10.8857    2.0055 C.3       1 GLC5        0.0000 
     33 CA         14.0810  -12.6550    2.9060 C.3       3 GLL5        0.0000 
     34 CA         13.9880   -8.9190    1.7350 C.3       2 GLP5        0.0000 
     35 CA         13.0785  -10.3255    3.5930 C.3       1 GLC5        0.0000 
     36 CA         13.1540  -12.0700    3.8560 C.3       3 GLL5        0.0000 
     37 CA         12.8810   -8.8280    2.7230 C.3       2 GLP5        0.0000 
     38 CA         13.1990   -9.3923    5.2089 C.3       1 GLC5        0.0000 
     39 CA         13.0470  -10.5910    7.1320 C.3       3 GLL5        0.0000 
     40 CA         13.3060   -7.9220    3.8760 C.3       2 GLP5        0.0000 
     41 CA          9.6238  -10.2425    6.4082 C.3       1 GLC5        0.0000 
     42 CA          8.4130  -10.0580    7.7170 C.3       2 GLP5        0.0000 
     43 CA         11.4439   -8.8729    6.4480 C.3       1 GLC5        0.0000 
     44 CA         10.9460  -10.8140    5.7440 C.3       3 GLL5        0.0000 
     45 CA         11.8577   -9.6275    3.9112 C.3       1 GLC5        0.0000 
     46 CA         16.7982  -12.8035    8.2263 C.3       1 GLC5        0.0000 
     47 CA         16.6430  -14.7640    8.1430 C.3       2 GLP5        0.0000 
     48 CA         19.3985  -12.9872    8.7212 C.3       1 GLC5        0.0000 
     49 CA         19.1170  -11.2100    8.2670 C.3       3 GLL5        0.0000 
     50 CA         19.0610  -14.7640    8.7540 C.3       2 GLP5        0.0000 
     51 CA         20.5340   -8.7652    9.3607 C.3       1 GLC5        0.0000 
     52 CA         20.2190   -6.8060    9.9250 C.3       2 GLP5        0.0000 
     53 CA         19.5998  -13.6217    7.2260 C.3       1 GLC5        0.0000 
     54 CA         19.9610  -11.9020    5.9850 C.3       3 GLL5        0.0000 
     55 CA         22.6007  -14.0605    7.1787 C.3       1 GLC5        0.0000 
     56 CA         21.6820  -13.6630    5.2560 C.3       3 GLL5        0.0000 
     57 CA         22.4103  -16.0985    6.0642 C.3       1 GLC5        0.0000 
     58 CA         21.6520  -14.7540    4.6700 C.3       3 GLL5        0.0000 
     59 CA         22.6230  -16.9180    7.6720 C.3       2 GLP5        0.0000 
     60 CA         25.0538  -12.6333    5.5640 C.3       1 GLC5        0.0000 
     61 CA         22.9930  -13.1590    5.6870 C.3       3 GLL5        0.0000 
     62 CA         26.5580  -12.3910    5.8790 C.3       2 GLP5        0.0000 
@<TRIPOS>BOND
@<TRIPOS>SUBSTRUCTURE
     1 GLC5        1 GROUP        1 X    GLC  0     ROOT GLC X 6
     2 GLP5        3 GROUP        1 Y    GLP  0     ROOT GLP Y 13
     3 GLL5        2 GROUP        1 Z    GLL  0     ROOT GLL Z 20
@<TRIPOS>SET

