#    Name: 1he3_MBV_1_ligand
#    Modification time : Tue Mar 25 05:24:41 2014

@<TRIPOS>MOLECULE
1he3_MBV_1_ligand
   79    82     1     0     0
SMALL
NO_CHARGES


@<TRIPOS>ATOM
      1 O1         17.4540  -13.2580    1.8560 O.2       1 MBV1207     0.0000 
      2 C1         16.1970  -13.1790    2.0190 C.2       1 MBV1207     0.0000 
      3 N1         15.5150  -12.6680    3.1970 N.am      1 MBV1207     0.0000 
      4 C4         14.0810  -12.6550    2.9060 C.2       1 MBV1207     0.0000 
      5 C2         15.1950  -13.4450    1.0530 C.2       1 MBV1207     0.0000 
      6 C3         13.8740  -13.0500    1.6460 C.2       1 MBV1207     0.0000 
      7 C1A        15.3940  -14.0960   -0.2760 C.3       1 MBV1207     0.0000 
      8 C2A        12.5410  -13.1380    0.9570 C.3       1 MBV1207     0.0000 
      9 C5         13.1540  -12.0700    3.8560 C.2       1 MBV1207     0.0000 
     10 C6         13.3980  -11.5760    5.0700 C.2       1 MBV1207     0.0000 
     11 N2         14.7190  -11.5430    5.7030 N.pl3     1 MBV1207     0.0000 
     12 C9         14.5050  -10.9230    7.0030 C.2       1 MBV1207     0.0000 
     13 C7         12.4080  -10.9680    6.0160 C.2       1 MBV1207     0.0000 
     14 C8         13.0470  -10.5910    7.1320 C.2       1 MBV1207     0.0000 
     15 C1B        10.9460  -10.8140    5.7440 C.3       1 MBV1207     0.0000 
     16 C6B        12.4380   -9.9400    8.3370 C.3       1 MBV1207     0.0000 
     17 C10        15.4390  -10.6850    7.9320 C.2       1 MBV1207     0.0000 
     18 C11        16.8830  -10.9650    7.7600 C.2       1 MBV1207     0.0000 
     19 N3         17.6160  -11.3740    6.5680 N.2       1 MBV1207     0.0000 
     20 C14        19.0120  -11.5060    6.9740 C.2       1 MBV1207     0.0000 
     21 C12        17.7460  -10.8610    8.7730 C.2       1 MBV1207     0.0000 
     22 C13        19.1170  -11.2100    8.2670 C.2       1 MBV1207     0.0000 
     23 C6C        17.4150  -10.4560   10.2210 C.3       1 MBV1207     0.0000 
     24 C1C        20.3550  -11.2110    9.1100 C.3       1 MBV1207     0.0000 
     25 C15        19.9610  -11.9020    5.9850 C.2       1 MBV1207     0.0000 
     26 C16        20.3160  -13.0570    5.4110 C.2       1 MBV1207     0.0000 
     27 N4         19.5000  -13.9610    4.8270 N.am      1 MBV1207     0.0000 
     28 C19        20.2400  -15.0110    4.3570 C.2       1 MBV1207     0.0000 
     29 C17        21.6820  -13.6630    5.2560 C.2       1 MBV1207     0.0000 
     30 C18        21.6520  -14.7540    4.6700 C.2       1 MBV1207     0.0000 
     31 C2D        22.9930  -13.1590    5.6870 C.3       1 MBV1207     0.0000 
     32 C1D        22.7430  -15.8040    4.2430 C.3       1 MBV1207     0.0000 
     33 O20        19.8340  -16.0360    3.7590 O.2       1 MBV1207     0.0000 
     34 C3A        11.8450  -14.4740    1.1750 C.3       1 MBV1207     0.0000 
     35 C2B        10.7230  -10.0400    4.4550 C.3       1 MBV1207     0.0000 
     36 C3B         9.9530  -10.8430    3.4360 C.2       1 MBV1207     0.0000 
     37 O4B         9.2420  -11.7900    4.0610 O.co2     1 MBV1207     0.0000 
     38 O5B         9.8260  -10.5470    2.2680 O.co2     1 MBV1207     0.0000 
     39 C2C        21.3430  -10.2380    8.4830 C.3       1 MBV1207     0.0000 
     40 C3C        22.7020  -10.8940    8.4980 C.2       1 MBV1207     0.0000 
     41 O4C        22.9240  -11.4590    7.3040 O.co2     1 MBV1207     0.0000 
     42 O5C        23.3130  -11.1950    9.5020 O.co2     1 MBV1207     0.0000 
     43 C3D        24.1060  -12.5920    4.8110 C.3       1 MBV1207     0.0000 
     44 H          15.9072  -12.4011    3.9820 H         1 MBV1207     0.0000 
     45 H          12.6750  -12.9807   -0.1251 H         1 MBV1207     0.0000 
     46 H          11.8841  -12.3326    1.3222 H         1 MBV1207     0.0000 
     47 H          12.1251  -12.0506    3.4871 H         1 MBV1207     0.0000 
     48 H          15.4945  -11.8435    5.3573 H         1 MBV1207     0.0000 
     49 H          10.4683  -10.2781    6.5667 H         1 MBV1207     0.0000 
     50 H          10.4783  -11.7965    5.6532 H         1 MBV1207     0.0000 
     51 H          15.1865  -10.2704    8.8696 H         1 MBV1207     0.0000 
     52 H          20.7921  -12.1983    9.1292 H         1 MBV1207     0.0000 
     53 H          20.1232  -10.8851   10.1131 H         1 MBV1207     0.0000 
     54 H          20.5462  -10.9943    5.6086 H         1 MBV1207     0.0000 
     55 H          18.5366  -13.8862    4.7481 H         1 MBV1207     0.0000 
     56 H          23.4974  -13.9872    6.3490 H         1 MBV1207     0.0000 
     57 H          22.8132  -12.3628    6.5309 H         1 MBV1207     0.0000 
     58 H          11.6964   -9.7554    4.0362 H         1 MBV1207     0.0000 
     59 H          10.1751   -9.1170    4.6827 H         1 MBV1207     0.0000 
     60 H          21.3674   -9.3291    9.0625 H         1 MBV1207     0.0000 
     61 H          21.0463  -10.0309    7.4674 H         1 MBV1207     0.0000 
     62 H          16.0292  -13.5802   -0.8508 H         1 MBV1207     0.0000 
     63 H          15.7652  -15.0201   -0.1850 H         1 MBV1207     0.0000 
     64 H          14.5360  -14.1735   -0.7838 H         1 MBV1207     0.0000 
     65 H          12.5700  -10.4890    9.1623 H         1 MBV1207     0.0000 
     66 H          12.8383   -9.0412    8.5157 H         1 MBV1207     0.0000 
     67 H          11.4530   -9.8059    8.2287 H         1 MBV1207     0.0000 
     68 H          18.2302  -10.4484   10.8001 H         1 MBV1207     0.0000 
     69 H          17.0133   -9.5414   10.2683 H         1 MBV1207     0.0000 
     70 H          16.7619  -11.0851   10.6425 H         1 MBV1207     0.0000 
     71 H          23.6621  -15.5141    4.5099 H         1 MBV1207     0.0000 
     72 H          22.5837  -16.6971    4.6637 H         1 MBV1207     0.0000 
     73 H          22.7559  -15.9445    3.2530 H         1 MBV1207     0.0000 
     74 H          12.3914  -15.2378    0.8315 H         1 MBV1207     0.0000 
     75 H          11.6729  -14.6493    2.1444 H         1 MBV1207     0.0000 
     76 H          10.9612  -14.5128    0.7087 H         1 MBV1207     0.0000 
     77 H          24.9008  -12.3170    5.3520 H         1 MBV1207     0.0000 
     78 H          24.4259  -13.2595    4.1386 H         1 MBV1207     0.0000 
     79 H          23.8041  -11.7855    4.3027 H         1 MBV1207     0.0000 
@<TRIPOS>BOND
     1    2    1 2    
     2    3    2 am   
     3    5    2 1    
     4    4    3 1    
     5   44    3 1    
     6    6    4 1    
     7    9    4 2    
     8    6    5 2    
     9    7    5 1    
    10    8    6 1    
    11   62    7 1    
    12   63    7 1    
    13   64    7 1    
    14   34    8 1    
    15   45    8 1    
    16   46    8 1    
    17   10    9 1    
    18   47    9 1    
    19   11   10 1    
    20   13   10 2    
    21   12   11 1    
    22   48   11 1    
    23   14   12 2    
    24   17   12 1    
    25   14   13 1    
    26   15   13 1    
    27   16   14 1    
    28   35   15 1    
    29   49   15 1    
    30   50   15 1    
    31   65   16 1    
    32   66   16 1    
    33   67   16 1    
    34   18   17 2    
    35   51   17 1    
    36   19   18 1    
    37   21   18 1    
    38   20   19 2    
    39   22   20 1    
    40   25   20 1    
    41   22   21 2    
    42   23   21 1    
    43   24   22 1    
    44   68   23 1    
    45   69   23 1    
    46   70   23 1    
    47   39   24 1    
    48   52   24 1    
    49   53   24 1    
    50   26   25 2    
    51   54   25 1    
    52   27   26 1    
    53   29   26 1    
    54   28   27 am   
    55   55   27 1    
    56   30   28 1    
    57   33   28 2    
    58   30   29 2    
    59   31   29 1    
    60   32   30 1    
    61   43   31 1    
    62   56   31 1    
    63   57   31 1    
    64   71   32 1    
    65   72   32 1    
    66   73   32 1    
    67   74   34 1    
    68   75   34 1    
    69   76   34 1    
    70   36   35 1    
    71   58   35 1    
    72   59   35 1    
    73   37   36 ar   
    74   38   36 ar   
    75   40   39 1    
    76   60   39 1    
    77   61   39 1    
    78   41   40 ar   
    79   42   40 ar   
    80   77   43 1    
    81   78   43 1    
    82   79   43 1    
@<TRIPOS>SUBSTRUCTURE
     1 MBV1207     1 GROUP   
@<TRIPOS>SET

