#    Name: 3lqf_NAD_2_INTS_M
#    Modification time : Mon Mar 24 22:07:25 2014

@<TRIPOS>MOLECULE
3lqf_NAD_2_INTS_M
   85     0     9     0     0
SMALL
NO_CHARGES


@<TRIPOS>ATOM
      1 O          35.1595   -5.3585   52.2135 O.2       1 ALC1        0.0000 
      2 O          34.0360   -6.0920   51.6160 O.2       7 ALL1        0.0000 
      3 O          36.2830   -4.6250   52.8110 O.2       4 ALP1        0.0000 
      4 O          34.0180   -4.6835   54.2355 O.2       1 ALC1        0.0000 
      5 O          32.8450   -5.1630   53.8060 O.2       7 ALL1        0.0000 
      6 O          35.1910   -4.2040   54.6650 O.2       4 ALP1        0.0000 
      7 CA         34.2725   -2.6600   51.1850 C.3       3 GLC5        0.0000 
      8 CA         32.4990   -3.4710   52.0490 C.3       9 GLL5        0.0000 
      9 CA         36.0460   -1.8490   50.3210 C.3       6 GLP5        0.0000 
     10 CA         32.5655    1.4270   56.6355 C.3       3 GLC5        0.0000 
     11 CA         31.6590    0.4750   54.8230 C.3       9 GLL5        0.0000 
     12 CA         33.4720    2.3790   58.4480 C.3       6 GLP5        0.0000 
     13 CA         31.8490    2.2240   54.2045 C.3       3 GLC5        0.0000 
     14 CA         32.0390    3.9730   53.5860 C.3       6 GLP5        0.0000 
     15 O          30.6960    2.0285   56.6135 O.2       1 ALC1        0.0000 
     16 O          30.7020    1.2510   55.3350 O.2       7 ALL1        0.0000 
     17 O          30.6900    2.8060   57.8920 O.2       4 ALP1        0.0000 
     18 N          33.1200    2.1840   55.7085 N.am      2 SEC2        0.0000 
     19 N          32.9630    0.7300   55.0660 N.am      8 SEL2        0.0000 
     20 N          33.2770    3.6380   56.3510 N.am      5 SEP2        0.0000 
     21 CA         35.6405   -1.1305   54.8555 C.3       3 GLC5        0.0000 
     22 CA         33.9180   -0.0420   54.5560 C.3       9 GLL5        0.0000 
     23 CA         37.3630   -2.2190   55.1550 C.3       6 GLP5        0.0000 
     24 CA         33.6365   -1.1210   56.2695 C.3       3 GLC5        0.0000 
     25 CA         33.3550   -2.2000   57.9830 C.3       6 GLP5        0.0000 
     26 CA         34.2450    1.9670   54.0250 C.3       3 GLC5        0.0000 
     27 CA         34.5720    3.9760   53.4940 C.3       6 GLP5        0.0000 
     28 CA         33.5440    0.6440   52.6175 C.3       3 GLC5        0.0000 
     29 CA         33.1700    1.3300   50.6790 C.3       6 GLP5        0.0000 
     30 N          31.1190   -4.1055   47.1870 N.am      2 SEC2        0.0000 
     31 N          31.0500   -5.4790   46.5930 N.am      8 SEL2        0.0000 
     32 N          31.1880   -2.7320   47.7810 N.am      5 SEP2        0.0000 
     33 N          34.0900   -5.6800   44.6060 N.am      2 SEC2        0.0000 
     34 N          33.1010   -5.3020   45.1360 N.am      8 SEL2        0.0000 
     35 N          35.0790   -6.0580   44.0760 N.am      5 SEP2        0.0000 
     36 N          33.8665   -4.4075   45.9730 N.am      2 SEC2        0.0000 
     37 N          34.6320   -3.5130   46.8100 N.am      5 SEP2        0.0000 
     38 CA         33.6180   -3.3145   43.5630 C.3       3 GLC5        0.0000 
     39 CA         32.4170   -2.5110   44.6530 C.3       9 GLL5        0.0000 
     40 CA         34.8190   -4.1180   42.4730 C.3       6 GLP5        0.0000 
     41 CA         32.3490   -2.5910   42.4095 C.3       3 GLC5        0.0000 
     42 CA         31.8860   -1.1960   44.0280 C.3       9 GLL5        0.0000 
     43 CA         32.8120   -3.9860   40.7910 C.3       6 GLP5        0.0000 
     44 CA         33.4375   -0.0435   45.1340 C.3       3 GLC5        0.0000 
     45 CA         34.9890    1.1090   46.2400 C.3       6 GLP5        0.0000 
     46 CA         33.0595   -0.0735   43.0395 C.3       3 GLC5        0.0000 
     47 CA         34.2330    1.0490   42.0510 C.3       6 GLP5        0.0000 
     48 CA         32.0015    0.7415   43.7460 C.3       3 GLC5        0.0000 
     49 CA         30.7740   -0.6080   44.9030 C.3       9 GLL5        0.0000 
     50 CA         33.2290    2.0910   42.5890 C.3       6 GLP5        0.0000 
     51 CA         28.3605    1.0575   43.6385 C.3       3 GLC5        0.0000 
     52 CA         29.4990   -0.8050   44.0600 C.3       9 GLL5        0.0000 
     53 CA         27.2220    2.9200   43.2170 C.3       6 GLP5        0.0000 
     54 N          28.5720    1.5960   44.0480 N.am      2 SEC2        0.0000 
     55 N          28.5090    0.1820   44.3600 N.am      8 SEL2        0.0000 
     56 N          28.6350    3.0100   43.7360 N.am      5 SEP2        0.0000 
     57 O          27.2970    0.0155   43.4325 O.2       1 ALC1        0.0000 
     58 O          28.5090    0.1820   44.3600 O.2       7 ALL1        0.0000 
     59 O          26.0850   -0.1510   42.5050 O.2       4 ALP1        0.0000 
     60 CA         31.6240    0.7015   42.5975 C.3       3 GLC5        0.0000 
     61 CA         30.0190   -0.6880   42.6060 C.3       9 GLL5        0.0000 
     62 CA         30.8645   -3.3745   41.1875 C.3       3 GLC5        0.0000 
     63 CA         28.9170   -2.7630   41.5840 C.3       9 GLL5        0.0000 
     64 CA         29.4695   -4.2645   39.2015 C.3       3 GLC5        0.0000 
     65 CA         28.0440   -3.3830   40.6690 C.3       9 GLL5        0.0000 
     66 CA         30.8950   -5.1460   37.7340 C.3       6 GLP5        0.0000 
     67 CA         29.1130   -1.2985   38.3295 C.3       3 GLC5        0.0000 
     68 CA         27.4780   -1.1880   39.7770 C.3       9 GLL5        0.0000 
     69 CA         30.7480   -1.4090   36.8820 C.3       6 GLP5        0.0000 
     70 CA         27.7880    1.1775   41.9465 C.3       3 GLC5        0.0000 
     71 CA         28.3540   -0.5650   40.6760 C.3       9 GLL5        0.0000 
     72 CA         29.8940   -0.5030   39.2355 C.3       3 GLC5        0.0000 
     73 CA         31.4340   -0.4410   37.7950 C.3       6 GLP5        0.0000 
     74 CA         33.6875   -6.9447   50.2260 C.3       3 GLC5        0.0000 
     75 CA         32.4290   -4.9090   50.2190 C.3       9 GLL5        0.0000 
     76 CA         34.8410   -8.5480   49.6060 C.3       6 GLP5        0.0000 
     77 CA         32.1320   -1.8004   55.5198 C.3       3 GLC5        0.0000 
     78 CA         31.3210   -0.6180   54.0230 C.3       9 GLL5        0.0000 
     79 CA         32.3450   -2.8620   57.0740 C.3       6 GLP5        0.0000 
     80 CA         32.5445    0.2956   52.3223 C.3       3 GLC5        0.0000 
     81 CA         32.3480   -1.4060   53.5080 C.3       9 GLL5        0.0000 
     82 CA         29.6853    0.0493   46.3113 C.3       3 GLC5        0.0000 
     83 CA         29.2340    0.8050   48.1410 C.3       6 GLP5        0.0000 
     84 CA         27.2795    0.7123   39.7398 C.3       3 GLC5        0.0000 
     85 CA         26.6430    2.3010   39.2530 C.3       6 GLP5        0.0000 
@<TRIPOS>BOND
@<TRIPOS>SUBSTRUCTURE
     1 ALC1        1 GROUP        1 X    ALC  0     ROOT ALC X 1
     2 SEC2       18 GROUP        1 X    SEC  0     **** SEC X 2
     3 GLC5        7 GROUP        1 X    GLC  0     **** GLC X 6
     4 ALP1        3 GROUP        1 Y    ALP  0     ROOT ALP Y 8
     5 SEP2       20 GROUP        1 Y    SEP  0     **** SEP Y 9
     6 GLP5        9 GROUP        1 Y    GLP  0     **** GLP Y 13
     7 ALL1        2 GROUP        1 Z    ALL  0     ROOT ALL Z 15
     8 SEL2       19 GROUP        1 Z    SEL  0     **** SEL Z 16
     9 GLL5        8 GROUP        1 Z    GLL  0     **** GLL Z 20
@<TRIPOS>SET

