#    Name: 3lqf_NAD_2_ligand
#    Modification time : Mon Mar 24 22:07:25 2014

@<TRIPOS>MOLECULE
3lqf_NAD_2_ligand
   70    74     1     0     0
SMALL
NO_CHARGES


@<TRIPOS>ATOM
      1 PA         31.0270   -7.0080   47.2780 P.3       1 NAD257      0.0000 
      2 O1A        31.8800   -7.9800   46.5520 O.co2     1 NAD257      0.0000 
      3 O2A        29.6220   -7.3840   47.5650 O.co2     1 NAD257      0.0000 
      4 O5B        31.7170   -6.6890   48.7180 O.3       1 NAD257      0.0000 
      5 C5B        31.2660   -5.5480   49.4720 C.3       1 NAD257      0.0000 
      6 C4B        32.4290   -4.9090   50.2190 C.3       1 NAD257      0.0000 
      7 O4B        32.1260   -3.5400   50.6490 O.3       1 NAD257      0.0000 
      8 C3B        32.6390   -5.7740   51.4730 C.3       1 NAD257      0.0000 
      9 O3B        34.0360   -6.0920   51.6160 O.3       1 NAD257      0.0000 
     10 C2B        32.1420   -4.8680   52.5950 C.3       1 NAD257      0.0000 
     11 O2B        32.8450   -5.1630   53.8060 O.3       1 NAD257      0.0000 
     12 C1B        32.4990   -3.4710   52.0490 C.3       1 NAD257      0.0000 
     13 N9A        31.7730   -2.3750   52.7880 N.pl3     1 NAD257      0.0000 
     14 C8A        30.4450   -2.1970   52.8510 C.2       1 NAD257      0.0000 
     15 N7A        30.1660   -1.1290   53.6040 N.2       1 NAD257      0.0000 
     16 C5A        31.3210   -0.6180   54.0230 C.ar      1 NAD257      0.0000 
     17 C6A        31.6590    0.4750   54.8230 C.ar      1 NAD257      0.0000 
     18 N6A        30.7020    1.2510   55.3350 N.pl3     1 NAD257      0.0000 
     19 N1A        32.9630    0.7300   55.0660 N.ar      1 NAD257      0.0000 
     20 C2A        33.9180   -0.0420   54.5560 C.ar      1 NAD257      0.0000 
     21 N3A        33.6330   -1.0940   53.7900 N.ar      1 NAD257      0.0000 
     22 C4A        32.3480   -1.4060   53.5080 C.ar      1 NAD257      0.0000 
     23 O3         31.0500   -5.4790   46.5930 O.3       1 NAD257      0.0000 
     24 PN         31.6470   -5.0610   45.1040 P.3       1 NAD257      0.0000 
     25 O1N        33.1010   -5.3020   45.1360 O.co2     1 NAD257      0.0000 
     26 O2N        30.8080   -5.7350   44.0800 O.co2     1 NAD257      0.0000 
     27 O5D        31.3700   -3.4420   45.0350 O.3       1 NAD257      0.0000 
     28 C5D        32.4170   -2.5110   44.6530 C.3       1 NAD257      0.0000 
     29 C4D        31.8860   -1.1960   44.0280 C.3       1 NAD257      0.0000 
     30 O4D        31.3320   -1.3360   42.6540 O.3       1 NAD257      0.0000 
     31 C3D        30.7740   -0.6080   44.9030 C.3       1 NAD257      0.0000 
     32 O3D        31.0680    0.7640   45.1310 O.3       1 NAD257      0.0000 
     33 C2D        29.4990   -0.8050   44.0600 C.3       1 NAD257      0.0000 
     34 O2D        28.5090    0.1820   44.3600 O.3       1 NAD257      0.0000 
     35 C1D        30.0190   -0.6880   42.6060 C.3       1 NAD257      0.0000 
     36 N1N        29.0890   -1.3450   41.6100 N.pl3     1 NAD257      0.0000 
     37 C2N        28.9170   -2.7630   41.5840 C.ar      1 NAD257      0.0000 
     38 C3N        28.0440   -3.3830   40.6690 C.ar      1 NAD257      0.0000 
     39 C7N        27.9080   -4.9340   40.6990 C.2       1 NAD257      0.0000 
     40 O7N        28.7130   -5.6720   41.5280 O.2       1 NAD257      0.0000 
     41 N7N        27.0090   -5.5210   39.9000 N.am      1 NAD257      0.0000 
     42 C4N        27.3320   -2.5820   39.7550 C.ar      1 NAD257      0.0000 
     43 C5N        27.4780   -1.1880   39.7770 C.ar      1 NAD257      0.0000 
     44 C6N        28.3540   -0.5650   40.6760 C.ar      1 NAD257      0.0000 
     45 H          30.5042   -5.8328   50.2100 H         1 NAD257      0.0000 
     46 H          30.8239   -4.7857   48.8166 H         1 NAD257      0.0000 
     47 H          33.3042   -4.9634   49.6302 H         1 NAD257      0.0000 
     48 H          32.0097   -6.6123   51.4022 H         1 NAD257      0.0000 
     49 H          31.1012   -4.9486   52.6546 H         1 NAD257      0.0000 
     50 H          33.5607   -3.3540   52.1450 H         1 NAD257      0.0000 
     51 H          29.7818   -2.7661   52.4102 H         1 NAD257      0.0000 
     52 H          29.7623    1.0057   55.0970 H         1 NAD257      0.0000 
     53 H          31.0106    2.0083   55.9107 H         1 NAD257      0.0000 
     54 H          34.9320    0.1845   54.7635 H         1 NAD257      0.0000 
     55 H          33.1072   -2.9684   43.9166 H         1 NAD257      0.0000 
     56 H          33.0387   -2.2309   45.5264 H         1 NAD257      0.0000 
     57 H          32.6973   -0.4686   44.0190 H         1 NAD257      0.0000 
     58 H          30.7010   -1.1901   45.7754 H         1 NAD257      0.0000 
     59 H          29.1704   -1.8074   44.2027 H         1 NAD257      0.0000 
     60 H          30.1336    0.3541   42.3912 H         1 NAD257      0.0000 
     61 H          29.4479   -3.3381   42.2538 H         1 NAD257      0.0000 
     62 H          26.9673   -6.5192   39.9432 H         1 NAD257      0.0000 
     63 H          26.4595   -4.9088   39.3314 H         1 NAD257      0.0000 
     64 H          26.7064   -3.0223   39.0733 H         1 NAD257      0.0000 
     65 H          26.9303   -0.6102   39.1191 H         1 NAD257      0.0000 
     66 H          28.4708    0.4500   40.6673 H         1 NAD257      0.0000 
     67 H          34.4270   -5.3202   52.1174 H         1 NAD257      0.0000 
     68 H          33.6984   -4.6456   53.7423 H         1 NAD257      0.0000 
     69 H          30.3451    1.2658   44.6561 H         1 NAD257      0.0000 
     70 H          27.7596   -0.0016   43.7239 H         1 NAD257      0.0000 
@<TRIPOS>BOND
     1    2    1 ar   
     2    3    1 ar   
     3    4    1 1    
     4   23    1 1    
     5    5    4 1    
     6    6    5 1    
     7   45    5 1    
     8   46    5 1    
     9    7    6 1    
    10    8    6 1    
    11   47    6 1    
    12   12    7 1    
    13    9    8 1    
    14   10    8 1    
    15   48    8 1    
    16   67    9 1    
    17   11   10 1    
    18   12   10 1    
    19   49   10 1    
    20   68   11 1    
    21   13   12 1    
    22   50   12 1    
    23   14   13 1    
    24   22   13 1    
    25   15   14 2    
    26   51   14 1    
    27   16   15 1    
    28   17   16 ar   
    29   22   16 ar   
    30   18   17 1    
    31   19   17 ar   
    32   52   18 1    
    33   53   18 1    
    34   20   19 ar   
    35   21   20 ar   
    36   54   20 1    
    37   22   21 ar   
    38   24   23 1    
    39   25   24 ar   
    40   26   24 ar   
    41   27   24 1    
    42   28   27 1    
    43   29   28 1    
    44   55   28 1    
    45   56   28 1    
    46   30   29 1    
    47   31   29 1    
    48   57   29 1    
    49   35   30 1    
    50   32   31 1    
    51   33   31 1    
    52   58   31 1    
    53   69   32 1    
    54   34   33 1    
    55   35   33 1    
    56   59   33 1    
    57   70   34 1    
    58   36   35 1    
    59   60   35 1    
    60   37   36 ar   
    61   44   36 ar   
    62   38   37 ar   
    63   61   37 1    
    64   39   38 1    
    65   42   38 ar   
    66   40   39 2    
    67   41   39 am   
    68   62   41 1    
    69   63   41 1    
    70   43   42 ar   
    71   64   42 1    
    72   44   43 ar   
    73   65   43 1    
    74   66   44 1    
@<TRIPOS>SUBSTRUCTURE
     1 NAD257      1 GROUP   
@<TRIPOS>SET

