#    Name: 1eve_E20_1_INTS_M
#    Modification time : Tue Mar 25 00:17:53 2014

@<TRIPOS>MOLECULE
1eve_E20_1_INTS_M
   55     0     3     0     0
SMALL
NO_CHARGES


@<TRIPOS>ATOM
      1 CA          0.7275   63.5575   67.7205 C.3       1 GLC5        0.0000 
      2 CA          1.8390   63.9920   69.5580 C.3       3 GLL5        0.0000 
      3 CA         -0.3840   63.1230   65.8830 C.3       2 GLP5        0.0000 
      4 CA          2.3485   65.0075   71.1975 C.3       1 GLC5        0.0000 
      5 CA          2.8580   66.0230   72.8370 C.3       2 GLP5        0.0000 
      6 CA          4.1665   65.1750   71.0400 C.3       1 GLC5        0.0000 
      7 CA          4.1050   64.5760   69.2450 C.3       3 GLL5        0.0000 
      8 CA          4.2280   65.7740   72.8350 C.3       2 GLP5        0.0000 
      9 CA          5.6530   67.2240   68.8800 C.3       1 GLC5        0.0000 
     10 CA          4.3070   65.8480   68.5330 C.3       3 GLL5        0.0000 
     11 CA          6.9990   68.6000   69.2270 C.3       2 GLP5        0.0000 
     12 CA          4.6985   66.3375   70.5310 C.3       1 GLC5        0.0000 
     13 CA          5.0900   66.8270   72.5290 C.3       2 GLP5        0.0000 
     14 CA          5.8780   64.1680   66.7680 C.3       1 GLC5        0.0000 
     15 CA          5.0060   65.6370   67.1950 C.3       3 GLL5        0.0000 
     16 CA          6.7500   62.6990   66.3410 C.3       2 GLP5        0.0000 
     17 CA          6.3820   65.2005   65.9940 C.3       1 GLC5        0.0000 
     18 CA          5.1610   66.9190   66.4250 C.3       3 GLL5        0.0000 
     19 CA          7.6030   63.4820   65.5630 C.3       2 GLP5        0.0000 
     20 CA          3.1175   67.5130   70.3170 C.3       1 GLC5        0.0000 
     21 CA          3.0040   66.7080   68.3900 C.3       3 GLL5        0.0000 
     22 CA          3.2310   68.3180   72.2440 C.3       2 GLP5        0.0000 
     23 CA          3.4240   70.6965   65.5740 C.3       1 GLC5        0.0000 
     24 CA          3.7430   68.9430   65.4830 C.3       3 GLL5        0.0000 
     25 CA          3.1050   72.4500   65.6650 C.3       2 GLP5        0.0000 
     26 CA          4.9560   69.7170   66.7270 C.3       1 GLC5        0.0000 
     27 CA          6.1690   70.4910   67.9710 C.3       2 GLP5        0.0000 
     28 CA          2.0900   66.7195   61.4105 C.3       1 GLC5        0.0000 
     29 CA          3.0520   68.4320   61.7230 C.3       3 GLL5        0.0000 
     30 CA          1.1280   65.0070   61.0980 C.3       2 GLP5        0.0000 
     31 CA          7.2085   69.6995   61.6200 C.3       1 GLC5        0.0000 
     32 CA          5.4790   68.5980   62.0460 C.3       3 GLL5        0.0000 
     33 CA          8.9380   70.8010   61.1940 C.3       2 GLP5        0.0000 
     34 CA          0.2010   57.8680   70.3585 C.3       1 GLC5        0.0000 
     35 CA          1.8420   57.6470   71.2650 C.3       3 GLL5        0.0000 
     36 CA         -1.4400   58.0890   69.4520 C.3       2 GLP5        0.0000 
     37 CA          1.4290   55.9430   70.7265 C.3       1 GLC5        0.0000 
     38 CA          1.0160   54.2390   70.1880 C.3       2 GLP5        0.0000 
     39 CA         -2.0410   59.2170   71.4520 C.3       1 GLC5        0.0000 
     40 CA         -1.4340   59.8620   72.9280 C.3       3 GLL5        0.0000 
     41 CA         -2.6480   58.5720   69.9760 C.3       2 GLP5        0.0000 
     42 CA          5.3833   63.1595   68.2858 C.3       1 GLC5        0.0000 
     43 CA          3.0860   63.5900   68.7400 C.3       3 GLL5        0.0000 
     44 CA          7.1710   62.2360   67.5790 C.3       2 GLP5        0.0000 
     45 CA          6.4798   67.2765   67.5015 C.3       1 GLC5        0.0000 
     46 CA          7.8760   68.2750   68.1930 C.3       2 GLP5        0.0000 
     47 CA          4.6188   68.5273   68.5422 C.3       1 GLC5        0.0000 
     48 CA          3.1770   67.9970   67.5350 C.3       3 GLL5        0.0000 
     49 CA          6.1470   69.7020   69.1220 C.3       2 GLP5        0.0000 
     50 CA          2.1545   70.2090   64.1000 C.3       1 GLC5        0.0000 
     51 CA          3.9920   68.8470   63.9880 C.3       3 GLL5        0.0000 
     52 CA          0.8810   71.6570   64.6430 C.3       2 GLP5        0.0000 
     53 CA          6.8668   67.5067   62.8625 C.3       1 GLC5        0.0000 
     54 CA          5.3100   68.8690   63.4400 C.3       3 GLL5        0.0000 
     55 CA          8.3390   66.2800   62.9820 C.3       2 GLP5        0.0000 
@<TRIPOS>BOND
@<TRIPOS>SUBSTRUCTURE
     1 GLC5        1 GROUP        1 X    GLC  0     ROOT GLC X 6
     2 GLP5        3 GROUP        1 Y    GLP  0     ROOT GLP Y 13
     3 GLL5        2 GROUP        1 Z    GLL  0     ROOT GLL Z 20
@<TRIPOS>SET

