#    Name: 1eve_E20_1_ligand
#    Modification time : Tue Mar 25 00:17:53 2014

@<TRIPOS>MOLECULE
1eve_E20_1_ligand
   58    61     1     0     0
SMALL
NO_CHARGES


@<TRIPOS>ATOM
      1 C1          1.0570   60.0560   71.2400 C.ar      1 E202001     0.0000 
      2 C2          0.1880   61.0790   71.6280 C.ar      1 E202001     0.0000 
      3 C3          0.3470   62.4150   71.1710 C.ar      1 E202001     0.0000 
      4 C4          1.4470   62.7200   70.2700 C.ar      1 E202001     0.0000 
      5 C5          2.3060   61.6650   69.8810 C.ar      1 E202001     0.0000 
      6 C6          2.1400   60.3710   70.3620 C.ar      1 E202001     0.0000 
      7 C7          3.3650   62.0940   69.0160 C.2       1 E202001     0.0000 
      8 C8          3.0860   63.5900   68.7400 C.3       1 E202001     0.0000 
      9 C9          1.8390   63.9920   69.5580 C.3       1 E202001     0.0000 
     10 C10         4.1050   64.5760   69.2450 C.3       1 E202001     0.0000 
     11 C11         4.3070   65.8480   68.5330 C.3       1 E202001     0.0000 
     12 C12         5.0060   65.6370   67.1950 C.3       1 E202001     0.0000 
     13 C13         5.1610   66.9190   66.4250 C.3       1 E202001     0.0000 
     14 N14         3.8540   67.6350   66.2370 N.4       1 E202001     0.0000 
     15 C15         3.1770   67.9970   67.5350 C.3       1 E202001     0.0000 
     16 C16         3.0040   66.7080   68.3900 C.3       1 E202001     0.0000 
     17 C17         3.7430   68.9430   65.4830 C.3       1 E202001     0.0000 
     18 C18         3.9920   68.8470   63.9880 C.ar      1 E202001     0.0000 
     19 C19         2.8640   68.6750   63.1260 C.ar      1 E202001     0.0000 
     20 C20         3.0520   68.4320   61.7230 C.ar      1 E202001     0.0000 
     21 C21         4.3450   68.3900   61.1950 C.ar      1 E202001     0.0000 
     22 C22         5.4790   68.5980   62.0460 C.ar      1 E202001     0.0000 
     23 C23         5.3100   68.8690   63.4400 C.ar      1 E202001     0.0000 
     24 O24         4.3250   61.3750   68.6150 O.2       1 E202001     0.0000 
     25 O25         0.8900   58.7620   71.6440 O.3       1 E202001     0.0000 
     26 C26         1.8420   57.6470   71.2650 C.3       1 E202001     0.0000 
     27 O27        -0.9250   61.0250   72.3210 O.3       1 E202001     0.0000 
     28 C28        -1.4340   59.8620   72.9280 C.3       1 E202001     0.0000 
     29 H          -0.2800   63.1452   71.4559 H         1 E202001     0.0000 
     30 H           2.7908   59.6245   70.0946 H         1 E202001     0.0000 
     31 H           2.8631   63.7613   67.7265 H         1 E202001     0.0000 
     32 H           2.1099   64.7419   70.2579 H         1 E202001     0.0000 
     33 H           1.0712   64.2978   68.8927 H         1 E202001     0.0000 
     34 H           5.1017   64.0335   69.3231 H         1 E202001     0.0000 
     35 H           3.8625   64.7963   70.3343 H         1 E202001     0.0000 
     36 H           5.0100   66.4789   69.1502 H         1 E202001     0.0000 
     37 H           4.4253   64.9183   66.6018 H         1 E202001     0.0000 
     38 H           5.9942   65.1947   67.3778 H         1 E202001     0.0000 
     39 H           5.6011   66.7000   65.4399 H         1 E202001     0.0000 
     40 H           5.8645   67.5787   66.9560 H         1 E202001     0.0000 
     41 H           3.1154   66.9375   65.7403 H         1 E202001     0.0000 
     42 H           2.1994   68.4147   67.3455 H         1 E202001     0.0000 
     43 H           3.7815   68.6974   68.0918 H         1 E202001     0.0000 
     44 H           2.6641   66.9912   69.3934 H         1 E202001     0.0000 
     45 H           2.2249   66.0836   67.9363 H         1 E202001     0.0000 
     46 H           4.4582   69.6717   65.9180 H         1 E202001     0.0000 
     47 H           2.7326   69.3707   65.6499 H         1 E202001     0.0000 
     48 H           1.9220   68.7246   63.5060 H         1 E202001     0.0000 
     49 H           2.2363   68.2932   61.1309 H         1 E202001     0.0000 
     50 H           4.4991   68.2115   60.2007 H         1 E202001     0.0000 
     51 H           6.4191   68.5519   61.6509 H         1 E202001     0.0000 
     52 H           6.1054   69.0711   64.0222 H         1 E202001     0.0000 
     53 H           2.7715   57.8268   71.5869 H         1 E202001     0.0000 
     54 H           1.5611   56.7702   71.6552 H         1 E202001     0.0000 
     55 H           1.8938   57.5237   70.2740 H         1 E202001     0.0000 
     56 H          -0.7963   59.4837   73.5990 H         1 E202001     0.0000 
     57 H          -2.2933   60.0391   73.4078 H         1 E202001     0.0000 
     58 H          -1.6154   59.1423   72.2579 H         1 E202001     0.0000 
@<TRIPOS>BOND
     1    2    1 ar   
     2    6    1 ar   
     3   25    1 1    
     4    3    2 ar   
     5   27    2 1    
     6    4    3 ar   
     7   29    3 1    
     8    5    4 ar   
     9    9    4 1    
    10    6    5 ar   
    11    7    5 1    
    12   30    6 1    
    13    8    7 1    
    14   24    7 2    
    15    9    8 1    
    16   10    8 1    
    17   31    8 1    
    18   32    9 1    
    19   33    9 1    
    20   11   10 1    
    21   34   10 1    
    22   35   10 1    
    23   12   11 1    
    24   16   11 1    
    25   36   11 1    
    26   13   12 1    
    27   37   12 1    
    28   38   12 1    
    29   14   13 1    
    30   39   13 1    
    31   40   13 1    
    32   15   14 1    
    33   17   14 1    
    34   41   14 1    
    35   16   15 1    
    36   42   15 1    
    37   43   15 1    
    38   44   16 1    
    39   45   16 1    
    40   18   17 1    
    41   46   17 1    
    42   47   17 1    
    43   19   18 ar   
    44   23   18 ar   
    45   20   19 ar   
    46   48   19 1    
    47   21   20 ar   
    48   49   20 1    
    49   22   21 ar   
    50   50   21 1    
    51   23   22 ar   
    52   51   22 1    
    53   52   23 1    
    54   26   25 1    
    55   53   26 1    
    56   54   26 1    
    57   55   26 1    
    58   28   27 1    
    59   56   28 1    
    60   57   28 1    
    61   58   28 1    
@<TRIPOS>SUBSTRUCTURE
     1 E202001     1 GROUP   
@<TRIPOS>SET

