#    Name: 1qor_NAP_2_INTS_M
#    Modification time : Mon Mar 24 23:45:41 2014

@<TRIPOS>MOLECULE
1qor_NAP_2_INTS_M
  100     0    12     0     0
SMALL
NO_CHARGES


@<TRIPOS>ATOM
      1 N          30.3790   20.4040    9.0495 N.am      2 SEC2        0.0000 
      2 N          29.9740   20.0940    7.6820 N.am     10 SEL2        0.0000 
      3 N          30.7840   20.7140   10.4170 N.am      6 SEP2        0.0000 
      4 N          30.6825   21.6025    8.9700 N.am      2 SEC2        0.0000 
      5 N          30.5810   22.4910    7.5230 N.am     10 SEL2        0.0000 
      6 CA         30.2195   21.2660    3.6800 C.3       4 GLC5        0.0000 
      7 CA         29.4730   22.5290    4.7950 C.3      12 GLL5        0.0000 
      8 CA         30.9660   20.0030    2.5650 C.3       8 GLP5        0.0000 
      9 CA         28.8200   25.2015    6.3520 C.3       4 GLC5        0.0000 
     10 CA         28.4060   23.4570    5.3330 C.3      12 GLL5        0.0000 
     11 CA         29.2340   26.9460    7.3710 C.3       8 GLP5        0.0000 
     12 N          24.8635   22.5860    6.6895 N.am      2 SEC2        0.0000 
     13 N          26.4190   22.2260    5.9840 N.am     10 SEL2        0.0000 
     14 N          23.3080   22.9460    7.3950 N.am      6 SEP2        0.0000 
     15 CA         28.3040   26.1430    5.8510 C.3       4 GLC5        0.0000 
     16 CA         27.3740   25.3400    4.3310 C.3      12 GLL5        0.0000 
     17 CA         27.4865   26.8700   -0.6485 C.3       4 GLC5        0.0000 
     18 CA         26.5760   25.6040    0.8770 C.3      12 GLL5        0.0000 
     19 CA         28.3970   28.1360   -2.1740 C.3       8 GLP5        0.0000 
     20 CA         27.7420   25.9365   -1.4665 C.3       4 GLC5        0.0000 
     21 CA         26.3490   24.9910   -0.3360 C.3      12 GLL5        0.0000 
     22 CA         29.1350   26.8820   -2.5970 C.3       8 GLP5        0.0000 
     23 CA         28.7560   24.0450    0.9965 C.3       4 GLC5        0.0000 
     24 CA         26.8290   22.9550    0.7150 C.3      12 GLL5        0.0000 
     25 CA         30.6830   25.1350    1.2780 C.3       8 GLP5        0.0000 
     26 CA         25.2035   22.8370    1.4280 C.3       4 GLC5        0.0000 
     27 CA         23.5780   22.7190    2.1410 C.3       8 GLP5        0.0000 
     28 CA         25.2465   23.7900    2.0605 C.3       4 GLC5        0.0000 
     29 CA         26.9150   24.8610    1.9800 C.3      12 GLL5        0.0000 
     30 N          33.3720   21.2770    9.6060 N.am      2 SEC2        0.0000 
     31 N          33.2290   20.8600    8.2460 N.am     10 SEL2        0.0000 
     32 N          33.5150   21.6940   10.9660 N.am      6 SEP2        0.0000 
     33 N          34.1290   18.5275    5.0100 N.am      2 SEC2        0.0000 
     34 N          33.8200   19.1920    6.3160 N.am     10 SEL2        0.0000 
     35 N          34.4380   17.8630    3.7040 N.am      6 SEP2        0.0000 
     36 CA         34.8320   22.6765    7.7380 C.3       4 GLC5        0.0000 
     37 CA         33.7160   22.8920    6.0950 C.3      12 GLL5        0.0000 
     38 CA         35.9480   22.4610    9.3810 C.3       8 GLP5        0.0000 
     39 O          32.9030   24.3505    2.4680 O.2       1 ALC1        0.0000 
     40 O          34.2710   24.1550    2.6810 O.2       9 ALL1        0.0000 
     41 O          31.5350   24.5460    2.2550 O.2       5 ALP1        0.0000 
     42 CA         36.2225   22.2350    1.3710 C.3       4 GLC5        0.0000 
     43 CA         35.8310   22.5330    3.5650 C.3      12 GLL5        0.0000 
     44 CA         36.6140   21.9370   -0.8230 C.3       8 GLP5        0.0000 
     45 O          35.5095   22.9130    1.1115 O.2       1 ALC1        0.0000 
     46 O          36.2570   22.6270    2.2070 O.2       9 ALL1        0.0000 
     47 O          34.7620   23.1990    0.0160 O.2       5 ALP1        0.0000 
     48 CA         35.4525   25.4530    4.6915 C.3       4 GLC5        0.0000 
     49 CA         36.5910   23.5840    4.2810 C.3      12 GLL5        0.0000 
     50 CA         34.3140   27.3220    5.1020 C.3       8 GLP5        0.0000 
     51 CA         37.4810   25.2890    5.3860 C.3       4 GLC5        0.0000 
     52 CA         38.3710   26.9940    6.4910 C.3       8 GLP5        0.0000 
     53 CA         36.5935   25.1605    3.0490 C.3       4 GLC5        0.0000 
     54 CA         36.5960   26.7370    1.8170 C.3       8 GLP5        0.0000 
     55 N          42.9865   24.9525    6.3430 N.am      2 SEC2        0.0000 
     56 N          42.3190   23.8230    5.9040 N.am     10 SEL2        0.0000 
     57 N          43.6540   26.0820    6.7820 N.am      6 SEP2        0.0000 
     58 O          40.0155   25.8010    3.9575 O.2       1 ALC1        0.0000 
     59 O          41.4060   25.1820    4.3110 O.2       9 ALL1        0.0000 
     60 O          38.6250   26.4200    3.6040 O.2       5 ALP1        0.0000 
     61 O          42.3830   26.1495    3.7150 O.2       1 ALC1        0.0000 
     62 O          43.3600   27.1170    3.1190 O.2       5 ALP1        0.0000 
     63 NZ         23.8445   24.6380    7.4460 N.4       3 LYC4        0.0000 
     64 NZ         24.3810   26.3300    7.4970 N.4      11 LYL4        0.0000 
     65 NZ         23.3080   22.9460    7.3950 N.4       7 LYP4        0.0000 
     66 N          23.3675   27.2800    7.7005 N.am      2 SEC2        0.0000 
     67 N          24.3810   26.3300    7.4970 N.am     10 SEL2        0.0000 
     68 N          22.3540   28.2300    7.9040 N.am      6 SEP2        0.0000 
     69 NZ         24.1005   27.1180    4.0760 N.4       3 LYC4        0.0000 
     70 NZ         24.9640   26.8350    5.1470 N.4      11 LYL4        0.0000 
     71 NZ         23.1060   26.3900    2.1520 N.4       7 LYP4        0.0000 
     72 N          25.6255   27.9545    5.2230 N.am      2 SEC2        0.0000 
     73 N          24.9640   26.8350    5.1470 N.am     10 SEL2        0.0000 
     74 N          26.2870   29.0740    5.2990 N.am      6 SEP2        0.0000 
     75 N          24.1005   27.1180    4.0760 N.am      2 SEC2        0.0000 
     76 N          23.2370   27.4010    3.0050 N.am      6 SEP2        0.0000 
     77 NZ         23.3640   23.9730    6.4425 N.4       3 LYC4        0.0000 
     78 NZ         23.4200   25.0000    5.4900 N.4      11 LYL4        0.0000 
     79 NZ         23.3285   26.2005    4.2475 N.4       3 LYC4        0.0000 
     80 N          23.3640   23.9730    6.4425 N.am      2 SEC2        0.0000 
     81 N          23.4200   25.0000    5.4900 N.am     10 SEL2        0.0000 
     82 N          23.2865   25.0590    4.0200 N.am      2 SEC2        0.0000 
     83 N          23.1530   25.1180    2.5500 N.am      6 SEP2        0.0000 
     84 N          23.3285   26.2005    4.2475 N.am      2 SEC2        0.0000 
     85 CA         25.1077   23.1870    3.4657 C.3       4 GLC5        0.0000 
     86 CA         26.2700   24.3300    4.6930 C.3      12 GLL5        0.0000 
     87 CA         28.7142   25.1838    1.3533 C.3       4 GLC5        0.0000 
     88 CA         24.7272   24.6532    0.9437 C.3       4 GLC5        0.0000 
     89 CA         22.9920   24.0090    1.6170 C.3       8 GLP5        0.0000 
     90 CA         34.3520   25.3805    4.7235 C.3       4 GLC5        0.0000 
     91 CA         34.4060   23.1200    3.6600 C.3      12 GLL5        0.0000 
     92 CA         34.3007   21.3708    3.1593 C.3       4 GLC5        0.0000 
     93 CA         33.4830   19.9150    2.7060 C.3       8 GLP5        0.0000 
     94 CA         39.8475   20.3010    7.1047 C.3       4 GLC5        0.0000 
     95 CA         39.9560   22.3980    6.4460 C.3      12 GLL5        0.0000 
     96 CA         40.3370   18.5550    7.6200 C.3       8 GLP5        0.0000 
     97 CA         39.8884   23.2486    7.8299 C.3       4 GLC5        0.0000 
     98 CA         38.7600   21.6960    6.7330 C.3      12 GLL5        0.0000 
     99 CA         40.3980   24.1900    9.3080 C.3       8 GLP5        0.0000 
    100 CA         37.0697   22.1710    7.8748 C.3       4 GLC5        0.0000 
@<TRIPOS>BOND
@<TRIPOS>SUBSTRUCTURE
     1 ALC1       39 GROUP        1 X    ALC  0     ROOT ALC X 1
     2 SEC2        1 GROUP        1 X    SEC  0     **** SEC X 2
     3 LYC4       63 GROUP        1 X    LYC  0     **** LYC X 4
     4 GLC5        6 GROUP        1 X    GLC  0     **** GLC X 6
     5 ALP1       41 GROUP        1 Y    ALP  0     ROOT ALP Y 8
     6 SEP2        3 GROUP        1 Y    SEP  0     **** SEP Y 9
     7 LYP4       65 GROUP        1 Y    LYP  0     **** LYP Y 11
     8 GLP5        8 GROUP        1 Y    GLP  0     **** GLP Y 13
     9 ALL1       40 GROUP        1 Z    ALL  0     ROOT ALL Z 15
    10 SEL2        2 GROUP        1 Z    SEL  0     **** SEL Z 16
    11 LYL4       64 GROUP        1 Z    LYL  0     **** LYL Z 18
    12 GLL5        7 GROUP        1 Z    GLL  0     **** GLL Z 20
@<TRIPOS>SET

