#    Name: 1qor_NAP_2_ligand
#    Modification time : Mon Mar 24 23:45:41 2014

@<TRIPOS>MOLECULE
1qor_NAP_2_ligand
   73    77     1     0     0
SMALL
NO_CHARGES


@<TRIPOS>ATOM
      1 PA         30.3850   21.1750    6.8040 P.3       1 NAP350      0.0000 
      2 O1A        29.9740   20.0940    7.6820 O.co2     1 NAP350      0.0000 
      3 O2A        30.5810   22.4910    7.5230 O.co2     1 NAP350      0.0000 
      4 O5B        29.5120   21.2730    5.5290 O.3       1 NAP350      0.0000 
      5 C5B        29.4730   22.5290    4.7950 C.3       1 NAP350      0.0000 
      6 C4B        28.4060   23.4570    5.3330 C.3       1 NAP350      0.0000 
      7 O4B        28.5820   24.5390    4.3930 O.3       1 NAP350      0.0000 
      8 C3B        27.0050   22.9800    4.8880 C.3       1 NAP350      0.0000 
      9 O3B        26.4190   22.2260    5.9840 O.3       1 NAP350      0.0000 
     10 C2B        26.2700   24.3300    4.6930 C.3       1 NAP350      0.0000 
     11 O2B        25.7410   24.6880    5.9820 O.3       1 NAP350      0.0000 
     12 C1B        27.3740   25.3400    4.3310 C.3       1 NAP350      0.0000 
     13 N9A        27.0410   25.7540    2.9560 N.pl3     1 NAP350      0.0000 
     14 C8A        26.7840   26.9860    2.4350 C.2       1 NAP350      0.0000 
     15 N7A        26.4870   26.9050    1.1150 N.2       1 NAP350      0.0000 
     16 C5A        26.5760   25.6040    0.8770 C.ar      1 NAP350      0.0000 
     17 C6A        26.3490   24.9910   -0.3360 C.ar      1 NAP350      0.0000 
     18 N6A        26.0120   25.6640   -1.4100 N.pl3     1 NAP350      0.0000 
     19 N1A        26.4880   23.6630   -0.3850 N.ar      1 NAP350      0.0000 
     20 C2A        26.8290   22.9550    0.7150 C.ar      1 NAP350      0.0000 
     21 N3A        27.0360   23.5260    1.8930 N.ar      1 NAP350      0.0000 
     22 C4A        26.9150   24.8610    1.9800 C.ar      1 NAP350      0.0000 
     23 O3         31.7970   20.7300    6.1060 O.3       1 NAP350      0.0000 
     24 PN         33.2520   20.4700    6.8160 P.3       1 NAP350      0.0000 
     25 O1N        33.2290   20.8600    8.2460 O.co2     1 NAP350      0.0000 
     26 O2N        33.8200   19.1920    6.3160 O.co2     1 NAP350      0.0000 
     27 O5D        34.0390   21.5360    5.8920 O.3       1 NAP350      0.0000 
     28 C5D        33.7160   22.8920    6.0950 C.3       1 NAP350      0.0000 
     29 C4D        34.3740   23.7580    5.0300 C.3       1 NAP350      0.0000 
     30 O4D        35.7840   24.0710    5.3780 O.3       1 NAP350      0.0000 
     31 C3D        34.4060   23.1200    3.6600 C.3       1 NAP350      0.0000 
     32 O3D        34.2710   24.1550    2.6810 O.3       1 NAP350      0.0000 
     33 C2D        35.8310   22.5330    3.5650 C.3       1 NAP350      0.0000 
     34 O2D        36.2570   22.6270    2.2070 O.3       1 NAP350      0.0000 
     35 C1D        36.5910   23.5840    4.2810 C.3       1 NAP350      0.0000 
     36 N1N        37.7060   23.1060    5.0650 N.pl3     1 NAP350      0.0000 
     37 C2N        38.8970   23.7940    4.8070 C.ar      1 NAP350      0.0000 
     38 C3N        40.0390   23.4390    5.4950 C.ar      1 NAP350      0.0000 
     39 C7N        41.3720   24.2020    5.2240 C.2       1 NAP350      0.0000 
     40 O7N        42.3190   23.8230    5.9040 O.2       1 NAP350      0.0000 
     41 N7N        41.4060   25.1820    4.3110 N.am      1 NAP350      0.0000 
     42 C4N        39.9560   22.3980    6.4460 C.ar      1 NAP350      0.0000 
     43 C5N        38.7600   21.6960    6.7330 C.ar      1 NAP350      0.0000 
     44 C6N        37.6230   22.0660    6.0040 C.ar      1 NAP350      0.0000 
     45 P2B        24.5210   25.8310    6.1140 P.3       1 NAP350      0.0000 
     46 O1X        24.3810   26.3300    7.4970 O.co2     1 NAP350      0.0000 
     47 O2X        24.9640   26.8350    5.1470 O.co2     1 NAP350      0.0000 
     48 O3X        23.4200   25.0000    5.4900 O.co2     1 NAP350      0.0000 
     49 H          29.2700   22.3490    3.7267 H         1 NAP350      0.0000 
     50 H          30.4448   23.0453    4.8558 H         1 NAP350      0.0000 
     51 H          28.4800   23.7002    6.2573 H         1 NAP350      0.0000 
     52 H          27.0792   22.4864    3.9962 H         1 NAP350      0.0000 
     53 H          25.5822   24.2530    3.9465 H         1 NAP350      0.0000 
     54 H          27.3467   26.1102    5.0086 H         1 NAP350      0.0000 
     55 H          26.8112   27.8188    2.9496 H         1 NAP350      0.0000 
     56 H          25.8989   26.6507   -1.2935 H         1 NAP350      0.0000 
     57 H          25.8989   25.1289   -2.2472 H         1 NAP350      0.0000 
     58 H          26.9321   21.9018    0.6199 H         1 NAP350      0.0000 
     59 H          34.0580   23.2568    7.0767 H         1 NAP350      0.0000 
     60 H          32.6302   23.0713    6.0437 H         1 NAP350      0.0000 
     61 H          33.8280   24.6985    4.9497 H         1 NAP350      0.0000 
     62 H          33.7137   22.3624    3.5955 H         1 NAP350      0.0000 
     63 H          35.8881   21.6458    4.0074 H         1 NAP350      0.0000 
     64 H          36.8697   24.3827    3.6685 H         1 NAP350      0.0000 
     65 H          38.9114   24.5478    4.1167 H         1 NAP350      0.0000 
     66 H          40.5396   25.3911    3.8575 H         1 NAP350      0.0000 
     67 H          42.2947   25.6166    4.1648 H         1 NAP350      0.0000 
     68 H          40.8222   22.1305    6.9662 H         1 NAP350      0.0000 
     69 H          38.7364   20.9737    7.4229 H         1 NAP350      0.0000 
     70 H          36.7352   21.5813    6.1541 H         1 NAP350      0.0000 
     71 H          26.2413   21.3171    5.6068 H         1 NAP350      0.0000 
     72 H          33.2850   24.2677    2.5580 H         1 NAP350      0.0000 
     73 H          35.4286   22.8434    1.6904 H         1 NAP350      0.0000 
@<TRIPOS>BOND
     1    2    1 ar   
     2    3    1 ar   
     3    4    1 1    
     4   23    1 1    
     5    5    4 1    
     6    6    5 1    
     7   49    5 1    
     8   50    5 1    
     9    7    6 1    
    10    8    6 1    
    11   51    6 1    
    12   12    7 1    
    13    9    8 1    
    14   10    8 1    
    15   52    8 1    
    16   71    9 1    
    17   11   10 1    
    18   12   10 1    
    19   53   10 1    
    20   45   11 1    
    21   13   12 1    
    22   54   12 1    
    23   14   13 1    
    24   22   13 1    
    25   15   14 2    
    26   55   14 1    
    27   16   15 1    
    28   17   16 ar   
    29   22   16 ar   
    30   18   17 1    
    31   19   17 ar   
    32   56   18 1    
    33   57   18 1    
    34   20   19 ar   
    35   21   20 ar   
    36   58   20 1    
    37   22   21 ar   
    38   24   23 1    
    39   25   24 ar   
    40   26   24 ar   
    41   27   24 1    
    42   28   27 1    
    43   29   28 1    
    44   59   28 1    
    45   60   28 1    
    46   30   29 1    
    47   31   29 1    
    48   61   29 1    
    49   35   30 1    
    50   32   31 1    
    51   33   31 1    
    52   62   31 1    
    53   72   32 1    
    54   34   33 1    
    55   35   33 1    
    56   63   33 1    
    57   73   34 1    
    58   36   35 1    
    59   64   35 1    
    60   37   36 ar   
    61   44   36 ar   
    62   38   37 ar   
    63   65   37 1    
    64   39   38 1    
    65   42   38 ar   
    66   40   39 2    
    67   41   39 am   
    68   66   41 1    
    69   67   41 1    
    70   43   42 ar   
    71   68   42 1    
    72   44   43 ar   
    73   69   43 1    
    74   70   44 1    
    75   46   45 ar   
    76   47   45 ar   
    77   48   45 ar   
@<TRIPOS>SUBSTRUCTURE
     1 NAP350      1 GROUP   
@<TRIPOS>SET

