#    Name: 3w2h_NAD_2_INTS_M
#    Modification time : Tue Mar 25 02:03:50 2014

@<TRIPOS>MOLECULE
3w2h_NAD_2_INTS_M
   95     0    12     0     0
SMALL
NO_CHARGES


@<TRIPOS>ATOM
      1 NZ         14.2765   -7.3000   14.6385 N.4       3 LYC4        0.0000 
      2 NZ         12.8030   -8.1090   14.4200 N.4      11 LYL4        0.0000 
      3 NZ         15.7500   -6.4910   14.8570 N.4       7 LYP4        0.0000 
      4 N          13.0210   -9.5810   14.3910 N.am      2 SEC2        0.0000 
      5 N          12.8030   -8.1090   14.4200 N.am     10 SEL2        0.0000 
      6 N          13.2390  -11.0530   14.3620 N.am      6 SEP2        0.0000 
      7 CA         11.3995   -5.2665   15.8050 C.3       4 GLC5        0.0000 
      8 CA         10.1460   -6.8760   15.3790 C.3      12 GLL5        0.0000 
      9 CA         12.6530   -3.6570   16.2310 C.3       8 GLP5        0.0000 
     10 CA          7.8175   -6.0670   17.7020 C.3       4 GLC5        0.0000 
     11 CA          8.7700   -6.8960   15.8960 C.3      12 GLL5        0.0000 
     12 CA          6.8650   -5.2380   19.5080 C.3       8 GLP5        0.0000 
     13 O           8.2280   -9.8010   17.9245 O.2       1 ALC1        0.0000 
     14 O           8.8160   -8.6590   17.4860 O.2       9 ALL1        0.0000 
     15 O           7.6400  -10.9430   18.3630 O.2       5 ALP1        0.0000 
     16 CA          6.8880   -6.7025   17.8300 C.3       4 GLC5        0.0000 
     17 CA          6.9110   -8.1670   16.1520 C.3      12 GLL5        0.0000 
     18 CA          5.5390   -9.5350   16.3670 C.3       4 GLC5        0.0000 
     19 CA          4.1670  -10.9030   16.5820 C.3       8 GLP5        0.0000 
     20 CA          7.7125   -6.3300   13.3685 C.3       4 GLC5        0.0000 
     21 CA          6.7110   -7.2770   15.0030 C.3      12 GLL5        0.0000 
     22 CA          8.7140   -5.3830   11.7340 C.3       8 GLP5        0.0000 
     23 CA          5.4220   -5.7690   14.8065 C.3       4 GLC5        0.0000 
     24 CA          4.1330   -4.2610   14.6100 C.3       8 GLP5        0.0000 
     25 CA          5.0040   -8.4510   10.4870 C.3       4 GLC5        0.0000 
     26 CA          5.2770   -9.1920   12.2810 C.3      12 GLL5        0.0000 
     27 CA          4.7310   -7.7100    8.6930 C.3       8 GLP5        0.0000 
     28 CA          3.6675   -8.7325   10.1945 C.3       4 GLC5        0.0000 
     29 CA          4.0880   -9.6790   11.6580 C.3      12 GLL5        0.0000 
     30 CA          3.2470   -7.7860    8.7310 C.3       8 GLP5        0.0000 
     31 CA          2.3595   -9.3040   15.2955 C.3       4 GLC5        0.0000 
     32 CA          2.7770   -8.6090   13.2610 C.3      12 GLL5        0.0000 
     33 CA          1.9420   -9.9990   17.3300 C.3       8 GLP5        0.0000 
     34 CA          2.9605   -6.8325   12.8345 C.3       4 GLC5        0.0000 
     35 CA          3.1440   -5.0560   12.4080 C.3       8 GLP5        0.0000 
     36 CA          1.5145   -7.3890   14.2765 C.3       4 GLC5        0.0000 
     37 CA          0.2520   -6.1690   15.2920 C.3       8 GLP5        0.0000 
     38 CA          4.7625   -6.5145   13.2710 C.3       4 GLC5        0.0000 
     39 CA          5.1240   -8.4260   13.3920 C.3      12 GLL5        0.0000 
     40 CA          4.4010   -4.6030   13.1500 C.3       8 GLP5        0.0000 
     41 NZ         14.8910   -6.5140   13.2365 N.4       3 LYC4        0.0000 
     42 NZ         14.0320   -6.5370   11.6160 N.4      11 LYL4        0.0000 
     43 N          14.7735   -5.9730   10.6865 N.am      2 SEC2        0.0000 
     44 N          14.0320   -6.5370   11.6160 N.am     10 SEL2        0.0000 
     45 N          15.5150   -5.4090    9.7570 N.am      6 SEP2        0.0000 
     46 NZ         14.8895   -5.6575   14.0970 N.4       3 LYC4        0.0000 
     47 NZ         14.0290   -4.8240   13.3370 N.4      11 LYL4        0.0000 
     48 N          14.8895   -5.6575   14.0970 N.am      2 SEC2        0.0000 
     49 N          14.0290   -4.8240   13.3370 N.am     10 SEL2        0.0000 
     50 N          15.7500   -6.4910   14.8570 N.am      6 SEP2        0.0000 
     51 N          13.9850   -3.4750   14.0945 N.am      2 SEC2        0.0000 
     52 N          13.9410   -2.1260   14.8520 N.am      6 SEP2        0.0000 
     53 CA         13.8605   -2.1035   12.4400 C.3       4 GLC5        0.0000 
     54 CA         12.2030   -3.2530   11.5610 C.3      12 GLL5        0.0000 
     55 CA         15.5180   -0.9540   13.3190 C.3       8 GLP5        0.0000 
     56 CA          9.6440   -1.9465   11.5765 C.3       4 GLC5        0.0000 
     57 CA         11.2530   -2.7050   10.6040 C.3      12 GLL5        0.0000 
     58 CA          8.0350   -1.1880   12.5490 C.3       8 GLP5        0.0000 
     59 CA          9.7055   -3.3865    9.6365 C.3       4 GLC5        0.0000 
     60 CA         11.7370   -2.7490    9.2130 C.3      12 GLL5        0.0000 
     61 CA          7.6740   -4.0240   10.0600 C.3       8 GLP5        0.0000 
     62 CA         13.7175   -0.6150    8.0525 C.3       4 GLC5        0.0000 
     63 CA         12.1290   -1.3590    8.9250 C.3      12 GLL5        0.0000 
     64 CA         15.3060    0.1290    7.1800 C.3       8 GLP5        0.0000 
     65 CA          9.5925   -0.8845   11.1335 C.3       4 GLC5        0.0000 
     66 CA         11.1500   -0.5810    9.7180 C.3      12 GLL5        0.0000 
     67 CA         11.1400    2.4990    7.3710 C.3       4 GLC5        0.0000 
     68 CA         10.8940    1.8230    9.4960 C.3      12 GLL5        0.0000 
     69 CA         11.3860    3.1750    5.2460 C.3       8 GLP5        0.0000 
     70 CA         11.5610    4.4875    8.1640 C.3       4 GLC5        0.0000 
     71 CA         11.2610    3.1420    9.7790 C.3      12 GLL5        0.0000 
     72 CA         11.8610    5.8330    6.5490 C.3       8 GLP5        0.0000 
     73 O           8.5850    5.1340    8.0440 O.2       1 ALC1        0.0000 
     74 O           9.4420    4.0390    8.2120 O.2       9 ALL1        0.0000 
     75 O           7.7280    6.2290    7.8760 O.2       5 ALP1        0.0000 
     76 CA         14.0340    0.0050   12.0940 C.3       4 GLC5        0.0000 
     77 CA         12.5500    0.9640   10.8690 C.3      12 GLL5        0.0000 
     78 CA          9.2080   -4.8655   16.0483 C.3       4 GLC5        0.0000 
     79 CA          8.9580   -2.8450   16.4590 C.3       8 GLP5        0.0000 
     80 CA          9.0860   -6.1345   13.6858 C.3       4 GLC5        0.0000 
     81 CA          9.9315   -7.4725   17.7766 C.3       4 GLC5        0.0000 
     82 CA         10.9570   -7.3630   19.6250 C.3       8 GLP5        0.0000 
     83 CA         10.0430   -3.5290   11.7438 C.3       4 GLC5        0.0000 
     84 CA          8.3580   -4.0790   12.4050 C.3       8 GLP5        0.0000 
     85 CA         10.2867    2.8353   10.9868 C.3       4 GLC5        0.0000 
     86 CA          9.4960    3.1880   12.3360 C.3       8 GLP5        0.0000 
     87 CA         12.5143    4.1653   12.5373 C.3       4 GLC5        0.0000 
     88 CA         12.9750    2.3000   11.2290 C.3      12 GLL5        0.0000 
     89 CA         12.3880    5.4980   14.1240 C.3       8 GLP5        0.0000 
     90 CA         11.9831    1.5041   12.6589 C.3       4 GLC5        0.0000 
     91 CA         11.3710    1.1100   14.4080 C.3       8 GLP5        0.0000 
     92 CA         11.0456    2.5431   11.6229 C.3       4 GLC5        0.0000 
     93 CA         14.2631    1.6641   10.0149 C.3       4 GLC5        0.0000 
     94 CA         12.3060    3.3650   10.6720 C.3      12 GLL5        0.0000 
     95 CA         15.9310    1.4300    9.1200 C.3       8 GLP5        0.0000 
@<TRIPOS>BOND
@<TRIPOS>SUBSTRUCTURE
     1 ALC1       13 GROUP        1 X    ALC  0     ROOT ALC X 1
     2 SEC2        4 GROUP        1 X    SEC  0     **** SEC X 2
     3 LYC4        1 GROUP        1 X    LYC  0     **** LYC X 4
     4 GLC5        7 GROUP        1 X    GLC  0     **** GLC X 6
     5 ALP1       15 GROUP        1 Y    ALP  0     ROOT ALP Y 8
     6 SEP2        6 GROUP        1 Y    SEP  0     **** SEP Y 9
     7 LYP4        3 GROUP        1 Y    LYP  0     **** LYP Y 11
     8 GLP5        9 GROUP        1 Y    GLP  0     **** GLP Y 13
     9 ALL1       14 GROUP        1 Z    ALL  0     ROOT ALL Z 15
    10 SEL2        5 GROUP        1 Z    SEL  0     **** SEL Z 16
    11 LYL4        2 GROUP        1 Z    LYL  0     **** LYL Z 18
    12 GLL5        8 GROUP        1 Z    GLL  0     **** GLL Z 20
@<TRIPOS>SET

