#    Name: 3w2h_NAD_2_ligand
#    Modification time : Tue Mar 25 02:03:50 2014

@<TRIPOS>MOLECULE
3w2h_NAD_2_ligand
   70    74     1     0     0
SMALL
NO_CHARGES


@<TRIPOS>ATOM
      1 PA         11.7400   -7.7140   13.5220 P.3       1 NAD302      0.0000 
      2 O1A        11.6870   -8.6840   12.4160 O.co2     1 NAD302      0.0000 
      3 O2A        12.8030   -8.1090   14.4200 O.co2     1 NAD302      0.0000 
      4 O5B        10.3510   -7.7210   14.2580 O.3       1 NAD302      0.0000 
      5 C5B        10.1460   -6.8760   15.3790 C.3       1 NAD302      0.0000 
      6 C4B         8.7700   -6.8960   15.8960 C.3       1 NAD302      0.0000 
      7 O4B         7.9320   -6.5470   14.8520 O.3       1 NAD302      0.0000 
      8 C3B         8.3540   -8.2780   16.2190 C.3       1 NAD302      0.0000 
      9 O3B         8.8160   -8.6590   17.4860 O.3       1 NAD302      0.0000 
     10 C2B         6.9110   -8.1670   16.1520 C.3       1 NAD302      0.0000 
     11 O2B         6.3790   -7.5860   17.3160 O.3       1 NAD302      0.0000 
     12 C1B         6.7110   -7.2770   15.0030 C.3       1 NAD302      0.0000 
     13 N9A         6.4310   -8.0640   13.8130 N.pl3     1 NAD302      0.0000 
     14 C8A         7.3130   -8.6220   12.9920 C.2       1 NAD302      0.0000 
     15 N7A         6.6520   -9.3170   12.0190 N.2       1 NAD302      0.0000 
     16 C5A         5.2770   -9.1920   12.2810 C.ar      1 NAD302      0.0000 
     17 C6A         4.0880   -9.6790   11.6580 C.ar      1 NAD302      0.0000 
     18 N6A         4.2000  -10.5060   10.4830 N.pl3     1 NAD302      0.0000 
     19 N1A         2.8830   -9.3690   12.1750 N.ar      1 NAD302      0.0000 
     20 C2A         2.7770   -8.6090   13.2610 C.ar      1 NAD302      0.0000 
     21 N3A         3.8680   -8.1320   13.8840 N.ar      1 NAD302      0.0000 
     22 C4A         5.1240   -8.4260   13.3920 C.ar      1 NAD302      0.0000 
     23 O3         11.9170   -6.2470   13.0350 O.3       1 NAD302      0.0000 
     24 PN         13.1690   -5.5630   12.3630 P.3       1 NAD302      0.0000 
     25 O1N        14.0320   -6.5370   11.6160 O.co2     1 NAD302      0.0000 
     26 O2N        14.0290   -4.8240   13.3370 O.co2     1 NAD302      0.0000 
     27 O5D        12.5410   -4.5810   11.2850 O.3       1 NAD302      0.0000 
     28 C5D        12.2030   -3.2530   11.5610 C.3       1 NAD302      0.0000 
     29 C4D        11.2530   -2.7050   10.6040 C.3       1 NAD302      0.0000 
     30 O4D        10.9760   -1.3270   10.9230 O.3       1 NAD302      0.0000 
     31 C3D        11.7370   -2.7490    9.2130 C.3       1 NAD302      0.0000 
     32 O3D        10.6850   -3.1390    8.3620 O.3       1 NAD302      0.0000 
     33 C2D        12.1290   -1.3590    8.9250 C.3       1 NAD302      0.0000 
     34 O2D        12.0640   -1.0320    7.6200 O.3       1 NAD302      0.0000 
     35 C1D        11.1500   -0.5810    9.7180 C.3       1 NAD302      0.0000 
     36 N1N        11.5680    0.7760   10.0530 N.pl3     1 NAD302      0.0000 
     37 C2N        10.8940    1.8230    9.4960 C.ar      1 NAD302      0.0000 
     38 C3N        11.2610    3.1420    9.7790 C.ar      1 NAD302      0.0000 
     39 C7N        10.4530    4.2980    9.1560 C.2       1 NAD302      0.0000 
     40 O7N        10.6930    5.4750    9.5230 O.2       1 NAD302      0.0000 
     41 N7N         9.4420    4.0390    8.2120 N.am      1 NAD302      0.0000 
     42 C4N        12.3060    3.3650   10.6720 C.ar      1 NAD302      0.0000 
     43 C5N        12.9750    2.3000   11.2290 C.ar      1 NAD302      0.0000 
     44 C6N        12.5500    0.9640   10.8690 C.ar      1 NAD302      0.0000 
     45 H          10.4157   -5.8178   15.1278 H         1 NAD302      0.0000 
     46 H          10.8425   -7.1527   16.2121 H         1 NAD302      0.0000 
     47 H           8.6588   -6.2764   16.7311 H         1 NAD302      0.0000 
     48 H           8.6957   -8.9158   15.4283 H         1 NAD302      0.0000 
     49 H           6.4883   -9.1192   15.9243 H         1 NAD302      0.0000 
     50 H           5.8985   -6.6087   15.2157 H         1 NAD302      0.0000 
     51 H           8.2822   -8.5589   13.0547 H         1 NAD302      0.0000 
     52 H           5.1272  -10.6665   10.1446 H         1 NAD302      0.0000 
     53 H           3.3412  -10.8505   10.1039 H         1 NAD302      0.0000 
     54 H           1.8242   -8.3733   13.6444 H         1 NAD302      0.0000 
     55 H          13.1139   -2.6025   11.5733 H         1 NAD302      0.0000 
     56 H          11.7715   -3.1553   12.5893 H         1 NAD302      0.0000 
     57 H          10.3141   -3.2679   10.6588 H         1 NAD302      0.0000 
     58 H          12.5841   -3.3785    9.1527 H         1 NAD302      0.0000 
     59 H          13.1020   -1.1916    9.3798 H         1 NAD302      0.0000 
     60 H          10.2054   -0.5637    9.1800 H         1 NAD302      0.0000 
     61 H          10.0979    1.6542    8.8532 H         1 NAD302      0.0000 
     62 H           8.9513    4.8372    7.8625 H         1 NAD302      0.0000 
     63 H           9.3004    3.0788    7.9711 H         1 NAD302      0.0000 
     64 H          12.5726    4.3316   10.9109 H         1 NAD302      0.0000 
     65 H          13.7432    2.4117   11.8727 H         1 NAD302      0.0000 
     66 H          13.0896    0.1870   11.3125 H         1 NAD302      0.0000 
     67 H           8.3256   -9.5047   17.6967 H         1 NAD302      0.0000 
     68 H           6.4587   -8.2937   18.0180 H         1 NAD302      0.0000 
     69 H          10.5443   -2.3601    7.7509 H         1 NAD302      0.0000 
     70 H          11.9380   -0.0401    7.6078 H         1 NAD302      0.0000 
@<TRIPOS>BOND
     1    2    1 ar   
     2    3    1 ar   
     3    4    1 1    
     4   23    1 1    
     5    5    4 1    
     6    6    5 1    
     7   45    5 1    
     8   46    5 1    
     9    7    6 1    
    10    8    6 1    
    11   47    6 1    
    12   12    7 1    
    13    9    8 1    
    14   10    8 1    
    15   48    8 1    
    16   67    9 1    
    17   11   10 1    
    18   12   10 1    
    19   49   10 1    
    20   68   11 1    
    21   13   12 1    
    22   50   12 1    
    23   14   13 1    
    24   22   13 1    
    25   15   14 2    
    26   51   14 1    
    27   16   15 1    
    28   17   16 ar   
    29   22   16 ar   
    30   18   17 1    
    31   19   17 ar   
    32   52   18 1    
    33   53   18 1    
    34   20   19 ar   
    35   21   20 ar   
    36   54   20 1    
    37   22   21 ar   
    38   24   23 1    
    39   25   24 ar   
    40   26   24 ar   
    41   27   24 1    
    42   28   27 1    
    43   29   28 1    
    44   55   28 1    
    45   56   28 1    
    46   30   29 1    
    47   31   29 1    
    48   57   29 1    
    49   35   30 1    
    50   32   31 1    
    51   33   31 1    
    52   58   31 1    
    53   69   32 1    
    54   34   33 1    
    55   35   33 1    
    56   59   33 1    
    57   70   34 1    
    58   36   35 1    
    59   60   35 1    
    60   37   36 ar   
    61   44   36 ar   
    62   38   37 ar   
    63   61   37 1    
    64   39   38 1    
    65   42   38 ar   
    66   40   39 2    
    67   41   39 am   
    68   62   41 1    
    69   63   41 1    
    70   43   42 ar   
    71   64   42 1    
    72   44   43 ar   
    73   65   43 1    
    74   66   44 1    
@<TRIPOS>SUBSTRUCTURE
     1 NAD302      1 GROUP   
@<TRIPOS>SET

