#    Name: 1lhv_NOG_1_INTS_M
#    Modification time : Tue Mar 25 11:08:12 2014

@<TRIPOS>MOLECULE
1lhv_NOG_1_INTS_M
   72     0     9     0     0
SMALL
NO_CHARGES


@<TRIPOS>ATOM
      1 CA         27.2485   10.5310   28.9195 C.3       3 GLC5        0.0000 
      2 CA         25.8070   10.2680   30.3260 C.3       9 GLL5        0.0000 
      3 CA         28.6900   10.7940   27.5130 C.3       6 GLP5        0.0000 
      4 CA         26.8210    9.7610   32.0485 C.3       3 GLC5        0.0000 
      5 CA         27.8350    9.2540   33.7710 C.3       6 GLP5        0.0000 
      6 CA         27.2205    8.7470   30.0095 C.3       3 GLC5        0.0000 
      7 CA         28.6340    7.2260   29.6930 C.3       6 GLP5        0.0000 
      8 CA         25.3400   11.9730   28.9450 C.3       3 GLC5        0.0000 
      9 CA         24.8730   13.6780   27.5640 C.3       6 GLP5        0.0000 
     10 CA         25.0935   13.0830   29.5420 C.3       3 GLC5        0.0000 
     11 CA         25.3140   12.4880   31.5200 C.3       9 GLL5        0.0000 
     12 CA         23.5525   12.2195   35.0575 C.3       3 GLC5        0.0000 
     13 CA         23.4550   12.8040   33.1720 C.3       9 GLL5        0.0000 
     14 CA         23.6500   11.6350   36.9430 C.3       6 GLP5        0.0000 
     15 CA         21.5120   14.3500   34.1645 C.3       3 GLC5        0.0000 
     16 CA         21.9170   12.7020   32.9620 C.3       9 GLL5        0.0000 
     17 CA         21.1070   15.9980   35.3670 C.3       6 GLP5        0.0000 
     18 CA         21.3215   13.5910   31.2500 C.3       3 GLC5        0.0000 
     19 CA         20.7260   14.4800   29.5380 C.3       6 GLP5        0.0000 
     20 CA         22.5520    8.0340   30.2375 C.3       3 GLC5        0.0000 
     21 CA         21.6630    9.0100   31.6260 C.3       9 GLL5        0.0000 
     22 CA         23.4410    7.0580   28.8490 C.3       6 GLP5        0.0000 
     23 CA         22.5220    7.2165   32.4075 C.3       3 GLC5        0.0000 
     24 CA         23.3810    5.4230   33.1890 C.3       6 GLP5        0.0000 
     25 CA         20.4770    7.6630   29.8240 C.3       3 GLC5        0.0000 
     26 CA         20.1190    8.9350   31.4350 C.3       9 GLL5        0.0000 
     27 CA         20.8350    6.3910   28.2130 C.3       6 GLP5        0.0000 
     28 CA         19.6795   12.1875   30.9905 C.3       3 GLC5        0.0000 
     29 CA         19.8930   11.1350   32.6490 C.3       9 GLL5        0.0000 
     30 CA         19.4660   13.2400   29.3320 C.3       6 GLP5        0.0000 
     31 CA         18.1480   13.7450   34.1205 C.3       3 GLC5        0.0000 
     32 CA         18.8980   11.8080   33.6140 C.3       9 GLL5        0.0000 
     33 CA         17.3980   15.6820   34.6270 C.3       6 GLP5        0.0000 
     34 CA         16.5010   12.3875   32.0820 C.3       3 GLC5        0.0000 
     35 CA         17.5640   11.0280   33.4140 C.3       9 GLL5        0.0000 
     36 CA         15.4380   13.7470   30.7500 C.3       6 GLP5        0.0000 
     37 CA         20.3630   10.0715   35.3480 C.3       3 GLC5        0.0000 
     38 CA         19.5690    8.8630   33.9500 C.3       9 GLL5        0.0000 
     39 CA         21.1570   11.2800   36.7460 C.3       6 GLP5        0.0000 
     40 CA         19.6195    6.7860   35.9130 C.3       3 GLC5        0.0000 
     41 CA         19.5490    7.3340   33.9450 C.3       9 GLL5        0.0000 
     42 CA         19.6900    6.2380   37.8810 C.3       6 GLP5        0.0000 
     43 CA         21.4650    6.3785   33.5670 C.3       3 GLC5        0.0000 
     44 CA         20.2175    5.1900   34.0280 C.3       3 GLC5        0.0000 
     45 CA         20.8860    3.0460   34.1110 C.3       6 GLP5        0.0000 
     46 CA         19.0550    6.0495   32.3190 C.3       3 GLC5        0.0000 
     47 CA         18.5610    4.7650   30.6930 C.3       6 GLP5        0.0000 
     48 CA         17.5975   10.5195   27.8190 C.3       3 GLC5        0.0000 
     49 CA         17.2360   10.7760   29.9140 C.3       9 GLL5        0.0000 
     50 CA         17.9590   10.2630   25.7240 C.3       6 GLP5        0.0000 
     51 N          27.6640   13.3575   30.0370 N.am      2 SEC2        0.0000 
     52 N          27.0740   12.2190   29.9750 N.am      8 SEL2        0.0000 
     53 N          28.2540   14.4960   30.0990 N.am      5 SEP2        0.0000 
     54 N          16.7210    7.4950   33.6555 N.am      2 SEC2        0.0000 
     55 N          17.0130    8.7790   32.6010 N.am      8 SEL2        0.0000 
     56 N          16.4290    6.2110   34.7100 N.am      5 SEP2        0.0000 
     57 O          15.7685    9.6570   32.8800 O.2       1 ALC1        0.0000 
     58 O          17.0130    8.7790   32.6010 O.2       7 ALL1        0.0000 
     59 O          14.5240   10.5350   33.1590 O.2       4 ALP1        0.0000 
     60 CA         24.2690    8.5585   29.6803 C.3       3 GLC5        0.0000 
     61 CA         24.3870    9.8500   30.6970 C.3       9 GLL5        0.0000 
     62 CA         25.1760   13.4262   33.8821 C.3       3 GLC5        0.0000 
     63 CA         26.2350   14.3370   35.2530 C.3       6 GLP5        0.0000 
     64 CA         23.1085   14.7360   32.7105 C.3       3 GLC5        0.0000 
     65 CA         23.5310   16.7190   32.3540 C.3       6 GLP5        0.0000 
     66 CA         21.4117   11.6252   34.8383 C.3       3 GLC5        0.0000 
     67 CA         20.2762   11.3758   34.9387 C.3       3 GLC5        0.0000 
     68 CA         17.5725   12.0575   35.4380 C.3       3 GLC5        0.0000 
     69 CA         16.9140   12.6970   37.3620 C.3       6 GLP5        0.0000 
     70 CA         16.4068   12.1710   30.6005 C.3       3 GLC5        0.0000 
     71 CA         17.5150   10.4140   30.9880 C.3       9 GLL5        0.0000 
     72 CA         18.4207   11.9175   29.8915 C.3       3 GLC5        0.0000 
@<TRIPOS>BOND
@<TRIPOS>SUBSTRUCTURE
     1 ALC1       57 GROUP        1 X    ALC  0     ROOT ALC X 1
     2 SEC2       51 GROUP        1 X    SEC  0     **** SEC X 2
     3 GLC5        1 GROUP        1 X    GLC  0     **** GLC X 6
     4 ALP1       59 GROUP        1 Y    ALP  0     ROOT ALP Y 8
     5 SEP2       53 GROUP        1 Y    SEP  0     **** SEP Y 9
     6 GLP5        3 GROUP        1 Y    GLP  0     **** GLP Y 13
     7 ALL1       58 GROUP        1 Z    ALL  0     ROOT ALL Z 15
     8 SEL2       52 GROUP        1 Z    SEL  0     **** SEL Z 16
     9 GLL5        2 GROUP        1 Z    GLL  0     **** GLL Z 20
@<TRIPOS>SET

