#    Name: 1lhv_NOG_1_ligand
#    Modification time : Tue Mar 25 11:08:12 2014

@<TRIPOS>MOLECULE
1lhv_NOG_1_ligand
   50    53     1     0     0
SMALL
NO_CHARGES


@<TRIPOS>ATOM
      1 C1         24.3870    9.8500   30.6970 C.3       1 NOG301      0.0000 
      2 C2         25.8070   10.2680   30.3260 C.3       1 NOG301      0.0000 
      3 C3         26.1390   11.7200   30.5610 C.2       1 NOG301      0.0000 
      4 C4         25.3140   12.4880   31.5200 C.2       1 NOG301      0.0000 
      5 C5         24.2440   11.9660   32.1810 C.2       1 NOG301      0.0000 
      6 C6         23.4550   12.8040   33.1720 C.3       1 NOG301      0.0000 
      7 C7         21.9170   12.7020   32.9620 C.3       1 NOG301      0.0000 
      8 C8         21.4160   11.2390   32.8990 C.3       1 NOG301      0.0000 
      9 C9         22.1820   10.4840   31.7820 C.3       1 NOG301      0.0000 
     10 C10        23.7460   10.5010   31.9740 C.3       1 NOG301      0.0000 
     11 C11        21.6630    9.0100   31.6260 C.3       1 NOG301      0.0000 
     12 C12        20.1190    8.9350   31.4350 C.3       1 NOG301      0.0000 
     13 C13        19.3660    9.6410   32.5950 C.3       1 NOG301      0.0000 
     14 C14        19.8930   11.1350   32.6490 C.3       1 NOG301      0.0000 
     15 C15        18.8980   11.8080   33.6140 C.3       1 NOG301      0.0000 
     16 C16        17.5640   11.0280   33.4140 C.3       1 NOG301      0.0000 
     17 C17        17.8360    9.9190   32.3720 C.3       1 NOG301      0.0000 
     18 C18        19.5690    8.8630   33.9500 C.3       1 NOG301      0.0000 
     19 C19        19.5490    7.3340   33.9450 C.3       1 NOG301      0.0000 
     20 C20        17.5150   10.4140   30.9880 C.1       1 NOG301      0.0000 
     21 C21        17.2360   10.7760   29.9140 C.1       1 NOG301      0.0000 
     22 O3         27.0740   12.2190   29.9750 O.2       1 NOG301      0.0000 
     23 O17        17.0130    8.7790   32.6010 O.3       1 NOG301      0.0000 
     24 H          24.3549    8.7439   30.8335 H         1 NOG301      0.0000 
     25 H          23.7076   10.0592   29.8380 H         1 NOG301      0.0000 
     26 H          25.9770   10.0238   29.2549 H         1 NOG301      0.0000 
     27 H          26.5205    9.6339   30.8958 H         1 NOG301      0.0000 
     28 H          25.6075   13.4810   31.6650 H         1 NOG301      0.0000 
     29 H          23.7449   13.8567   33.0788 H         1 NOG301      0.0000 
     30 H          23.6839   12.4807   34.1937 H         1 NOG301      0.0000 
     31 H          21.6561   13.2082   32.0301 H         1 NOG301      0.0000 
     32 H          21.4160   13.2148   33.7858 H         1 NOG301      0.0000 
     33 H          21.6475   10.7550   33.8385 H         1 NOG301      0.0000 
     34 H          21.9722   10.9916   30.8263 H         1 NOG301      0.0000 
     35 H          23.9864    9.9116   32.8204 H         1 NOG301      0.0000 
     36 H          21.9384    8.4497   32.5179 H         1 NOG301      0.0000 
     37 H          22.1502    8.5609   30.7621 H         1 NOG301      0.0000 
     38 H          19.8195    7.8919   31.4005 H         1 NOG301      0.0000 
     39 H          19.8571    9.4160   30.4974 H         1 NOG301      0.0000 
     40 H          19.6590   11.5289   31.6321 H         1 NOG301      0.0000 
     41 H          18.7547   12.8197   33.3361 H         1 NOG301      0.0000 
     42 H          19.2263   11.6856   34.6133 H         1 NOG301      0.0000 
     43 H          16.8202   11.6971   33.0397 H         1 NOG301      0.0000 
     44 H          17.2752   10.5850   34.3421 H         1 NOG301      0.0000 
     45 H          18.7891    9.2351   34.6655 H         1 NOG301      0.0000 
     46 H          20.5395    9.2131   34.3906 H         1 NOG301      0.0000 
     47 H          20.2656    6.9551   33.3594 H         1 NOG301      0.0000 
     48 H          19.6895    6.9577   34.8608 H         1 NOG301      0.0000 
     49 H          18.6774    6.9751   33.6112 H         1 NOG301      0.0000 
     50 H          16.1133    9.1511   32.8291 H         1 NOG301      0.0000 
@<TRIPOS>BOND
     1    2    1 1    
     2   10    1 1    
     3   24    1 1    
     4   25    1 1    
     5    3    2 1    
     6   26    2 1    
     7   27    2 1    
     8    4    3 1    
     9   22    3 2    
    10    5    4 2    
    11   28    4 1    
    12    6    5 1    
    13   10    5 1    
    14    7    6 1    
    15   29    6 1    
    16   30    6 1    
    17    8    7 1    
    18   31    7 1    
    19   32    7 1    
    20    9    8 1    
    21   14    8 1    
    22   33    8 1    
    23   10    9 1    
    24   11    9 1    
    25   34    9 1    
    26   35   10 1    
    27   12   11 1    
    28   36   11 1    
    29   37   11 1    
    30   13   12 1    
    31   38   12 1    
    32   39   12 1    
    33   14   13 1    
    34   17   13 1    
    35   18   13 1    
    36   15   14 1    
    37   40   14 1    
    38   16   15 1    
    39   41   15 1    
    40   42   15 1    
    41   17   16 1    
    42   43   16 1    
    43   44   16 1    
    44   20   17 1    
    45   23   17 1    
    46   19   18 1    
    47   45   18 1    
    48   46   18 1    
    49   47   19 1    
    50   48   19 1    
    51   49   19 1    
    52   21   20 3    
    53   50   23 1    
@<TRIPOS>SUBSTRUCTURE
     1 NOG301      1 GROUP   
@<TRIPOS>SET

