#    Name: 4kt8_TIP_1_INTS_M
#    Modification time : Tue Mar 25 08:52:58 2014

@<TRIPOS>MOLECULE
4kt8_TIP_1_INTS_M
   55     0     6     0     0
SMALL
NO_CHARGES


@<TRIPOS>ATOM
      1 CA         14.7625  -19.9595    2.2815 C.3       2 GLC5        0.0000 
      2 CA         15.4790  -20.5560    4.0780 C.3       6 GLL5        0.0000 
      3 CA         14.0460  -19.3630    0.4850 C.3       4 GLP5        0.0000 
      4 CA         17.9155  -19.1440   10.5925 C.3       2 GLC5        0.0000 
      5 CA         17.9410  -19.1730    8.4630 C.3       6 GLL5        0.0000 
      6 CA         17.8900  -19.1150   12.7220 C.3       4 GLP5        0.0000 
      7 N          16.7035  -13.1465   -0.1370 N.am      1 SEC2        0.0000 
      8 N          18.3480  -13.5160    0.0540 N.am      5 SEL2        0.0000 
      9 N          15.0590  -12.7770   -0.3280 N.am      3 SEP2        0.0000 
     10 N          16.0395  -12.2000    1.8970 N.am      1 SEC2        0.0000 
     11 N          17.4560  -11.4760    1.3090 N.am      5 SEL2        0.0000 
     12 N          14.6230  -12.9240    2.4850 N.am      3 SEP2        0.0000 
     13 N          15.3515   -9.2415    3.1205 N.am      1 SEC2        0.0000 
     14 N          16.1970   -9.2680    1.7600 N.am      5 SEL2        0.0000 
     15 N          14.5060   -9.2150    4.4810 N.am      3 SEP2        0.0000 
     16 N          15.2685   -8.0770    0.9495 N.am      1 SEC2        0.0000 
     17 N          14.3400   -6.8860    0.1390 N.am      3 SEP2        0.0000 
     18 CA         21.9115  -18.5985    2.9340 C.3       2 GLC5        0.0000 
     19 CA         20.9790  -16.8920    2.3570 C.3       6 GLL5        0.0000 
     20 CA         22.8440  -20.3050    3.5110 C.3       4 GLP5        0.0000 
     21 CA         22.0130  -15.7970    5.3260 C.3       2 GLC5        0.0000 
     22 CA         20.3330  -17.0570    4.9410 C.3       6 GLL5        0.0000 
     23 CA         23.6930  -14.5370    5.7110 C.3       4 GLP5        0.0000 
     24 CA         16.2035  -15.9280    5.2050 C.3       2 GLC5        0.0000 
     25 CA         17.4460  -17.1940    6.1930 C.3       6 GLL5        0.0000 
     26 CA         14.9610  -14.6620    4.2170 C.3       4 GLP5        0.0000 
     27 CA         17.2005  -15.7620    7.2280 C.3       2 GLC5        0.0000 
     28 CA         16.9550  -14.3300    8.2630 C.3       4 GLP5        0.0000 
     29 CA         15.5070  -17.5745    3.9015 C.3       2 GLC5        0.0000 
     30 CA         16.3220  -19.3470    4.5540 C.3       6 GLL5        0.0000 
     31 CA         14.6920  -15.8020    3.2490 C.3       4 GLP5        0.0000 
     32 CA         18.1865  -22.9690    8.2615 C.3       2 GLC5        0.0000 
     33 CA         16.7480  -22.9660    6.8410 C.3       6 GLL5        0.0000 
     34 CA         19.6250  -22.9720    9.6820 C.3       4 GLP5        0.0000 
     35 CA         16.2470  -24.6800    6.2365 C.3       2 GLC5        0.0000 
     36 CA         15.7460  -26.3940    5.6320 C.3       4 GLP5        0.0000 
     37 CA         13.9420  -19.8775    7.3335 C.3       2 GLC5        0.0000 
     38 CA         14.6720  -21.5850    7.0210 C.3       6 GLL5        0.0000 
     39 CA         13.2120  -18.1700    7.6460 C.3       4 GLP5        0.0000 
     40 CA         13.1230  -21.8915    7.8285 C.3       2 GLC5        0.0000 
     41 CA         11.5740  -22.1980    8.6360 C.3       4 GLP5        0.0000 
     42 CA         15.1017  -19.2728    7.4885 C.3       2 GLC5        0.0000 
     43 CA         17.1160  -20.2220    8.0230 C.3       6 GLL5        0.0000 
     44 CA         18.5768  -21.3347    8.9625 C.3       2 GLC5        0.0000 
     45 CA         22.0100  -15.0085    4.7078 C.3       2 GLC5        0.0000 
     46 CA         20.4930  -16.2300    3.6600 C.3       6 GLL5        0.0000 
     47 CA         21.0045  -18.8046    4.6371 C.3       2 GLC5        0.0000 
     48 CA         19.3090  -18.2150    4.8240 C.3       6 GLL5        0.0000 
     49 CA         22.1480  -20.1800    4.7120 C.3       4 GLP5        0.0000 
     50 CA         19.9366  -20.1225    5.9039 C.3       2 GLC5        0.0000 
     51 CA         18.3110  -18.4890    6.0180 C.3       6 GLL5        0.0000 
     52 CA         21.4300  -21.2610    5.2130 C.3       4 GLP5        0.0000 
     53 CA         18.4647  -16.6531    8.5985 C.3       2 GLC5        0.0000 
     54 CA         19.8680  -17.7250    8.0180 C.3       6 GLL5        0.0000 
     55 CA         17.7580  -14.9360    9.2210 C.3       4 GLP5        0.0000 
@<TRIPOS>BOND
@<TRIPOS>SUBSTRUCTURE
     1 SEC2        7 GROUP        1 X    SEC  0     ROOT SEC X 2
     2 GLC5        1 GROUP        1 X    GLC  0     **** GLC X 6
     3 SEP2        9 GROUP        1 Y    SEP  0     ROOT SEP Y 9
     4 GLP5        3 GROUP        1 Y    GLP  0     **** GLP Y 13
     5 SEL2        8 GROUP        1 Z    SEL  0     ROOT SEL Z 16
     6 GLL5        2 GROUP        1 Z    GLL  0     **** GLL Z 20
@<TRIPOS>SET

