#    Name: 4kt8_TIP_1_ligand
#    Modification time : Tue Mar 25 08:52:59 2014

@<TRIPOS>MOLECULE
4kt8_TIP_1_ligand
   62    63     1     0     0
SMALL
NO_CHARGES


@<TRIPOS>ATOM
      1 C2         15.4790  -20.5560    4.0780 C.3       1 TIP301      0.0000 
      2 C5         16.8670  -20.5290    6.6390 C.2       1 TIP301      0.0000 
      3 C4         16.0470  -21.6900    6.3330 C.3       1 TIP301      0.0000 
      4 C6         17.1160  -20.2220    8.0230 C.2       1 TIP301      0.0000 
      5 C7         17.9410  -19.1730    8.4630 C.3       1 TIP301      0.0000 
      6 PA         18.7120  -12.4380    1.0120 P.3       1 TIP301      0.0000 
      7 O1A        18.3480  -13.5160    0.0540 O.co2     1 TIP301      0.0000 
      8 O2A        19.9060  -11.5240    0.4350 O.co2     1 TIP301      0.0000 
      9 O3A        17.4560  -11.4760    1.3090 O.3       1 TIP301      0.0000 
     10 PB         17.6500   -9.8840    1.4700 P.3       1 TIP301      0.0000 
     11 O1B        18.2920   -9.2420    0.2960 O.co2     1 TIP301      0.0000 
     12 O2B        18.5280   -9.6650    2.7980 O.co2     1 TIP301      0.0000 
     13 O3B        16.1970   -9.2680    1.7600 O.co2     1 TIP301      0.0000 
     14 O          19.2070  -12.9900    2.4370 O.3       1 TIP301      0.0000 
     15 C15        20.3180  -13.8790    2.4880 C.3       1 TIP301      0.0000 
     16 C14        20.1610  -14.7300    3.7490 C.2       1 TIP301      0.0000 
     17 C13        20.4930  -16.2300    3.6600 C.2       1 TIP301      0.0000 
     18 C16        20.9790  -16.8920    2.3570 C.3       1 TIP301      0.0000 
     19 C12        20.3330  -17.0570    4.9410 C.3       1 TIP301      0.0000 
     20 C11        19.3090  -18.2150    4.8240 C.3       1 TIP301      0.0000 
     21 C9         18.3110  -18.4890    6.0180 C.3       1 TIP301      0.0000 
     22 C20        17.4460  -17.1940    6.1930 C.3       1 TIP301      0.0000 
     23 C10        17.4440  -19.7310    5.5510 C.3       1 TIP301      0.0000 
     24 C1         16.3220  -19.3470    4.5540 C.3       1 TIP301      0.0000 
     25 C3         15.8520  -21.8770    4.8020 C.3       1 TIP301      0.0000 
     26 C18        16.7480  -22.9660    6.8410 C.3       1 TIP301      0.0000 
     27 C19        14.6720  -21.5850    7.0210 C.3       1 TIP301      0.0000 
     28 C8         19.0090  -18.8580    7.4050 C.3       1 TIP301      0.0000 
     29 C17        19.8680  -17.7250    8.0180 C.3       1 TIP301      0.0000 
     30 H          15.6260  -20.6896    3.0031 H         1 TIP301      0.0000 
     31 H          14.4217  -20.3431    4.2559 H         1 TIP301      0.0000 
     32 H          16.6457  -20.8274    8.7378 H         1 TIP301      0.0000 
     33 H          18.4710  -19.4192    9.3954 H         1 TIP301      0.0000 
     34 H          17.3787  -18.2444    8.6425 H         1 TIP301      0.0000 
     35 H          21.2641  -13.3494    2.5586 H         1 TIP301      0.0000 
     36 H          20.3457  -14.5501    1.6340 H         1 TIP301      0.0000 
     37 H          19.8617  -14.3403    4.5813 H         1 TIP301      0.0000 
     38 H          20.0178  -16.3947    5.7609 H         1 TIP301      0.0000 
     39 H          21.3087  -17.4816    5.2204 H         1 TIP301      0.0000 
     40 H          19.8671  -19.1655    4.6293 H         1 TIP301      0.0000 
     41 H          18.6933  -18.0542    3.9032 H         1 TIP301      0.0000 
     42 H          18.1433  -20.3894    4.9694 H         1 TIP301      0.0000 
     43 H          15.6576  -18.6192    5.0330 H         1 TIP301      0.0000 
     44 H          16.7753  -18.8659    3.6802 H         1 TIP301      0.0000 
     45 H          16.7779  -22.2659    4.3741 H         1 TIP301      0.0000 
     46 H          15.0590  -22.6084    4.6349 H         1 TIP301      0.0000 
     47 H          19.6147  -19.7263    7.2716 H         1 TIP301      0.0000 
     48 H          21.8328  -16.4865    2.0304 H         1 TIP301      0.0000 
     49 H          21.1466  -17.8705    2.4776 H         1 TIP301      0.0000 
     50 H          20.3092  -16.7979    1.6204 H         1 TIP301      0.0000 
     51 H          18.0105  -16.3961    6.4044 H         1 TIP301      0.0000 
     52 H          16.9304  -16.9770    5.3641 H         1 TIP301      0.0000 
     53 H          16.7821  -17.2883    6.9349 H         1 TIP301      0.0000 
     54 H          17.6423  -23.0942    6.4122 H         1 TIP301      0.0000 
     55 H          16.8980  -22.9389    7.8293 H         1 TIP301      0.0000 
     56 H          16.2103  -23.7868    6.6485 H         1 TIP301      0.0000 
     57 H          14.7578  -21.5277    8.0157 H         1 TIP301      0.0000 
     58 H          14.1686  -20.7740    6.7230 H         1 TIP301      0.0000 
     59 H          14.0955  -22.3774    6.8217 H         1 TIP301      0.0000 
     60 H          20.2949  -18.0062    8.8775 H         1 TIP301      0.0000 
     61 H          20.6047  -17.4433    7.4032 H         1 TIP301      0.0000 
     62 H          19.3225  -16.9102    8.2145 H         1 TIP301      0.0000 
@<TRIPOS>BOND
     1   24    1 1    
     2   25    1 1    
     3   30    1 1    
     4   31    1 1    
     5    3    2 1    
     6    4    2 2    
     7   23    2 1    
     8   25    3 1    
     9   26    3 1    
    10   27    3 1    
    11    5    4 1    
    12   32    4 1    
    13   28    5 1    
    14   33    5 1    
    15   34    5 1    
    16    7    6 ar   
    17    8    6 ar   
    18    9    6 1    
    19   14    6 1    
    20   10    9 1    
    21   11   10 ar   
    22   12   10 ar   
    23   13   10 ar   
    24   15   14 1    
    25   16   15 1    
    26   35   15 1    
    27   36   15 1    
    28   17   16 2    
    29   37   16 1    
    30   18   17 1    
    31   19   17 1    
    32   48   18 1    
    33   49   18 1    
    34   50   18 1    
    35   20   19 1    
    36   38   19 1    
    37   39   19 1    
    38   21   20 1    
    39   40   20 1    
    40   41   20 1    
    41   22   21 1    
    42   23   21 1    
    43   28   21 1    
    44   51   22 1    
    45   52   22 1    
    46   53   22 1    
    47   24   23 1    
    48   42   23 1    
    49   43   24 1    
    50   44   24 1    
    51   45   25 1    
    52   46   25 1    
    53   54   26 1    
    54   55   26 1    
    55   56   26 1    
    56   57   27 1    
    57   58   27 1    
    58   59   27 1    
    59   29   28 1    
    60   47   28 1    
    61   60   29 1    
    62   61   29 1    
    63   62   29 1    
@<TRIPOS>SUBSTRUCTURE
     1 TIP301      1 GROUP   
@<TRIPOS>SET

