#    Name: 3gwc_FAD_5_INTS_M
#    Modification time : Tue Mar 25 13:06:27 2014

@<TRIPOS>MOLECULE
3gwc_FAD_5_INTS_M
  102     0    12     0     0
SMALL
NO_CHARGES


@<TRIPOS>ATOM
      1 NZ        -50.1900   44.6330  -25.6995 N.4       3 LYC4        0.0000 
      2 NZ        -50.5090   44.0480  -24.1300 N.4      11 LYL4        0.0000 
      3 NZ        -49.0280   46.0360  -26.6820 N.4       7 LYP4        0.0000 
      4 N         -49.9665   44.1585  -22.8645 N.am      2 SEC2        0.0000 
      5 N         -50.5090   44.0480  -24.1300 N.am     10 SEL2        0.0000 
      6 N         -49.4240   44.2690  -21.5990 N.am      6 SEP2        0.0000 
      7 N         -49.6095   44.9460  -24.7650 N.am      2 SEC2        0.0000 
      8 N         -48.7100   45.8440  -25.4000 N.am      6 SEP2        0.0000 
      9 N         -50.1900   44.6330  -25.6995 N.am      2 SEC2        0.0000 
     10 N         -49.8710   45.2180  -27.2690 N.am      6 SEP2        0.0000 
     11 N         -51.4410   40.6920  -22.9075 N.am      2 SEC2        0.0000 
     12 N         -51.9690   41.9050  -23.4590 N.am     10 SEL2        0.0000 
     13 N         -50.9130   39.4790  -22.3560 N.am      6 SEP2        0.0000 
     14 CA        -56.4400   45.5295  -24.3725 C.3       4 GLC5        0.0000 
     15 CA        -55.1850   44.1990  -25.0940 C.3      12 GLL5        0.0000 
     16 CA        -57.6950   46.8600  -23.6510 C.3       8 GLP5        0.0000 
     17 CA        -54.5615   45.0330  -29.3795 C.3       4 GLC5        0.0000 
     18 CA        -55.3650   44.9890  -27.3250 C.3      12 GLL5        0.0000 
     19 CA        -53.7580   45.0770  -31.4340 C.3       8 GLP5        0.0000 
     20 CA        -55.3590   48.1090  -26.1065 C.3       4 GLC5        0.0000 
     21 CA        -55.0450   46.1560  -26.4060 C.3      12 GLL5        0.0000 
     22 CA        -55.6730   50.0620  -25.8070 C.3       8 GLP5        0.0000 
     23 CA        -51.0900   48.0275  -30.1505 C.3       4 GLC5        0.0000 
     24 CA        -51.7100   49.0520  -28.4130 C.3      12 GLL5        0.0000 
     25 CA        -50.4700   47.0030  -31.8880 C.3       8 GLP5        0.0000 
     26 N         -51.9490   50.0250  -30.7250 N.am      2 SEC2        0.0000 
     27 N         -52.4640   49.3260  -29.5090 N.am     10 SEL2        0.0000 
     28 N         -51.4340   50.7240  -31.9410 N.am      6 SEP2        0.0000 
     29 CA        -52.0820   47.9025  -30.7775 C.3       4 GLC5        0.0000 
     30 CA        -53.6940   48.8020  -29.6670 C.3      12 GLL5        0.0000 
     31 CA        -54.5480   50.3230  -28.6655 C.3       4 GLC5        0.0000 
     32 CA        -55.4020   51.8440  -27.6640 C.3       8 GLP5        0.0000 
     33 CA        -53.7260   46.9395  -30.5505 C.3       4 GLC5        0.0000 
     34 CA        -54.8820   50.1250  -30.8055 C.3       4 GLC5        0.0000 
     35 CA        -56.0700   51.4480  -31.9440 C.3       8 GLP5        0.0000 
     36 CA        -54.5795   48.8600  -26.7235 C.3       4 GLC5        0.0000 
     37 CA        -53.4860   47.6580  -27.6400 C.3      12 GLL5        0.0000 
     38 N         -42.8145   40.1985  -29.3875 N.am      2 SEC2        0.0000 
     39 N         -42.8490   39.8700  -30.6900 N.am     10 SEL2        0.0000 
     40 N         -42.7800   40.5270  -28.0850 N.am      6 SEP2        0.0000 
     41 N         -43.6780   40.8195  -29.7930 N.am      2 SEC2        0.0000 
     42 N         -44.5070   41.7690  -28.8960 N.am      6 SEP2        0.0000 
     43 N         -41.6775   40.3685  -31.3690 N.am      2 SEC2        0.0000 
     44 N         -40.5060   40.8670  -32.0480 N.am      6 SEP2        0.0000 
     45 O         -41.3120   37.9145  -31.7950 O.2       1 ALC1        0.0000 
     46 O         -42.8360   37.7210  -31.5330 O.2       9 ALL1        0.0000 
     47 O         -39.7880   38.1080  -32.0570 O.2       5 ALP1        0.0000 
     48 CA        -49.8080   30.3910  -29.2630 C.3       4 GLC5        0.0000 
     49 CA        -48.6350   31.9240  -28.8220 C.3      12 GLL5        0.0000 
     50 CA        -50.9810   28.8580  -29.7040 C.3       8 GLP5        0.0000 
     51 CA        -48.5855   30.4675  -27.3645 C.3       4 GLC5        0.0000 
     52 CA        -48.5360   29.0110  -25.9070 C.3       8 GLP5        0.0000 
     53 CA        -51.4345   34.6590  -26.0400 C.3       4 GLC5        0.0000 
     54 CA        -49.5630   34.1060  -27.1320 C.3      12 GLL5        0.0000 
     55 CA        -53.3060   35.2120  -24.9480 C.3       8 GLP5        0.0000 
     56 CA        -49.4705   33.9520  -25.0805 C.3       4 GLC5        0.0000 
     57 CA        -49.3780   33.7980  -23.0290 C.3       8 GLP5        0.0000 
     58 CA        -45.0985   34.7990  -28.6430 C.3       4 GLC5        0.0000 
     59 CA        -46.6510   35.7800  -28.9680 C.3      12 GLL5        0.0000 
     60 CA        -43.5460   33.8180  -28.3180 C.3       8 GLP5        0.0000 
     61 CA        -44.4110   37.6240  -27.7390 C.3       4 GLC5        0.0000 
     62 CA        -46.4800   38.1320  -28.1690 C.3      12 GLL5        0.0000 
     63 CA        -42.3420   37.1160  -27.3090 C.3       8 GLP5        0.0000 
     64 N         -47.9155   40.2075  -30.7390 N.am      2 SEC2        0.0000 
     65 N         -47.5620   39.2290  -29.9870 N.am     10 SEL2        0.0000 
     66 N         -48.2690   41.1860  -31.4910 N.am      6 SEP2        0.0000 
     67 CA        -49.6080   40.0085  -23.5045 C.3       4 GLC5        0.0000 
     68 CA        -49.3230   40.4420  -25.5790 C.3      12 GLL5        0.0000 
     69 CA        -49.8930   39.5750  -21.4300 C.3       8 GLP5        0.0000 
     70 NZ        -51.5600   42.5550  -28.7640 N.4       3 LYC4        0.0000 
     71 NZ        -50.7930   41.7110  -27.8920 N.4      11 LYL4        0.0000 
     72 NZ        -53.6330   43.2120  -29.8090 N.4       7 LYP4        0.0000 
     73 N         -51.5600   42.5550  -28.7640 N.am      2 SEC2        0.0000 
     74 N         -50.7930   41.7110  -27.8920 N.am     10 SEL2        0.0000 
     75 N         -52.3270   43.3990  -29.6360 N.am      6 SEP2        0.0000 
     76 NZ        -53.6020   41.5460  -27.9800 N.4       3 LYC4        0.0000 
     77 NZ        -52.9580   40.8610  -26.8110 N.4      11 LYL4        0.0000 
     78 N         -53.8010   40.4095  -25.8995 N.am      2 SEC2        0.0000 
     79 N         -52.9580   40.8610  -26.8110 N.am     10 SEL2        0.0000 
     80 N         -54.6440   39.9580  -24.9880 N.am      6 SEP2        0.0000 
     81 N         -53.6020   41.5460  -27.9800 N.am      2 SEC2        0.0000 
     82 N         -54.2460   42.2310  -29.1490 N.am      6 SEP2        0.0000 
     83 N         -50.7015   43.9805  -26.5720 N.am      2 SEC2        0.0000 
     84 N         -51.5320   42.7430  -25.8750 N.am     10 SEL2        0.0000 
     85 CA        -54.4455   45.3268  -23.3010 C.3       4 GLC5        0.0000 
     86 CA        -54.2310   43.5280  -24.1220 C.3      12 GLL5        0.0000 
     87 CA        -54.1830   46.7900  -21.9940 C.3       8 GLP5        0.0000 
     88 CA        -54.7815   41.9513  -24.1200 C.3       4 GLC5        0.0000 
     89 CA        -54.8550   40.0390  -23.6320 C.3       8 GLP5        0.0000 
     90 CA        -56.8895   46.5072  -26.3083 C.3       4 GLC5        0.0000 
     91 CA        -58.5740   47.4420  -25.7510 C.3       8 GLP5        0.0000 
     92 CA        -53.4772   49.8080  -27.2193 C.3       4 GLC5        0.0000 
     93 CA        -52.2050   48.1880  -27.4500 C.3      12 GLL5        0.0000 
     94 CA        -54.9970   50.9960  -26.5070 C.3       8 GLP5        0.0000 
     95 CA        -45.3890   33.7523  -28.8263 C.3       4 GLC5        0.0000 
     96 CA        -46.2090   34.7430  -29.8110 C.3      12 GLL5        0.0000 
     97 CA        -48.5267   40.7905  -29.6268 C.3       4 GLC5        0.0000 
     98 CA        -47.7820   38.7410  -28.6720 C.3      12 GLL5        0.0000 
     99 CA        -49.0280   42.2740  -31.0300 C.3       8 GLP5        0.0000 
    100 CA        -47.1433   40.2150  -25.1048 C.3       4 GLC5        0.0000 
    101 CA        -48.5380   39.3960  -26.3460 C.3      12 GLL5        0.0000 
    102 CA        -45.3560   40.5110  -24.2470 C.3       8 GLP5        0.0000 
@<TRIPOS>BOND
@<TRIPOS>SUBSTRUCTURE
     1 ALC1       45 GROUP        1 X    ALC  0     ROOT ALC X 1
     2 SEC2        4 GROUP        1 X    SEC  0     **** SEC X 2
     3 LYC4        1 GROUP        1 X    LYC  0     **** LYC X 4
     4 GLC5       14 GROUP        1 X    GLC  0     **** GLC X 6
     5 ALP1       47 GROUP        1 Y    ALP  0     ROOT ALP Y 8
     6 SEP2        6 GROUP        1 Y    SEP  0     **** SEP Y 9
     7 LYP4        3 GROUP        1 Y    LYP  0     **** LYP Y 11
     8 GLP5       16 GROUP        1 Y    GLP  0     **** GLP Y 13
     9 ALL1       46 GROUP        1 Z    ALL  0     ROOT ALL Z 15
    10 SEL2        5 GROUP        1 Z    SEL  0     **** SEL Z 16
    11 LYL4        2 GROUP        1 Z    LYL  0     **** LYL Z 18
    12 GLL5       15 GROUP        1 Z    GLL  0     **** GLL Z 20
@<TRIPOS>SET

