#    Name: 3gwc_FAD_5_ligand
#    Modification time : Tue Mar 25 13:06:27 2014

@<TRIPOS>MOLECULE
3gwc_FAD_5_ligand
   84    89     1     0     0
SMALL
NO_CHARGES


@<TRIPOS>ATOM
      1 PA        -51.6540   43.1070  -24.3160 P.3       1 FAD259      0.0000 
      2 O1A       -50.5090   44.0480  -24.1300 O.co2     1 FAD259      0.0000 
      3 O2A       -51.9690   41.9050  -23.4590 O.co2     1 FAD259      0.0000 
      4 O5B       -52.9290   44.0730  -24.3400 O.3       1 FAD259      0.0000 
      5 C5B       -54.2310   43.5280  -24.1220 C.3       1 FAD259      0.0000 
      6 C4B       -55.1850   44.1990  -25.0940 C.3       1 FAD259      0.0000 
      7 O4B       -55.0540   45.6260  -25.0670 O.3       1 FAD259      0.0000 
      8 C3B       -54.9020   43.7830  -26.5330 C.3       1 FAD259      0.0000 
      9 O3B       -55.5840   42.5560  -26.8560 O.3       1 FAD259      0.0000 
     10 C2B       -55.3650   44.9890  -27.3250 C.3       1 FAD259      0.0000 
     11 O2B       -56.7870   44.8690  -27.5100 O.3       1 FAD259      0.0000 
     12 C1B       -55.0450   46.1560  -26.4060 C.3       1 FAD259      0.0000 
     13 N9A       -53.7550   46.8720  -26.6020 N.pl3     1 FAD259      0.0000 
     14 C8A       -52.6920   46.9060  -25.7470 C.2       1 FAD259      0.0000 
     15 N7A       -51.7320   47.7270  -26.2560 N.2       1 FAD259      0.0000 
     16 C5A       -52.2050   48.1880  -27.4500 C.ar      1 FAD259      0.0000 
     17 C6A       -51.7100   49.0520  -28.4130 C.ar      1 FAD259      0.0000 
     18 N6A       -50.4840   49.6170  -28.2840 N.pl3     1 FAD259      0.0000 
     19 N1A       -52.4640   49.3260  -29.5090 N.ar      1 FAD259      0.0000 
     20 C2A       -53.6940   48.8020  -29.6670 C.ar      1 FAD259      0.0000 
     21 N3A       -54.2110   47.9630  -28.7500 N.ar      1 FAD259      0.0000 
     22 C4A       -53.4860   47.6580  -27.6400 C.ar      1 FAD259      0.0000 
     23 N1        -44.3930   38.4310  -29.9210 N.2       1 FAD259      0.0000 
     24 C2        -43.3340   38.7030  -30.7250 C.2       1 FAD259      0.0000 
     25 O2        -42.8490   39.8700  -30.6900 O.2       1 FAD259      0.0000 
     26 N3        -42.8360   37.7210  -31.5330 N.am      1 FAD259      0.0000 
     27 C4        -43.4330   36.4710  -31.5310 C.2       1 FAD259      0.0000 
     28 O4        -42.9850   35.5550  -32.2780 O.2       1 FAD259      0.0000 
     29 C4X       -44.5300   36.1980  -30.6940 C.2       1 FAD259      0.0000 
     30 N5        -45.1680   34.9800  -30.6760 N.2       1 FAD259      0.0000 
     31 C5X       -46.2090   34.7430  -29.8110 C.ar      1 FAD259      0.0000 
     32 C6        -46.8570   33.4830  -29.7630 C.ar      1 FAD259      0.0000 
     33 C7        -47.9310   33.2600  -28.8820 C.ar      1 FAD259      0.0000 
     34 C7M       -48.6350   31.9240  -28.8220 C.3       1 FAD259      0.0000 
     35 C8        -48.3900   34.2930  -28.0700 C.ar      1 FAD259      0.0000 
     36 C8M       -49.5630   34.1060  -27.1320 C.3       1 FAD259      0.0000 
     37 C9        -47.7540   35.5350  -28.1240 C.ar      1 FAD259      0.0000 
     38 C9A       -46.6510   35.7800  -28.9680 C.ar      1 FAD259      0.0000 
     39 N10       -46.0380   37.0140  -29.0330 N.pl3     1 FAD259      0.0000 
     40 C10       -44.9910   37.2160  -29.8610 C.2       1 FAD259      0.0000 
     41 C1'       -46.4800   38.1320  -28.1690 C.3       1 FAD259      0.0000 
     42 C2'       -47.7820   38.7410  -28.6720 C.3       1 FAD259      0.0000 
     43 O2'       -47.5620   39.2290  -29.9870 O.3       1 FAD259      0.0000 
     44 C3'       -48.2690   39.8730  -27.7750 C.3       1 FAD259      0.0000 
     45 O3'       -47.2700   40.8970  -27.6970 O.3       1 FAD259      0.0000 
     46 C4'       -48.5380   39.3960  -26.3460 C.3       1 FAD259      0.0000 
     47 O4'       -49.2610   38.1620  -26.3440 O.3       1 FAD259      0.0000 
     48 C5'       -49.3230   40.4420  -25.5790 C.3       1 FAD259      0.0000 
     49 O5'       -50.7120   40.2750  -25.8320 O.3       1 FAD259      0.0000 
     50 P         -51.5520   41.3620  -26.6550 P.3       1 FAD259      0.0000 
     51 O1P       -50.7930   41.7110  -27.8920 O.co2     1 FAD259      0.0000 
     52 O2P       -52.9580   40.8610  -26.8110 O.co2     1 FAD259      0.0000 
     53 O3P       -51.5320   42.7430  -25.8750 O.3       1 FAD259      0.0000 
     54 H         -54.5863   43.7198  -23.1103 H         1 FAD259      0.0000 
     55 H         -54.2571   42.4548  -24.3066 H         1 FAD259      0.0000 
     56 H         -56.1969   43.9069  -24.8623 H         1 FAD259      0.0000 
     57 H         -53.8343   43.7087  -26.6320 H         1 FAD259      0.0000 
     58 H         -54.8206   45.0612  -28.2020 H         1 FAD259      0.0000 
     59 H         -55.8727   46.8774  -26.4801 H         1 FAD259      0.0000 
     60 H         -52.6315   46.4233  -24.9127 H         1 FAD259      0.0000 
     61 H         -50.1493   49.7333  -27.3488 H         1 FAD259      0.0000 
     62 H         -50.0231   49.8673  -29.1354 H         1 FAD259      0.0000 
     63 H         -54.2573   49.0510  -30.5164 H         1 FAD259      0.0000 
     64 H         -42.0250   37.8992  -32.1410 H         1 FAD259      0.0000 
     65 H         -46.5356   32.7282  -30.3796 H         1 FAD259      0.0000 
     66 H         -48.1013   36.3099  -27.5233 H         1 FAD259      0.0000 
     67 H         -45.7145   38.9173  -28.1427 H         1 FAD259      0.0000 
     68 H         -46.6332   37.7801  -27.1413 H         1 FAD259      0.0000 
     69 H         -48.5356   37.9610  -28.6762 H         1 FAD259      0.0000 
     70 H         -49.1872   40.2679  -28.1747 H         1 FAD259      0.0000 
     71 H         -47.5752   39.2761  -25.8510 H         1 FAD259      0.0000 
     72 H         -48.9678   41.4309  -25.8954 H         1 FAD259      0.0000 
     73 H         -49.0869   40.3281  -24.5134 H         1 FAD259      0.0000 
     74 H         -48.0098   31.1858  -28.5686 H         1 FAD259      0.0000 
     75 H         -49.3757   31.9243  -28.1501 H         1 FAD259      0.0000 
     76 H         -49.0385   31.6769  -29.7030 H         1 FAD259      0.0000 
     77 H         -49.3912   33.3839  -26.4619 H         1 FAD259      0.0000 
     78 H         -49.7648   34.9402  -26.6188 H         1 FAD259      0.0000 
     79 H         -50.3965   33.8563  -27.6248 H         1 FAD259      0.0000 
     80 H         -54.8627   41.8654  -26.9091 H         1 FAD259      0.0000 
     81 H         -56.9700   43.8865  -27.4777 H         1 FAD259      0.0000 
     82 H         -46.5712   39.1868  -30.1162 H         1 FAD259      0.0000 
     83 H         -47.1988   41.2603  -28.6260 H         1 FAD259      0.0000 
     84 H         -50.1786   38.4004  -26.0259 H         1 FAD259      0.0000 
@<TRIPOS>BOND
     1    2    1 ar   
     2    3    1 ar   
     3    4    1 1    
     4   53    1 1    
     5    5    4 1    
     6    6    5 1    
     7   54    5 1    
     8   55    5 1    
     9    7    6 1    
    10    8    6 1    
    11   56    6 1    
    12   12    7 1    
    13    9    8 1    
    14   10    8 1    
    15   57    8 1    
    16   80    9 1    
    17   11   10 1    
    18   12   10 1    
    19   58   10 1    
    20   81   11 1    
    21   13   12 1    
    22   59   12 1    
    23   14   13 1    
    24   22   13 1    
    25   15   14 2    
    26   60   14 1    
    27   16   15 1    
    28   17   16 ar   
    29   22   16 ar   
    30   18   17 1    
    31   19   17 ar   
    32   61   18 1    
    33   62   18 1    
    34   20   19 ar   
    35   21   20 ar   
    36   63   20 1    
    37   22   21 ar   
    38   24   23 1    
    39   40   23 2    
    40   25   24 2    
    41   26   24 am   
    42   27   26 am   
    43   64   26 1    
    44   28   27 2    
    45   29   27 1    
    46   30   29 2    
    47   40   29 1    
    48   31   30 1    
    49   32   31 ar   
    50   38   31 ar   
    51   33   32 ar   
    52   65   32 1    
    53   34   33 1    
    54   35   33 ar   
    55   74   34 1    
    56   75   34 1    
    57   76   34 1    
    58   36   35 1    
    59   37   35 ar   
    60   77   36 1    
    61   78   36 1    
    62   79   36 1    
    63   38   37 ar   
    64   66   37 1    
    65   39   38 1    
    66   40   39 1    
    67   41   39 1    
    68   42   41 1    
    69   67   41 1    
    70   68   41 1    
    71   43   42 1    
    72   44   42 1    
    73   69   42 1    
    74   82   43 1    
    75   45   44 1    
    76   46   44 1    
    77   70   44 1    
    78   83   45 1    
    79   47   46 1    
    80   48   46 1    
    81   71   46 1    
    82   84   47 1    
    83   49   48 1    
    84   72   48 1    
    85   73   48 1    
    86   50   49 1    
    87   51   50 ar   
    88   52   50 ar   
    89   53   50 1    
@<TRIPOS>SUBSTRUCTURE
     1 FAD259      1 GROUP   
@<TRIPOS>SET

