#    Name: 4f75_PHE_LEU_2_INTS_M
#    Modification time : Mon Mar 24 19:01:03 2014

@<TRIPOS>MOLECULE
4f75_PHE_LEU_2_INTS_M
   22     0     6     0     0
SMALL
NO_CHARGES


@<TRIPOS>ATOM
      1 N          17.5995   -5.4505   10.8975 N.am      1 SEC2        0.0000 
      2 N          18.3290   -6.0970   12.0300 N.am      5 SEL2        0.0000 
      3 N          16.8700   -4.8040    9.7650 N.am      3 SEP2        0.0000 
      4 N          19.5465   -5.7945   10.8305 N.am      1 SEC2        0.0000 
      5 N          20.7640   -5.4920    9.6310 N.am      3 SEP2        0.0000 
      6 CA         13.9775   -6.1600   15.2845 C.3       2 GLC5        0.0000 
      7 CA         15.1790   -5.4090   13.6650 C.3       6 GLL5        0.0000 
      8 CA         12.7760   -6.9110   16.9040 C.3       4 GLP5        0.0000 
      9 CA         16.5220   -4.3825   11.6525 C.3       2 GLC5        0.0000 
     10 CA         15.5530   -5.9890   12.3620 C.3       6 GLL5        0.0000 
     11 CA         17.4910   -2.7760   10.9430 C.3       4 GLP5        0.0000 
     12 CA         16.0005   -6.5225   10.6560 C.3       2 GLC5        0.0000 
     13 CA         16.4480   -7.0560    8.9500 C.3       4 GLP5        0.0000 
     14 CA         13.3603   -4.4215   14.3253 C.3       2 GLC5        0.0000 
     15 CA         14.4540   -4.1010   13.4400 C.3       6 GLL5        0.0000 
     16 CA         11.9040   -4.0880   15.0980 C.3       4 GLP5        0.0000 
     17 CA         15.7526   -3.3453   12.7146 C.3       2 GLC5        0.0000 
     18 CA         16.3860   -2.0070   11.6540 C.3       4 GLP5        0.0000 
     19 CA         14.8551   -2.9582   14.4461 C.3       2 GLC5        0.0000 
     20 CA         14.5910   -1.2330   15.1170 C.3       4 GLP5        0.0000 
     21 CA         13.7524   -5.8135   12.0361 C.3       2 GLC5        0.0000 
     22 CA         12.3200   -6.2550   11.1150 C.3       4 GLP5        0.0000 
@<TRIPOS>BOND
@<TRIPOS>SUBSTRUCTURE
     1 SEC2        1 GROUP        1 X    SEC  0     ROOT SEC X 2
     2 GLC5        6 GROUP        1 X    GLC  0     **** GLC X 6
     3 SEP2        3 GROUP        1 Y    SEP  0     ROOT SEP Y 9
     4 GLP5        8 GROUP        1 Y    GLP  0     **** GLP Y 13
     5 SEL2        2 GROUP        1 Z    SEL  0     ROOT SEL Z 16
     6 GLL5        7 GROUP        1 Z    GLL  0     **** GLL Z 20
@<TRIPOS>SET

