#    Name: 4f75_PHE_LEU_2_ligand
#    Modification time : Mon Mar 24 19:01:03 2014

@<TRIPOS>MOLECULE
4f75_PHE_LEU_2_ligand
   22    21     1     0     0
SMALL
NO_CHARGES


@<TRIPOS>ATOM
      1 N          18.8160   -5.0140   14.6320 N.4       1 LEU7        0.0000
      2 CA         17.6970   -5.9010   14.3730 C.3       1 LEU7        0.0000
      3 C          17.7950   -6.6110   13.0210 C.2       1 LEU7        0.0000
      4 O          18.3290   -6.0970   12.0300 O.2       1 LEU7        0.0000
      5 CB         16.3900   -5.1230   14.5560 C.3       1 LEU7        0.0000
      6 CG         15.1790   -5.4090   13.6650 C.3       1 LEU7        0.0000
      7 CD1        14.4540   -4.1010   13.4400 C.3       1 LEU7        0.0000
      8 CD2        15.5530   -5.9890   12.3620 C.3       1 LEU7        0.0000
      9 HA         17.6931   -6.6946   15.1584 H         1 LEU7        0.0000
     10 H          17.3534   -7.5721   13.0606 H         1 LEU7        0.0000
     11 HB2        16.6281   -4.0182   14.4785 H         1 LEU7        0.0000
     12 HB3        16.0648   -5.2366   15.6352 H         1 LEU7        0.0000
     13 HG         14.5139   -6.0709   14.1982 H         1 LEU7        0.0000
     14 HNCA       19.6869   -5.5055   14.6338 H         1 LEU7        0.0000
     15 H          18.8870   -4.2943   13.9413 H         1 LEU7        0.0000
     16 H          18.7332   -4.5611   15.5197 H         1 LEU7        0.0000
     17 HD11       15.0388   -3.4244   12.9924 H         1 LEU7        0.0000
     18 HD12       13.6465   -4.2186   12.8620 H         1 LEU7        0.0000
     19 HD13       14.1426   -3.6963   14.2998 H         1 LEU7        0.0000
     20 HD21       16.1543   -5.3809   11.8437 H         1 LEU7        0.0000
     21 HD22       16.0356   -6.8585   12.4673 H         1 LEU7        0.0000
     22 HD23       14.7517   -6.1658   11.7905 H         1 LEU7        0.0000
@<TRIPOS>BOND
     1    2    1 1
     2   14    1 1
     3   15    1 1
     4   16    1 1
     5    3    2 1
     6    5    2 1
     7    9    2 1
     8    4    3 2
     9   10    3 1
    10    6    5 1
    11   11    5 1
    12   12    5 1
    13    7    6 1
    14    8    6 1
    15   13    6 1
    16   17    7 1
    17   18    7 1
    18   19    7 1
    19   20    8 1
    20   21    8 1
    21   22    8 1
@<TRIPOS>SUBSTRUCTURE
     1 LEU7        1 RESIDUE
@<TRIPOS>SET

