#    Name: 1juv_NDP_1_INTS_M
#    Modification time : Tue Mar 25 09:27:26 2014

@<TRIPOS>MOLECULE
1juv_NDP_1_INTS_M
   68     0     9     0     0
SMALL
NO_CHARGES


@<TRIPOS>ATOM
      1 N          34.8570   12.9375   75.8160 N.am      2 SEC2        0.0000 
      2 N          34.0340   12.5860   74.4890 N.am      8 SEL2        0.0000 
      3 N          35.6800   13.2890   77.1430 N.am      5 SEP2        0.0000 
      4 N          35.1240   11.6265   75.2080 N.am      2 SEC2        0.0000 
      5 N          36.2140   10.6670   75.9270 N.am      5 SEP2        0.0000 
      6 CA         32.6360   15.9310   74.6445 C.3       3 GLC5        0.0000 
      7 CA         31.4850   14.2360   74.9220 C.3       9 GLL5        0.0000 
      8 CA         33.7870   17.6260   74.3670 C.3       6 GLP5        0.0000 
      9 CA         32.0570   14.1170   76.4805 C.3       3 GLC5        0.0000 
     10 CA         32.6290   13.9980   78.0390 C.3       6 GLP5        0.0000 
     11 CA         30.7425   14.9020   76.5155 C.3       3 GLC5        0.0000 
     12 CA         30.0900   14.9340   74.8040 C.3       9 GLL5        0.0000 
     13 CA         31.3950   14.8700   78.2270 C.3       6 GLP5        0.0000 
     14 CA         31.6390   17.3695   74.5535 C.3       3 GLC5        0.0000 
     15 CA         29.4910   17.1130   74.7400 C.3       9 GLL5        0.0000 
     16 CA         29.2020   16.0390   76.6015 C.3       3 GLC5        0.0000 
     17 CA         28.9130   14.9650   78.4630 C.3       6 GLP5        0.0000 
     18 N          31.4190   19.8025   70.7970 N.am      2 SEC2        0.0000 
     19 N          31.0690   19.4550   72.2970 N.am      8 SEL2        0.0000 
     20 N          31.7690   20.1500   69.2970 N.am      5 SEP2        0.0000 
     21 CA         29.7695   21.3850   73.1325 C.3       3 GLC5        0.0000 
     22 CA         31.3630   20.0390   73.4990 C.3       9 GLL5        0.0000 
     23 CA         28.1760   22.7310   72.7660 C.3       6 GLP5        0.0000 
     24 CA         30.9985   22.8770   73.3280 C.3       3 GLC5        0.0000 
     25 CA         32.0510   21.2130   73.8800 C.3       9 GLL5        0.0000 
     26 CA         29.9460   24.5410   72.7760 C.3       6 GLP5        0.0000 
     27 O          32.1495   22.5045   71.5390 O.2       1 ALC1        0.0000 
     28 O          32.5740   22.0120   72.9500 O.2       7 ALL1        0.0000 
     29 O          31.7250   22.9970   70.1280 O.2       4 ALP1        0.0000 
     30 O          33.1780   23.2470   73.6275 O.2       1 ALC1        0.0000 
     31 O          33.7820   24.4820   74.3050 O.2       4 ALP1        0.0000 
     32 CA         32.7110   19.1650   75.2510 C.3       3 GLC5        0.0000 
     33 CA         31.6350   20.7040   76.1350 C.3       9 GLL5        0.0000 
     34 CA         33.5170   20.7410   75.4000 C.3       3 GLC5        0.0000 
     35 CA         35.3990   20.7780   74.6650 C.3       6 GLP5        0.0000 
     36 CA         32.6145   12.0485   78.2570 C.3       3 GLC5        0.0000 
     37 CA         32.6000   10.0990   78.4750 C.3       9 GLL5        0.0000 
     38 O          32.6345    9.6900   82.6020 O.2       1 ALC1        0.0000 
     39 O          33.0740    8.8310   81.7650 O.2       7 ALL1        0.0000 
     40 O          32.1950   10.5490   83.4390 O.2       4 ALP1        0.0000 
     41 CA         36.2745   10.7210   81.1515 C.3       3 GLC5        0.0000 
     42 CA         35.1700    9.0960   80.4840 C.3       9 GLL5        0.0000 
     43 CA         37.3790   12.3460   81.8190 C.3       6 GLP5        0.0000 
     44 O          35.3815    8.1360   82.8520 O.2       1 ALC1        0.0000 
     45 O          35.7360    8.8530   81.7600 O.2       7 ALL1        0.0000 
     46 O          35.0270    7.4190   83.9440 O.2       4 ALP1        0.0000 
     47 CA         34.5410    6.5220   78.1770 C.3       3 GLC5        0.0000 
     48 CA         34.9580    7.7460   79.6810 C.3       9 GLL5        0.0000 
     49 CA         34.1240    5.2980   76.6730 C.3       6 GLP5        0.0000 
     50 CA         33.7575    6.6190   80.7020 C.3       3 GLC5        0.0000 
     51 CA         32.5570    5.4920   81.7230 C.3       6 GLP5        0.0000 
     52 CA         32.8885   19.8950   72.2278 C.3       3 GLC5        0.0000 
     53 CA         34.0700   19.1640   70.7660 C.3       6 GLP5        0.0000 
     54 CA         33.5530   20.7020   74.1773 C.3       3 GLC5        0.0000 
     55 CA         32.5352   18.7918   74.2386 C.3       3 GLC5        0.0000 
     56 CA         30.9800    8.5840   79.1927 C.3       3 GLC5        0.0000 
     57 CA         29.1520    7.6580   79.4590 C.3       6 GLP5        0.0000 
     58 CA         32.9580    7.3305   80.8640 C.3       3 GLC5        0.0000 
     59 CA         33.0160    8.9210   79.3780 C.3       9 GLL5        0.0000 
     60 CA         37.4387    5.5068   80.3738 C.3       3 GLC5        0.0000 
     61 CA         36.3200    5.9310   78.9130 C.3       9 GLL5        0.0000 
     62 CA         38.0040    5.3400   82.2070 C.3       6 GLP5        0.0000 
     63 CA         38.0465    9.4223   77.1047 C.3       3 GLC5        0.0000 
     64 CA         38.0740    7.6660   77.4960 C.3       9 GLL5        0.0000 
     65 CA         38.5550   10.9230   76.3560 C.3       6 GLP5        0.0000 
     66 CA         37.4911    7.9196   75.9496 C.3       3 GLC5        0.0000 
     67 CA         37.0020    8.1770   78.2110 C.3       9 GLL5        0.0000 
     68 CA         37.3960    8.2570   74.0490 C.3       6 GLP5        0.0000 
@<TRIPOS>BOND
@<TRIPOS>SUBSTRUCTURE
     1 ALC1       27 GROUP        1 X    ALC  0     ROOT ALC X 1
     2 SEC2        1 GROUP        1 X    SEC  0     **** SEC X 2
     3 GLC5        6 GROUP        1 X    GLC  0     **** GLC X 6
     4 ALP1       29 GROUP        1 Y    ALP  0     ROOT ALP Y 8
     5 SEP2        3 GROUP        1 Y    SEP  0     **** SEP Y 9
     6 GLP5        8 GROUP        1 Y    GLP  0     **** GLP Y 13
     7 ALL1       28 GROUP        1 Z    ALL  0     ROOT ALL Z 15
     8 SEL2        2 GROUP        1 Z    SEL  0     **** SEL Z 16
     9 GLL5        7 GROUP        1 Z    GLL  0     **** GLL Z 20
@<TRIPOS>SET

