#    Name: 1juv_NDP_1_ligand
#    Modification time : Tue Mar 25 09:27:26 2014

@<TRIPOS>MOLECULE
1juv_NDP_1_ligand
   74    78     1     0     0
SMALL
NO_CHARGES


@<TRIPOS>ATOM
      1 PA         32.7210   11.9320   74.2100 P.3       1 NDP194      0.0000 
      2 O1A        32.4290   11.0220   73.1530 O.co2     1 NDP194      0.0000 
      3 O2A        34.0340   12.5860   74.4890 O.co2     1 NDP194      0.0000 
      4 O5B        31.4490   13.0360   74.1630 O.3       1 NDP194      0.0000 
      5 C5B        31.4850   14.2360   74.9220 C.3       1 NDP194      0.0000 
      6 C4B        30.0900   14.9340   74.8040 C.3       1 NDP194      0.0000 
      7 O4B        30.2770   16.1880   75.4720 O.3       1 NDP194      0.0000 
      8 C3B        29.2630   15.1100   73.5830 C.3       1 NDP194      0.0000 
      9 O3B        28.2410   14.0840   73.4450 O.3       1 NDP194      0.0000 
     10 C2B        28.5060   16.4140   73.8740 C.3       1 NDP194      0.0000 
     11 O2B        27.2390   16.3850   74.5730 O.3       1 NDP194      0.0000 
     12 C1B        29.4910   17.1130   74.7400 C.3       1 NDP194      0.0000 
     13 N9A        30.2200   18.1960   73.9770 N.pl3     1 NDP194      0.0000 
     14 C8A        30.3880   18.3610   72.5750 C.2       1 NDP194      0.0000 
     15 N7A        31.0690   19.4550   72.2970 N.2       1 NDP194      0.0000 
     16 C5A        31.3630   20.0390   73.4990 C.ar      1 NDP194      0.0000 
     17 C6A        32.0510   21.2130   73.8800 C.ar      1 NDP194      0.0000 
     18 N6A        32.5740   22.0120   72.9500 N.pl3     1 NDP194      0.0000 
     19 N1A        32.1710   21.5190   75.2000 N.ar      1 NDP194      0.0000 
     20 C2A        31.6350   20.7040   76.1350 C.ar      1 NDP194      0.0000 
     21 N3A        30.9630   19.5720   75.8840 N.ar      1 NDP194      0.0000 
     22 C4A        30.8600   19.2890   74.5310 C.ar      1 NDP194      0.0000 
     23 O3         32.4320   11.0140   75.4760 O.3       1 NDP194      0.0000 
     24 PN         31.1890   10.2710   76.2030 P.3       1 NDP194      0.0000 
     25 O1N        30.5990    9.3060   75.2520 O.co2     1 NDP194      0.0000 
     26 O2N        30.3550   11.3170   76.8370 O.co2     1 NDP194      0.0000 
     27 O5D        31.8980    9.4700   77.3730 O.3       1 NDP194      0.0000 
     28 C5D        32.6000   10.0990   78.4750 C.3       1 NDP194      0.0000 
     29 C4D        33.0160    8.9210   79.3780 C.3       1 NDP194      0.0000 
     30 O4D        33.9710    8.1260   78.7280 O.3       1 NDP194      0.0000 
     31 C3D        33.7020    9.4170   80.6320 C.3       1 NDP194      0.0000 
     32 O3D        33.0740    8.8310   81.7650 O.3       1 NDP194      0.0000 
     33 C2D        35.1700    9.0960   80.4840 C.3       1 NDP194      0.0000 
     34 O2D        35.7360    8.8530   81.7600 O.3       1 NDP194      0.0000 
     35 C1D        34.9580    7.7460   79.6810 C.3       1 NDP194      0.0000 
     36 N1N        36.1410    7.3110   78.9110 N.pl3     1 NDP194      0.0000 
     37 C2N        36.3200    5.9310   78.9130 C.2       1 NDP194      0.0000 
     38 C3N        37.4270    5.4160   78.1680 C.2       1 NDP194      0.0000 
     39 C7N        37.6250    3.9700   78.1440 C.2       1 NDP194      0.0000 
     40 O7N        36.9560    3.1740   78.8470 O.2       1 NDP194      0.0000 
     41 N7N        38.5310    3.4410   77.3210 N.am      1 NDP194      0.0000 
     42 C4N        38.2670    6.3090   77.4830 C.3       1 NDP194      0.0000 
     43 C5N        38.0740    7.6660   77.4960 C.2       1 NDP194      0.0000 
     44 C6N        37.0020    8.1770   78.2110 C.2       1 NDP194      0.0000 
     45 P2B        25.8440   15.8260   74.1140 P.3       1 NDP194      0.0000 
     46 O1X        25.7260   14.3980   74.6130 O.co2     1 NDP194      0.0000 
     47 O2X        25.7380   15.9560   72.6030 O.co2     1 NDP194      0.0000 
     48 O3X        24.8330   16.7160   74.7930 O.co2     1 NDP194      0.0000 
     49 H          32.2244   14.9438   74.5535 H         1 NDP194      0.0000 
     50 H          31.6604   14.0579   75.9808 H         1 NDP194      0.0000 
     51 H          29.4338   14.3376   75.5731 H         1 NDP194      0.0000 
     52 H          29.8414   15.2486   72.7379 H         1 NDP194      0.0000 
     53 H          28.4630   16.9812   72.9518 H         1 NDP194      0.0000 
     54 H          28.8350   17.6836   75.5017 H         1 NDP194      0.0000 
     55 H          30.0222   17.7117   71.9408 H         1 NDP194      0.0000 
     56 H          33.0363   22.8330   73.2848 H         1 NDP194      0.0000 
     57 H          32.4569   21.7184   72.0012 H         1 NDP194      0.0000 
     58 H          31.7608   20.9923   77.1683 H         1 NDP194      0.0000 
     59 H          31.9613   10.7446   79.0402 H         1 NDP194      0.0000 
     60 H          33.4869   10.6011   78.1502 H         1 NDP194      0.0000 
     61 H          32.1510    8.3683   79.6548 H         1 NDP194      0.0000 
     62 H          33.5936   10.5035   80.6336 H         1 NDP194      0.0000 
     63 H          35.6143    9.7645   79.8670 H         1 NDP194      0.0000 
     64 H          34.6005    7.0245   80.3389 H         1 NDP194      0.0000 
     65 H          35.7105    5.3100   79.4086 H         1 NDP194      0.0000 
     66 H          38.5989    2.4433   77.3241 H         1 NDP194      0.0000 
     67 H          39.0611    4.0896   76.7748 H         1 NDP194      0.0000 
     68 H          38.3402    5.9460   76.3707 H         1 NDP194      0.0000 
     69 H          39.3700    6.0787   77.8066 H         1 NDP194      0.0000 
     70 H          38.7035    8.2942   76.9912 H         1 NDP194      0.0000 
     71 H          36.8274    9.1892   78.2360 H         1 NDP194      0.0000 
     72 H          27.7089   14.1335   74.2903 H         1 NDP194      0.0000 
     73 H          32.4134    9.5140   82.0768 H         1 NDP194      0.0000 
     74 H          34.9556    8.6759   82.3597 H         1 NDP194      0.0000 
@<TRIPOS>BOND
     1    2    1 ar   
     2    3    1 ar   
     3    4    1 1    
     4   23    1 1    
     5    5    4 1    
     6    6    5 1    
     7   49    5 1    
     8   50    5 1    
     9    7    6 1    
    10    8    6 1    
    11   51    6 1    
    12   12    7 1    
    13    9    8 1    
    14   10    8 1    
    15   52    8 1    
    16   72    9 1    
    17   11   10 1    
    18   12   10 1    
    19   53   10 1    
    20   45   11 1    
    21   13   12 1    
    22   54   12 1    
    23   14   13 1    
    24   22   13 1    
    25   15   14 2    
    26   55   14 1    
    27   16   15 1    
    28   17   16 ar   
    29   22   16 ar   
    30   18   17 1    
    31   19   17 ar   
    32   56   18 1    
    33   57   18 1    
    34   20   19 ar   
    35   21   20 ar   
    36   58   20 1    
    37   22   21 ar   
    38   24   23 1    
    39   25   24 ar   
    40   26   24 ar   
    41   27   24 1    
    42   28   27 1    
    43   29   28 1    
    44   59   28 1    
    45   60   28 1    
    46   30   29 1    
    47   31   29 1    
    48   61   29 1    
    49   35   30 1    
    50   32   31 1    
    51   33   31 1    
    52   62   31 1    
    53   73   32 1    
    54   34   33 1    
    55   35   33 1    
    56   63   33 1    
    57   74   34 1    
    58   36   35 1    
    59   64   35 1    
    60   37   36 1    
    61   44   36 1    
    62   38   37 2    
    63   65   37 1    
    64   39   38 1    
    65   42   38 1    
    66   40   39 2    
    67   41   39 am   
    68   66   41 1    
    69   67   41 1    
    70   43   42 1    
    71   68   42 1    
    72   69   42 1    
    73   44   43 2    
    74   70   43 1    
    75   71   44 1    
    76   46   45 ar   
    77   47   45 ar   
    78   48   45 ar   
@<TRIPOS>SUBSTRUCTURE
     1 NDP194      1 GROUP   
@<TRIPOS>SET

