#    Name: 3RO5_1_CAVITY_N1_6.mol2
#    Modification time : Mon Mar 10 21:01:37 2014

@<TRIPOS>MOLECULE
3RO5_1_CAVITY_N1_6.mol2
  169     0     7     0     0
SMALL
NO_CHARGES


@<TRIPOS>ATOM
      1 CZ         21.1786  -38.2759   20.9364 C.ar      5 PHE5        0.0000 
      2 CZ         21.6934  -37.2208   20.0028 C.ar      5 PHE5        0.0000 
      3 CZ         22.2083  -36.1658   19.0692 C.ar      5 PHE5        0.0000 
      4 CZ         22.7232  -35.1107   18.1355 C.ar      5 PHE5        0.0000 
      5 CZ         23.2381  -34.0556   17.2019 C.ar      5 PHE5        0.0000 
      6 CZ         23.7530  -33.0005   16.2683 C.ar      5 PHE5        0.0000 
      7 CZ         24.2679  -31.9454   15.3346 C.ar      5 PHE5        0.0000 
      8 CZ         22.1384  -39.2663   20.3466 C.ar      5 PHE5        0.0000 
      9 CZ         22.6533  -38.2112   19.4129 C.ar      5 PHE5        0.0000 
     10 CZ         23.1682  -37.1561   18.4793 C.ar      5 PHE5        0.0000 
     11 N          23.6830  -36.1010   17.5457 N.2       2 ALA2        0.0000 
     12 N          24.1979  -35.0459   16.6120 N.2       2 ALA2        0.0000 
     13 CZ         24.7128  -33.9908   15.6784 C.ar      5 PHE5        0.0000 
     14 CZ         25.2277  -32.9358   14.7448 C.ar      5 PHE5        0.0000 
     15 OG         23.6131  -39.2016   18.8231 O.2       1 SER1        0.0000 
     16 DU         24.1280  -38.1465   17.8894 H         7 CUB7        0.0000 
     17 N          24.6429  -37.0914   16.9558 N.2       2 ALA2        0.0000 
     18 N          25.1578  -36.0363   16.0222 N.2       2 ALA2        0.0000 
     19 CA         25.6726  -34.9812   15.0885 C.3       6 GLY6        0.0000 
     20 CA         26.1875  -33.9261   14.1549 C.3       6 GLY6        0.0000 
     21 N          25.0878  -39.1368   17.2996 N.2       2 ALA2        0.0000 
     22 O          26.0476  -40.1272   16.7097 O.2       2 ALA2        0.0000 
     23 N          26.4925  -42.1726   17.0535 N.2       2 ALA2        0.0000 
     24 O          27.0074  -41.1176   16.1198 O.2       2 ALA2        0.0000 
     25 OG         21.6919  -35.5056   17.1205 O.2       1 SER1        0.0000 
     26 CA         22.2068  -34.4505   16.1868 C.3       6 GLY6        0.0000 
     27 CA         22.7217  -33.3954   15.2532 C.3       6 GLY6        0.0000 
     28 O          22.1368  -37.5510   17.4642 O.2       2 ALA2        0.0000 
     29 N          23.6815  -34.3858   14.6633 N.2       2 ALA2        0.0000 
     30 CA         24.1964  -33.3307   13.7297 C.3       6 GLY6        0.0000 
     31 CZ         22.5817  -39.5965   17.8080 C.ar      5 PHE5        0.0000 
     32 O          23.0966  -38.5414   16.8744 O.2       2 ALA2        0.0000 
     33 N          23.5416  -40.5869   17.2181 N.2       2 ALA2        0.0000 
     34 N          24.0564  -39.5318   16.2845 N.2       2 ALA2        0.0000 
     35 N          24.5713  -38.4767   15.3509 N.2       2 ALA2        0.0000 
     36 N          25.0163  -40.5221   15.6946 N.2       2 ALA2        0.0000 
     37 CA         25.5312  -39.4670   14.7610 C.3       6 GLY6        0.0000 
     38 N          25.4612  -42.5676   16.0384 N.2       2 ALA2        0.0000 
     39 DU         25.9761  -41.5125   15.1048 H         7 CUB7        0.0000 
     40 CA         26.4910  -40.4574   14.1711 C.3       6 GLY6        0.0000 
     41 OG         22.5102  -40.9818   16.2030 O.2       1 SER1        0.0000 
     42 O          23.0251  -39.9267   15.2694 O.2       2 ALA2        0.0000 
     43 CA         23.4700  -41.9721   15.6132 C.3       6 GLY6        0.0000 
     44 OG         23.9849  -40.9171   14.6795 O.2       1 SER1        0.0000 
     45 N          24.4998  -39.8620   13.7459 N.2       2 ALA2        0.0000 
     46 OG         24.4299  -42.9625   15.0233 O.2       1 SER1        0.0000 
     47 DU         24.9447  -41.9074   14.0897 H         7 CUB7        0.0000 
     48 CA         25.4596  -40.8523   13.1560 C.3       6 GLY6        0.0000 
     49 OG         22.4387  -42.3671   14.5981 O.2       1 SER1        0.0000 
     50 OG         22.9536  -41.3120   13.6645 O.2       1 SER1        0.0000 
     51 CA         23.4685  -40.2569   12.7308 C.3       6 GLY6        0.0000 
     52 CA         23.9834  -39.2018   11.7972 C.3       6 GLY6        0.0000 
     53 N          29.9425  -32.3462   25.2411 N.2       2 ALA2        0.0000 
     54 CA         30.4574  -31.2911   24.3075 C.3       6 GLY6        0.0000 
     55 NZ         31.4172  -32.2814   23.7176 N.2       4 LYS4        0.0000 
     56 DU         26.9916  -30.7604   25.4058 H         7 CUB7        0.0000 
     57 N          27.9514  -31.7507   24.8159 N.2       2 ALA2        0.0000 
     58 NZ         28.4663  -30.6956   23.8823 N.2       4 LYS4        0.0000 
     59 N          28.3963  -33.7962   25.1597 N.2       2 ALA2        0.0000 
     60 NZ         28.9112  -32.7411   24.2260 N.2       4 LYS4        0.0000 
     61 NZ         29.4261  -31.6860   23.2924 N.2       4 LYS4        0.0000 
     62 NZ         29.8710  -33.7314   23.6362 N.2       4 LYS4        0.0000 
     63 N          24.4855  -31.2200   25.9142 N.2       2 ALA2        0.0000 
     64 NZ         25.4454  -32.2104   25.3243 N.2       4 LYS4        0.0000 
     65 N          25.9603  -31.1553   24.3907 N.2       2 ALA2        0.0000 
     66 CA         26.4052  -33.2007   24.7344 C.3       6 GLY6        0.0000 
     67 N          26.9201  -32.1457   23.8008 N.2       2 ALA2        0.0000 
     68 N          27.4350  -31.0906   22.8672 N.2       2 ALA2        0.0000 
     69 CA         27.3650  -34.1911   24.1446 C.3       6 GLY6        0.0000 
     70 NZ         27.8799  -33.1360   23.2109 N.2       4 LYS4        0.0000 
     71 NZ         28.8397  -34.1264   22.6211 N.2       4 LYS4        0.0000 
     72 OG         23.4542  -31.6150   24.8991 O.2       1 SER1        0.0000 
     73 N          24.4140  -32.6053   24.3092 N.2       2 ALA2        0.0000 
     74 CA         24.8590  -34.6508   24.6530 C.3       6 GLY6        0.0000 
     75 CA         25.3738  -33.5957   23.7194 C.3       6 GLY6        0.0000 
     76 N          25.8887  -32.5406   22.7857 N.2       2 ALA2        0.0000 
     77 N          26.4036  -31.4855   21.8521 N.2       2 ALA2        0.0000 
     78 CA         26.3337  -34.5860   23.1295 C.3       6 GLY6        0.0000 
     79 NZ         26.8486  -33.5309   22.1959 N.2       4 LYS4        0.0000 
     80 NZ         27.3634  -32.4759   21.2622 N.2       4 LYS4        0.0000 
     81 NZ         27.8084  -34.5213   21.6060 N.2       4 LYS4        0.0000 
     82 NZ         30.2429  -35.4469   19.4926 N.2       4 LYS4        0.0000 
     83 NZ         32.2325  -34.3271   17.0355 N.2       4 LYS4        0.0000 
     84 O          33.7072  -34.2624   15.5120 O.2       2 ALA2        0.0000 
     85 CA         22.8678  -34.0553   24.2278 C.3       6 GLY6        0.0000 
     86 CZ         23.3827  -33.0002   23.2941 C.ar      5 PHE5        0.0000 
     87 N          23.8976  -31.9452   22.3605 N.2       2 ALA2        0.0000 
     88 CA         23.8276  -35.0457   23.6379 C.3       6 GLY6        0.0000 
     89 CZ         24.3425  -33.9906   22.7043 C.ar      5 PHE5        0.0000 
     90 N          24.8574  -32.9355   21.7706 N.2       2 ALA2        0.0000 
     91 CA         24.7874  -36.0361   23.0480 C.3       6 GLY6        0.0000 
     92 CA         25.3023  -34.9810   22.1144 C.3       6 GLY6        0.0000 
     93 CZ         25.8172  -33.9259   21.1808 C.ar      5 PHE5        0.0000 
     94 CA         26.2621  -35.9713   21.5245 C.3       6 GLY6        0.0000 
     95 O          26.7770  -34.9162   20.5909 O.2       2 ALA2        0.0000 
     96 CZ         27.2919  -33.8611   19.6573 C.ar      5 PHE5        0.0000 
     97 O          27.7368  -35.9066   20.0010 O.2       2 ALA2        0.0000 
     98 CZ         28.2517  -34.8515   19.0674 C.ar      5 PHE5        0.0000 
     99 OD1        28.1818  -37.9520   20.3448 O.3       3 ASP3        0.0000 
    100 O          28.6967  -36.8970   19.4112 O.2       2 ALA2        0.0000 
    101 O          29.2116  -35.8419   18.4775 O.2       2 ALA2        0.0000 
    102 OG         29.7265  -34.7868   17.5439 O.2       1 SER1        0.0000 
    103 O          28.6267  -39.9975   20.6886 O.2       2 ALA2        0.0000 
    104 O          29.1416  -38.9424   19.7549 O.2       2 ALA2        0.0000 
    105 O          30.1714  -36.8322   17.8877 O.2       2 ALA2        0.0000 
    106 O          30.6863  -35.7771   16.9540 O.2       2 ALA2        0.0000 
    107 OG         31.2012  -34.7220   16.0204 O.2       1 SER1        0.0000 
    108 O          31.7161  -33.6670   15.0868 O.2       2 ALA2        0.0000 
    109 O          31.6461  -36.7675   16.3642 O.2       2 ALA2        0.0000 
    110 O          32.1610  -35.7124   15.4305 O.2       2 ALA2        0.0000 
    111 O          32.6759  -34.6573   14.4969 O.2       2 ALA2        0.0000 
    112 O          33.1208  -36.7028   14.8407 O.2       2 ALA2        0.0000 
    113 O          33.6357  -35.6477   13.9071 O.2       2 ALA2        0.0000 
    114 CZ         22.2814  -36.4957   23.5565 C.ar      5 PHE5        0.0000 
    115 CA         22.7963  -35.4406   22.6228 C.3       6 GLY6        0.0000 
    116 CZ         23.3112  -34.3855   21.6892 C.ar      5 PHE5        0.0000 
    117 CZ         23.8261  -33.3304   20.7556 C.ar      5 PHE5        0.0000 
    118 CZ         23.2412  -37.4861   22.9666 C.ar      5 PHE5        0.0000 
    119 CZ         23.7561  -36.4310   22.0330 C.ar      5 PHE5        0.0000 
    120 DU         24.2710  -35.3759   21.0993 H         7 CUB7        0.0000 
    121 CZ         24.7859  -34.3208   20.1657 C.ar      5 PHE5        0.0000 
    122 OG         24.7159  -37.4213   21.4431 O.2       1 SER1        0.0000 
    123 CA         25.2308  -36.3663   20.5095 C.3       6 GLY6        0.0000 
    124 CZ         25.7457  -35.3112   19.5758 C.ar      5 PHE5        0.0000 
    125 OG         25.6757  -38.4117   20.8532 O.2       1 SER1        0.0000 
    126 O          26.1906  -37.3566   19.9196 O.2       2 ALA2        0.0000 
    127 DU         26.7055  -36.3015   18.9860 H         7 CUB7        0.0000 
    128 CZ         27.2204  -35.2464   18.0523 C.ar      5 PHE5        0.0000 
    129 OG         26.6355  -39.4021   20.2634 O.2       1 SER1        0.0000 
    130 O          27.1504  -38.3470   19.3297 O.2       2 ALA2        0.0000 
    131 O          27.6653  -37.2919   18.3961 O.2       2 ALA2        0.0000 
    132 O          28.1802  -36.2368   17.4625 O.2       2 ALA2        0.0000 
    133 OG         28.6951  -35.1817   16.5288 O.2       1 SER1        0.0000 
    134 OG         27.5954  -40.3924   19.6735 O.2       1 SER1        0.0000 
    135 O          28.1103  -39.3373   18.7399 O.2       2 ALA2        0.0000 
    136 OG         30.1698  -35.1170   15.0053 O.2       1 SER1        0.0000 
    137 NZ         30.6847  -34.0619   14.0717 N.2       4 LYS4        0.0000 
    138 O          31.1296  -36.1073   14.4155 O.2       2 ALA2        0.0000 
    139 NZ         31.6445  -35.0522   13.4818 N.2       4 LYS4        0.0000 
    140 O          32.0895  -37.0977   13.8256 O.2       2 ALA2        0.0000 
    141 CA         32.6043  -36.0426   12.8920 C.3       6 GLY6        0.0000 
    142 NZ         33.1192  -34.9875   11.9583 N.2       4 LYS4        0.0000 
    143 CA         21.2501  -36.8906   22.5414 C.3       6 GLY6        0.0000 
    144 CZ         21.6950  -38.9361   22.8851 C.ar      5 PHE5        0.0000 
    145 CZ         22.2099  -37.8810   21.9515 C.ar      5 PHE5        0.0000 
    146 CA         22.7248  -36.8259   21.0179 C.3       6 GLY6        0.0000 
    147 CZ         23.2397  -35.7708   20.0842 C.ar      5 PHE5        0.0000 
    148 CZ         23.7546  -34.7157   19.1506 C.ar      5 PHE5        0.0000 
    149 CZ         24.2695  -33.6606   18.2170 C.ar      5 PHE5        0.0000 
    150 OG         23.6846  -37.8163   20.4280 O.2       1 SER1        0.0000 
    151 DU         24.1995  -36.7612   19.4944 H         7 CUB7        0.0000 
    152 DU         24.7144  -35.7061   18.5607 H         7 CUB7        0.0000 
    153 CZ         25.2293  -34.6510   17.6271 C.ar      5 PHE5        0.0000 
    154 OG         25.1593  -37.7515   18.9045 O.2       1 SER1        0.0000 
    155 DU         25.6742  -36.6965   17.9709 H         7 CUB7        0.0000 
    156 CZ         26.1891  -35.6414   17.0373 C.ar      5 PHE5        0.0000 
    157 CZ         26.7040  -34.5863   16.1036 C.ar      5 PHE5        0.0000 
    158 O          26.1191  -38.7419   18.3146 O.2       2 ALA2        0.0000 
    159 O          26.6340  -37.6868   17.3810 O.2       2 ALA2        0.0000 
    160 CA         27.6638  -35.5766   15.5138 C.3       6 GLY6        0.0000 
    161 OG         28.1787  -34.5215   14.5801 O.2       1 SER1        0.0000 
    162 OG         28.6936  -33.4665   13.6465 O.2       1 SER1        0.0000 
    163 N          26.5640  -40.7874   18.6584 N.2       2 ALA2        0.0000 
    164 O          27.0789  -39.7323   17.7248 O.2       2 ALA2        0.0000 
    165 NZ         29.6534  -34.4568   13.0566 N.2       4 LYS4        0.0000 
    166 N          27.5238  -41.7777   18.0685 N.2       2 ALA2        0.0000 
    167 O          28.0387  -40.7226   17.1349 O.2       2 ALA2        0.0000 
    168 O          30.6132  -35.4472   12.4668 O.2       2 ALA2        0.0000 
    169 O          28.9986  -41.7130   16.5450 O.2       2 ALA2        0.0000 
@<TRIPOS>BOND
@<TRIPOS>SUBSTRUCTURE
     1 SER1       15 GROUP   
     2 ALA2       11 GROUP   
     3 ASP3       99 GROUP   
     4 LYS4       55 GROUP   
     5 PHE5        1 GROUP   
     6 GLY6       19 GROUP   
     7 CUB7       16 GROUP   
@<TRIPOS>SET

