#    Name: 3ro5_LGH_1_INTS_M
#    Modification time : Tue Mar 25 11:43:35 2014

@<TRIPOS>MOLECULE
3ro5_LGH_1_INTS_M
   49     0     6     0     0
SMALL
NO_CHARGES


@<TRIPOS>ATOM
      1 CA         27.0160  -35.4535   13.8235 C.3       2 GLC5        0.0000 
      2 CA         26.7490  -33.6760   14.1010 C.3       6 GLL5        0.0000 
      3 CA         27.2830  -37.2310   13.5460 C.3       4 GLP5        0.0000 
      4 CA         24.9430  -33.3820   18.1525 C.3       2 GLC5        0.0000 
      5 CA         24.0650  -35.0880   18.1310 C.3       6 GLL5        0.0000 
      6 CA         25.8210  -31.6760   18.1740 C.3       4 GLP5        0.0000 
      7 CA         22.6970  -33.5340   18.7545 C.3       2 GLC5        0.0000 
      8 CA         21.3290  -31.9800   19.3780 C.3       4 GLP5        0.0000 
      9 CA         25.8545  -37.2115   15.2045 C.3       2 GLC5        0.0000 
     10 CA         24.4260  -37.1920   16.8630 C.3       6 GLL5        0.0000 
     11 CA         21.6460  -34.7545   19.8455 C.3       2 GLC5        0.0000 
     12 CA         22.9810  -35.7900   18.9540 C.3       6 GLL5        0.0000 
     13 CA         20.3110  -33.7190   20.7370 C.3       4 GLP5        0.0000 
     14 CA         21.5480  -37.3875   18.4630 C.3       2 GLC5        0.0000 
     15 CA         20.1150  -38.9850   17.9720 C.3       4 GLP5        0.0000 
     16 CA         21.6720  -38.4010   17.7735 C.3       2 GLC5        0.0000 
     17 CA         23.2290  -37.8170   17.5750 C.3       6 GLL5        0.0000 
     18 CA         20.3985  -36.4970   22.1445 C.3       2 GLC5        0.0000 
     19 CA         20.5790  -38.5110   22.2470 C.3       6 GLL5        0.0000 
     20 CA         20.2180  -34.4830   22.0420 C.3       4 GLP5        0.0000 
     21 CA         20.3835  -40.3145   23.3275 C.3       2 GLC5        0.0000 
     22 CA         20.1880  -42.1180   24.4080 C.3       4 GLP5        0.0000 
     23 CA         21.9150  -38.7630   23.7720 C.3       2 GLC5        0.0000 
     24 CA         23.2510  -39.0150   25.2970 C.3       4 GLP5        0.0000 
     25 CA         19.7320  -39.1955   21.0475 C.3       2 GLC5        0.0000 
     26 CA         18.8850  -39.8800   19.8480 C.3       4 GLP5        0.0000 
     27 CA         27.2155  -37.7595   22.1495 C.3       2 GLC5        0.0000 
     28 CA         26.9030  -38.4690   20.6190 C.3       6 GLL5        0.0000 
     29 CA         27.5280  -37.0500   23.6800 C.3       4 GLP5        0.0000 
     30 N          23.8100  -39.9795   20.6785 N.am      1 SEC2        0.0000 
     31 N          22.9530  -39.2290   20.1270 N.am      5 SEL2        0.0000 
     32 N          24.6670  -40.7300   21.2300 N.am      3 SEP2        0.0000 
     33 CA         24.4625  -32.4110   16.8525 C.3       2 GLC5        0.0000 
     34 CA         23.1040  -33.1460   15.5310 C.3       6 GLL5        0.0000 
     35 CA         22.9015  -31.9430   14.0095 C.3       2 GLC5        0.0000 
     36 CA         22.6990  -30.7400   12.4880 C.3       4 GLP5        0.0000 
     37 CA         21.8055  -32.7345   16.9215 C.3       2 GLC5        0.0000 
     38 CA         20.5070  -32.3230   18.3120 C.3       4 GLP5        0.0000 
     39 CA         21.2245  -35.9730   21.9275 C.3       2 GLC5        0.0000 
     40 CA         22.7370  -37.3330   21.3710 C.3       6 GLL5        0.0000 
     41 CA         26.6143  -36.1624   14.5425 C.3       2 GLC5        0.0000 
     42 CA         25.0990  -35.0160   15.9070 C.3       6 GLL5        0.0000 
     43 CA         24.5130  -33.4656   12.8625 C.3       2 GLC5        0.0000 
     44 CA         24.6570  -33.8480   15.2770 C.3       6 GLL5        0.0000 
     45 CA         23.6400  -33.2920   10.9670 C.3       4 GLP5        0.0000 
     46 CA         22.3783  -34.6050   14.7770 C.3       2 GLC5        0.0000 
     47 CA         20.8760  -35.7130   14.1500 C.3       4 GLP5        0.0000 
     48 CA         26.5306  -36.2084   22.4199 C.3       2 GLC5        0.0000 
     49 CA         24.6900  -35.6870   21.5260 C.3       6 GLL5        0.0000 
@<TRIPOS>BOND
@<TRIPOS>SUBSTRUCTURE
     1 SEC2       30 GROUP        1 X    SEC  0     ROOT SEC X 2
     2 GLC5        1 GROUP        1 X    GLC  0     **** GLC X 6
     3 SEP2       32 GROUP        1 Y    SEP  0     ROOT SEP Y 9
     4 GLP5        3 GROUP        1 Y    GLP  0     **** GLP Y 13
     5 SEL2       31 GROUP        1 Z    SEL  0     ROOT SEL Z 16
     6 GLL5        2 GROUP        1 Z    GLL  0     **** GLL Z 20
@<TRIPOS>SET

