#    Name: 3ro5_LGH_1_ligand
#    Modification time : Tue Mar 25 11:43:36 2014

@<TRIPOS>MOLECULE
3ro5_LGH_1_ligand
   53    56     1     0     0
SMALL
NO_CHARGES


@<TRIPOS>ATOM
      1 C1         25.9340  -33.6450   21.1860 C.ar      1 LGH1        0.0000 
      2 C2         26.9690  -34.3690   20.5960 C.ar      1 LGH1        0.0000 
      3 C3         24.7970  -34.3020   21.6490 C.ar      1 LGH1        0.0000 
      4 C4         26.3780  -35.5040   15.6230 C.ar      1 LGH1        0.0000 
      5 C5         27.2060  -34.8390   14.7190 C.ar      1 LGH1        0.0000 
      6 C6         26.8670  -35.7530   20.4670 C.ar      1 LGH1        0.0000 
      7 C7         25.4810  -33.1850   14.3770 C.ar      1 LGH1        0.0000 
      8 C8         24.6900  -35.6870   21.5260 C.ar      1 LGH1        0.0000 
      9 C9         22.7370  -37.3330   21.3710 C.2       1 LGH1        0.0000 
     10 C10        25.0990  -35.0160   15.9070 C.ar      1 LGH1        0.0000 
     11 C11        26.7490  -33.6760   14.1010 C.ar      1 LGH1        0.0000 
     12 C12        25.7280  -36.4170   20.9330 C.ar      1 LGH1        0.0000 
     13 C13        24.6570  -33.8480   15.2770 C.ar      1 LGH1        0.0000 
     14 C14        23.4970  -36.3360   22.0110 C.2       1 LGH1        0.0000 
     15 C15        21.7250  -37.5930   22.2550 C.2       1 LGH1        0.0000 
     16 C16        22.9220  -38.0040   20.0800 C.2       1 LGH1        0.0000 
     17 C17        24.0650  -35.0880   18.1310 C.3       1 LGH1        0.0000 
     18 C18        24.4260  -37.1920   16.8630 C.3       1 LGH1        0.0000 
     19 C19        22.9810  -35.7900   18.9540 C.3       1 LGH1        0.0000 
     20 C20        23.2290  -37.8170   17.5750 C.3       1 LGH1        0.0000 
     21 C21        20.5790  -38.5110   22.2470 C.3       1 LGH1        0.0000 
     22 C22        26.9030  -38.4690   20.6190 C.3       1 LGH1        0.0000 
     23 N23        22.9810  -35.9960   23.1960 N.2       1 LGH1        0.0000 
     24 N24        24.3200  -35.7290   16.8300 N.3       1 LGH1        0.0000 
     25 N25        23.0500  -37.2510   18.9130 N.am      1 LGH1        0.0000 
     26 N26        27.5490  -32.9680   13.1770 N.pl3     1 LGH1        0.0000 
     27 O27        28.7010  -33.3910   12.9070 O.2       1 LGH1        0.0000 
     28 O28        22.9530  -39.2290   20.1270 O.2       1 LGH1        0.0000 
     29 O29        27.0640  -31.9330   12.6550 O.2       1 LGH1        0.0000 
     30 O30        21.8530  -36.7990   23.3490 O.3       1 LGH1        0.0000 
     31 O31        25.6660  -37.7790   20.7920 O.3       1 LGH1        0.0000 
     32 CL32       23.1040  -33.1460   15.5310 Cl        1 LGH1        0.0000 
     33 H          26.0111  -32.6239   21.2791 H         1 LGH1        0.0000 
     34 H          27.8074  -33.8819   20.2561 H         1 LGH1        0.0000 
     35 H          24.0343  -33.7658   22.0826 H         1 LGH1        0.0000 
     36 H          26.7102  -36.3622   16.0862 H         1 LGH1        0.0000 
     37 H          28.1395  -35.2013   14.5116 H         1 LGH1        0.0000 
     38 H          27.6272  -36.2870   20.0300 H         1 LGH1        0.0000 
     39 H          25.1495  -32.3268   13.9136 H         1 LGH1        0.0000 
     40 H          24.9909  -35.0638   18.7354 H         1 LGH1        0.0000 
     41 H          23.7569  -34.0356   17.9869 H         1 LGH1        0.0000 
     42 H          24.4723  -37.5997   15.8450 H         1 LGH1        0.0000 
     43 H          25.3388  -37.5021   17.3876 H         1 LGH1        0.0000 
     44 H          21.9947  -35.4378   18.5855 H         1 LGH1        0.0000 
     45 H          23.0618  -35.4271   20.0001 H         1 LGH1        0.0000 
     46 H          23.3909  -38.9020   17.6306 H         1 LGH1        0.0000 
     47 H          22.3359  -37.6470   16.9585 H         1 LGH1        0.0000 
     48 H          20.8682  -39.4654   22.1730 H         1 LGH1        0.0000 
     49 H          20.0352  -38.4335   23.0826 H         1 LGH1        0.0000 
     50 H          19.9641  -38.3307   21.4793 H         1 LGH1        0.0000 
     51 H          27.3880  -38.1622   19.8001 H         1 LGH1        0.0000 
     52 H          27.5186  -38.3279   21.3943 H         1 LGH1        0.0000 
     53 H          26.7683  -39.4557   20.5275 H         1 LGH1        0.0000 
@<TRIPOS>BOND
     1    2    1 ar   
     2    3    1 ar   
     3   33    1 1    
     4    6    2 ar   
     5   34    2 1    
     6    8    3 ar   
     7   35    3 1    
     8    5    4 ar   
     9   10    4 ar   
    10   36    4 1    
    11   11    5 ar   
    12   37    5 1    
    13   12    6 ar   
    14   38    6 1    
    15   11    7 ar   
    16   13    7 ar   
    17   39    7 1    
    18   12    8 ar   
    19   14    8 1    
    20   14    9 1    
    21   15    9 2    
    22   16    9 1    
    23   13   10 ar   
    24   24   10 1    
    25   26   11 1    
    26   31   12 1    
    27   32   13 1    
    28   23   14 2    
    29   21   15 1    
    30   30   15 1    
    31   25   16 am   
    32   28   16 2    
    33   19   17 1    
    34   24   17 1    
    35   40   17 1    
    36   41   17 1    
    37   20   18 1    
    38   24   18 1    
    39   42   18 1    
    40   43   18 1    
    41   25   19 1    
    42   44   19 1    
    43   45   19 1    
    44   25   20 1    
    45   46   20 1    
    46   47   20 1    
    47   48   21 1    
    48   49   21 1    
    49   50   21 1    
    50   31   22 1    
    51   51   22 1    
    52   52   22 1    
    53   53   22 1    
    54   30   23 1    
    55   27   26 2    
    56   29   26 2    
@<TRIPOS>SUBSTRUCTURE
     1 LGH1        1 GROUP   
@<TRIPOS>SET

