#    Name: 2won_ZZE_1_INTS_M
#    Modification time : Tue Mar 25 04:33:41 2014

@<TRIPOS>MOLECULE
2won_ZZE_1_INTS_M
   73     0     9     0     0
SMALL
NO_CHARGES


@<TRIPOS>ATOM
      1 CA          6.9875   13.9230   17.2850 C.3       3 GLC5        0.0000 
      2 CA          6.2870   11.8620   16.9350 C.3       9 GLL5        0.0000 
      3 CA          7.6880   15.9840   17.6350 C.3       6 GLP5        0.0000 
      4 CA          4.9300   12.9380   16.3905 C.3       3 GLC5        0.0000 
      5 CA          3.5730   14.0140   15.8460 C.3       6 GLP5        0.0000 
      6 CA         12.7615   14.5095   16.2145 C.3       3 GLC5        0.0000 
      7 CA         11.3890   12.9580   16.1130 C.3       9 GLL5        0.0000 
      8 CA         14.1340   16.0610   16.3160 C.3       6 GLP5        0.0000 
      9 CA         12.5010   12.4965   17.6590 C.3       3 GLC5        0.0000 
     10 CA         13.6130   12.0350   19.2050 C.3       6 GLP5        0.0000 
     11 CA          9.8115   10.8325   17.7235 C.3       3 GLC5        0.0000 
     12 CA          9.4200   12.2800   19.3710 C.3       9 GLL5        0.0000 
     13 CA         10.2030    9.3850   16.0760 C.3       6 GLP5        0.0000 
     14 CA          7.1955   15.0225   14.7180 C.3       3 GLC5        0.0000 
     15 CA          6.8640   13.1720   14.1140 C.3       9 GLL5        0.0000 
     16 CA          7.5270   16.8730   15.3220 C.3       6 GLP5        0.0000 
     17 CA          5.2185   13.5930   14.9800 C.3       3 GLC5        0.0000 
     18 CA          8.2850    9.9730   16.7815 C.3       3 GLC5        0.0000 
     19 CA          6.3670   10.5610   17.4870 C.3       9 GLL5        0.0000 
     20 CA          6.7340    9.5455   19.0550 C.3       3 GLC5        0.0000 
     21 CA          7.1010    8.5300   20.6230 C.3       6 GLP5        0.0000 
     22 CA          4.9245    9.6355   16.1415 C.3       3 GLC5        0.0000 
     23 CA          3.4820    8.7100   14.7960 C.3       6 GLP5        0.0000 
     24 CA         13.1200   13.5895   13.3770 C.3       3 GLC5        0.0000 
     25 CA         12.0720   13.1480   14.7200 C.3       9 GLL5        0.0000 
     26 CA         14.1680   14.0310   12.0340 C.3       6 GLP5        0.0000 
     27 CA         12.7015   14.9325   15.0515 C.3       3 GLC5        0.0000 
     28 CA         13.3310   16.7170   15.3830 C.3       6 GLP5        0.0000 
     29 CA         12.7560   11.7875   13.5860 C.3       3 GLC5        0.0000 
     30 CA         13.4400   10.4270   12.4520 C.3       6 GLP5        0.0000 
     31 CA          4.9580   10.2370   14.1635 C.3       3 GLC5        0.0000 
     32 CA          6.4340   11.7640   13.5310 C.3       9 GLL5        0.0000 
     33 CA          4.7360   12.5745   14.1330 C.3       3 GLC5        0.0000 
     34 CA          3.0380   13.3850   14.7350 C.3       6 GLP5        0.0000 
     35 N           6.6350   11.9035   10.8420 N.am      2 SEC2        0.0000 
     36 N           5.7710   11.8370   12.2360 N.am      8 SEL2        0.0000 
     37 N           7.4990   11.9700    9.4480 N.am      5 SEP2        0.0000 
     38 O           4.7310   11.0825   12.6485 O.2       1 ALC1        0.0000 
     39 O           5.7710   11.8370   12.2360 O.2       7 ALL1        0.0000 
     40 O           3.6910   10.3280   13.0610 O.2       4 ALP1        0.0000 
     41 CA         11.3455   11.6365   23.0060 C.3       3 GLC5        0.0000 
     42 CA          9.6320   11.3230   23.0320 C.3       9 GLL5        0.0000 
     43 CA         13.0590   11.9500   22.9800 C.3       6 GLP5        0.0000 
     44 CA         11.9240   14.6815   20.6715 C.3       3 GLC5        0.0000 
     45 CA         10.3710   15.5490   20.3560 C.3       9 GLL5        0.0000 
     46 CA         13.4770   13.8140   20.9870 C.3       6 GLP5        0.0000 
     47 CA          9.3005   16.6960   21.6405 C.3       3 GLC5        0.0000 
     48 CA          8.2300   17.8430   22.9250 C.3       6 GLP5        0.0000 
     49 CA          7.9738   14.1532   17.1090 C.3       3 GLC5        0.0000 
     50 CA          8.9060   12.3050   16.8610 C.3       9 GLL5        0.0000 
     51 CA          9.2312   10.8537   16.3295 C.3       3 GLC5        0.0000 
     52 CA          7.6130   12.3400   16.3050 C.3       9 GLL5        0.0000 
     53 CA          5.4475   11.5968   18.9220 C.3       3 GLC5        0.0000 
     54 CA          4.5680   11.9820   20.6330 C.3       6 GLP5        0.0000 
     55 CA         10.9667   11.2190   15.7462 C.3       3 GLC5        0.0000 
     56 CA          8.6440   14.4705   18.5087 C.3       3 GLC5        0.0000 
     57 CA          7.9485   12.6805   20.5440 C.3       3 GLC5        0.0000 
     58 CA          6.5080   13.5120   21.1080 C.3       6 GLP5        0.0000 
     59 CA          7.8515   10.9395   13.8403 C.3       3 GLC5        0.0000 
     60 CA          9.0540    9.4110   13.8580 C.3       6 GLP5        0.0000 
     61 CA          8.9512   15.4307   19.0678 C.3       3 GLC5        0.0000 
     62 CA         10.0580   14.2060   20.6450 C.3       9 GLL5        0.0000 
     63 CA         11.7210   12.8082   19.6094 C.3       3 GLC5        0.0000 
     64 CA          9.7800   13.6340   19.3940 C.3       9 GLL5        0.0000 
     65 CA         10.4200    9.9331   21.7386 C.3       3 GLC5        0.0000 
     66 CA          9.3580   11.4180   20.5890 C.3       9 GLL5        0.0000 
     67 CA         11.2630    8.3340   21.3520 C.3       6 GLP5        0.0000 
     68 CA          8.0015   10.3791   22.5396 C.3       3 GLC5        0.0000 
     69 CA          6.4260    9.2260   22.9540 C.3       6 GLP5        0.0000 
     70 CA          8.6505   12.8615   23.7121 C.3       3 GLC5        0.0000 
     71 CA          7.5580   13.6790   24.9660 C.3       6 GLP5        0.0000 
     72 CA          8.1255   12.7780   21.7831 C.3       3 GLC5        0.0000 
     73 CA          8.3265   14.1233   20.6479 C.3       3 GLC5        0.0000 
@<TRIPOS>BOND
@<TRIPOS>SUBSTRUCTURE
     1 ALC1       38 GROUP        1 X    ALC  0     ROOT ALC X 1
     2 SEC2       35 GROUP        1 X    SEC  0     **** SEC X 2
     3 GLC5        1 GROUP        1 X    GLC  0     **** GLC X 6
     4 ALP1       40 GROUP        1 Y    ALP  0     ROOT ALP Y 8
     5 SEP2       37 GROUP        1 Y    SEP  0     **** SEP Y 9
     6 GLP5        3 GROUP        1 Y    GLP  0     **** GLP Y 13
     7 ALL1       39 GROUP        1 Z    ALL  0     ROOT ALL Z 15
     8 SEL2       36 GROUP        1 Z    SEL  0     **** SEL Z 16
     9 GLL5        2 GROUP        1 Z    GLL  0     **** GLL Z 20
@<TRIPOS>SET

