#    Name: 2won_ZZE_1_ligand
#    Modification time : Tue Mar 25 04:33:41 2014

@<TRIPOS>MOLECULE
2won_ZZE_1_ligand
   41    42     1     0     0
SMALL
NO_CHARGES


@<TRIPOS>ATOM
      1 C1          8.9060   12.3050   16.8610 C.2       1 ZZE1558     0.0000 
      2 C2          7.6130   12.3400   16.3050 C.2       1 ZZE1558     0.0000 
      3 C3          9.8860   12.8350   15.9560 C.2       1 ZZE1558     0.0000 
      4 O4          9.1330   11.7450   18.1580 O.3       1 ZZE1558     0.0000 
      5 N5          7.8440   12.9030   15.0950 N.pl3     1 ZZE1558     0.0000 
      6 C6          6.2870   11.8620   16.9350 C.3       1 ZZE1558     0.0000 
      7 N7          9.1680   13.2000   14.9110 N.2       1 ZZE1558     0.0000 
      8 C8         11.3890   12.9580   16.1130 C.3       1 ZZE1558     0.0000 
      9 C9          9.4200   12.2800   19.3710 C.ar      1 ZZE1558     0.0000 
     10 C10         6.8640   13.1720   14.1140 C.3       1 ZZE1558     0.0000 
     11 C11         6.3670   10.5610   17.4870 C.3       1 ZZE1558     0.0000 
     12 C12        12.0720   13.1480   14.7200 C.3       1 ZZE1558     0.0000 
     13 C13         9.3580   11.4180   20.5890 C.ar      1 ZZE1558     0.0000 
     14 C14         9.7800   13.6340   19.3940 C.ar      1 ZZE1558     0.0000 
     15 C15         6.4340   11.7640   13.5310 C.3       1 ZZE1558     0.0000 
     16 C16         9.6860   12.0650   21.8480 C.ar      1 ZZE1558     0.0000 
     17 C17        10.0580   14.2060   20.6450 C.ar      1 ZZE1558     0.0000 
     18 O18         5.7710   11.8370   12.2360 O.3       1 ZZE1558     0.0000 
     19 C19        10.0220   13.4650   21.9210 C.ar      1 ZZE1558     0.0000 
     20 C20         9.6320   11.3230   23.0320 C.1       1 ZZE1558     0.0000 
     21 C21        10.3710   15.5490   20.3560 C.1       1 ZZE1558     0.0000 
     22 N22         9.5840   10.6950   24.0360 N.1       1 ZZE1558     0.0000 
     23 N23        10.6350   16.6900   20.1090 N.1       1 ZZE1558     0.0000 
     24 H           5.5124   11.9281   16.1411 H         1 ZZE1558     0.0000 
     25 H           6.0029   12.6186   17.6976 H         1 ZZE1558     0.0000 
     26 H          11.7916   12.0596   16.5693 H         1 ZZE1558     0.0000 
     27 H          11.6310   13.8170   16.7303 H         1 ZZE1558     0.0000 
     28 H           7.2375   13.7460   13.2815 H         1 ZZE1558     0.0000 
     29 H           5.9701   13.6228   14.5138 H         1 ZZE1558     0.0000 
     30 H           9.1103   10.4800   20.5231 H         1 ZZE1558     0.0000 
     31 H           9.8372   14.1752   18.5482 H         1 ZZE1558     0.0000 
     32 H           5.7841   11.2950   14.2922 H         1 ZZE1558     0.0000 
     33 H           7.3529   11.1518   13.4809 H         1 ZZE1558     0.0000 
     34 H          10.2197   13.9180   22.7692 H         1 ZZE1558     0.0000 
     35 H           6.6083    9.8789   16.7967 H         1 ZZE1558     0.0000 
     36 H           7.0576   10.5053   18.2081 H         1 ZZE1558     0.0000 
     37 H           5.4980   10.2748   17.8907 H         1 ZZE1558     0.0000 
     38 H          13.0652   13.2312   14.8016 H         1 ZZE1558     0.0000 
     39 H          11.8916   12.3767   14.1096 H         1 ZZE1558     0.0000 
     40 H          11.7461   13.9716   14.2558 H         1 ZZE1558     0.0000 
     41 H           4.9495   11.2753   12.3340 H         1 ZZE1558     0.0000 
@<TRIPOS>BOND
     1    2    1 2    
     2    3    1 1    
     3    4    1 1    
     4    5    2 1    
     5    6    2 1    
     6    7    3 2    
     7    8    3 1    
     8    9    4 1    
     9    7    5 1    
    10   10    5 1    
    11   11    6 1    
    12   24    6 1    
    13   25    6 1    
    14   12    8 1    
    15   26    8 1    
    16   27    8 1    
    17   13    9 ar   
    18   14    9 ar   
    19   15   10 1    
    20   28   10 1    
    21   29   10 1    
    22   35   11 1    
    23   36   11 1    
    24   37   11 1    
    25   38   12 1    
    26   39   12 1    
    27   40   12 1    
    28   16   13 ar   
    29   30   13 1    
    30   17   14 ar   
    31   31   14 1    
    32   18   15 1    
    33   32   15 1    
    34   33   15 1    
    35   19   16 ar   
    36   20   16 1    
    37   19   17 ar   
    38   21   17 1    
    39   41   18 1    
    40   34   19 1    
    41   22   20 3    
    42   23   21 3    
@<TRIPOS>SUBSTRUCTURE
     1 ZZE1558     1 GROUP   
@<TRIPOS>SET

