#    Name: 3seq_NXX_4_INTS_M
#    Modification time : Tue Mar 25 12:28:02 2014

@<TRIPOS>MOLECULE
3seq_NXX_4_INTS_M
   71     0    12     0     0
SMALL
NO_CHARGES


@<TRIPOS>ATOM
      1 CA        -69.8705   -8.5185   50.7045 C.3       4 GLC5        0.0000 
      2 CA        -68.5660   -9.4230   49.3680 C.3      12 GLL5        0.0000 
      3 CA        -71.1750   -7.6140   52.0410 C.3       8 GLP5        0.0000 
      4 CA        -66.3575  -11.3630   45.2775 C.3       4 GLC5        0.0000 
      5 CA        -67.3280   -9.7850   45.8780 C.3      12 GLL5        0.0000 
      6 CA        -65.3870  -12.9410   44.6770 C.3       8 GLP5        0.0000 
      7 CA        -67.4050  -10.8090   43.8640 C.3       4 GLC5        0.0000 
      8 CA        -68.6120   -9.4700   45.1270 C.3      12 GLL5        0.0000 
      9 CA        -66.1980  -12.1480   42.6010 C.3       8 GLP5        0.0000 
     10 NZ        -63.7440   -4.7655   45.7605 N.4       3 LYC4        0.0000 
     11 NZ        -64.6620   -4.5410   44.9570 N.4      11 LYL4        0.0000 
     12 NZ        -62.8260   -4.9900   46.5640 N.4       7 LYP4        0.0000 
     13 N         -63.7440   -4.7655   45.7605 N.am      2 SEC2        0.0000 
     14 N         -64.6620   -4.5410   44.9570 N.am     10 SEL2        0.0000 
     15 N         -62.8260   -4.9900   46.5640 N.am      6 SEP2        0.0000 
     16 N         -68.2400   -3.1665   46.8335 N.am      2 SEC2        0.0000 
     17 N         -66.6260   -3.2280   46.1670 N.am     10 SEL2        0.0000 
     18 N         -69.8540   -3.1050   47.5000 N.am      6 SEP2        0.0000 
     19 N         -67.7010   -0.7030   47.4595 N.am      2 SEC2        0.0000 
     20 N         -66.5240   -1.5230   48.2360 N.am     10 SEL2        0.0000 
     21 N         -68.8780    0.1170   46.6830 N.am      6 SEP2        0.0000 
     22 NZ        -63.9155   -4.2660   47.3220 N.4       3 LYC4        0.0000 
     23 NZ        -65.0050   -3.5420   48.0800 N.4      11 LYL4        0.0000 
     24 N         -64.9295   -3.6075   49.4170 N.am      2 SEC2        0.0000 
     25 N         -65.0050   -3.5420   48.0800 N.am     10 SEL2        0.0000 
     26 N         -64.8540   -3.6730   50.7540 N.am      6 SEP2        0.0000 
     27 CA        -63.0690   -0.6260   45.9680 C.3       4 GLC5        0.0000 
     28 CA        -65.2600   -0.6140   45.5070 C.3      12 GLL5        0.0000 
     29 CA        -60.8780   -0.6380   46.4290 C.3       8 GLP5        0.0000 
     30 CA        -64.1945    2.0155   47.6055 C.3       4 GLC5        0.0000 
     31 CA        -65.2980    0.7340   46.2160 C.3      12 GLL5        0.0000 
     32 CA        -63.0910    3.2970   48.9950 C.3       8 GLP5        0.0000 
     33 O         -66.6775    4.1735   45.6100 O.2       1 ALC1        0.0000 
     34 O         -66.7330    2.7090   46.2470 O.2       9 ALL1        0.0000 
     35 O         -66.6220    5.6380   44.9730 O.2       5 ALP1        0.0000 
     36 O         -65.9105    4.6905   44.5890 O.2       1 ALC1        0.0000 
     37 O         -65.1990    3.7430   44.2050 O.2       9 ALL1        0.0000 
     38 CA        -62.2925    0.8735   46.0335 C.3       4 GLC5        0.0000 
     39 CA        -63.7070    2.3850   45.6380 C.3      12 GLL5        0.0000 
     40 CA        -63.3535    4.4950   45.4300 C.3       4 GLC5        0.0000 
     41 CA        -63.0000    6.6050   45.2220 C.3       8 GLP5        0.0000 
     42 CA        -63.3990    2.8410   47.3165 C.3       4 GLC5        0.0000 
     43 CA        -60.6645    4.4775   44.4220 C.3       4 GLC5        0.0000 
     44 CA        -61.1930    2.8460   45.5210 C.3      12 GLL5        0.0000 
     45 CA        -60.1360    6.1090   43.3230 C.3       8 GLP5        0.0000 
     46 CA        -62.0965    4.7255   45.3715 C.3       4 GLC5        0.0000 
     47 CA        -62.1420    3.0715   47.2580 C.3       4 GLC5        0.0000 
     48 O         -56.0750    2.5110   44.1565 O.2       1 ALC1        0.0000 
     49 O         -57.7490    2.6390   44.1880 O.2       9 ALL1        0.0000 
     50 O         -54.4010    2.3830   44.1250 O.2       5 ALP1        0.0000 
     51 N         -57.4100    4.5860   46.7150 N.am      2 SEC2        0.0000 
     52 N         -58.6170    3.7700   46.0790 N.am     10 SEL2        0.0000 
     53 N         -56.2030    5.4020   47.3510 N.am      6 SEP2        0.0000 
     54 CA        -58.3500    2.5015   47.1775 C.3       4 GLC5        0.0000 
     55 CA        -59.6550    4.0760   46.8630 C.3      12 GLL5        0.0000 
     56 CA        -57.0450    0.9270   47.4920 C.3       8 GLP5        0.0000 
     57 CA        -58.2450    5.5645   45.9880 C.3       4 GLC5        0.0000 
     58 CA        -56.8350    7.0530   45.1130 C.3       8 GLP5        0.0000 
     59 CA        -59.8955    5.0925   45.0930 C.3       4 GLC5        0.0000 
     60 CA        -60.9025    4.8860   48.0810 C.3       4 GLC5        0.0000 
     61 CA        -62.1500    5.6960   49.2990 C.3       8 GLP5        0.0000 
     62 CA        -65.1775   -9.6593   49.1600 C.3       4 GLC5        0.0000 
     63 CA        -66.7300  -10.8760   47.9410 C.3      12 GLL5        0.0000 
     64 CA        -63.5750   -8.3260   49.6920 C.3       8 GLP5        0.0000 
     65 CA        -68.0427   -7.5910   49.7488 C.3       4 GLC5        0.0000 
     66 CA        -67.5970   -5.8500   50.8170 C.3       8 GLP5        0.0000 
     67 CA        -58.2620    1.8317   46.1607 C.3       4 GLC5        0.0000 
     68 CA        -60.1650    2.4890   44.6730 C.3      12 GLL5        0.0000 
     69 CA        -59.3280    3.5077   43.3033 C.3       4 GLC5        0.0000 
     70 CA        -58.7930    2.9840   44.9860 C.3      12 GLL5        0.0000 
     71 CA        -59.1770    4.2790   41.7770 C.3       8 GLP5        0.0000 
@<TRIPOS>BOND
@<TRIPOS>SUBSTRUCTURE
     1 ALC1       33 GROUP        1 X    ALC  0     ROOT ALC X 1
     2 SEC2       13 GROUP        1 X    SEC  0     **** SEC X 2
     3 LYC4       10 GROUP        1 X    LYC  0     **** LYC X 4
     4 GLC5        1 GROUP        1 X    GLC  0     **** GLC X 6
     5 ALP1       35 GROUP        1 Y    ALP  0     ROOT ALP Y 8
     6 SEP2       15 GROUP        1 Y    SEP  0     **** SEP Y 9
     7 LYP4       12 GROUP        1 Y    LYP  0     **** LYP Y 11
     8 GLP5        3 GROUP        1 Y    GLP  0     **** GLP Y 13
     9 ALL1       34 GROUP        1 Z    ALL  0     ROOT ALL Z 15
    10 SEL2       14 GROUP        1 Z    SEL  0     **** SEL Z 16
    11 LYL4       11 GROUP        1 Z    LYL  0     **** LYL Z 18
    12 GLL5        2 GROUP        1 Z    GLL  0     **** GLL Z 20
@<TRIPOS>SET

