#    Name: 3seq_NXX_4_ligand
#    Modification time : Tue Mar 25 12:28:02 2014

@<TRIPOS>MOLECULE
3seq_NXX_4_ligand
   68    72     1     0     0
SMALL
NO_CHARGES


@<TRIPOS>ATOM
      1 O7N       -66.3350  -12.7130   51.0340 O.co2     1 NXX681      0.0000 
      2 C7N       -65.9360  -12.1350   49.9980 C.2       1 NXX681      0.0000 
      3 O8N       -64.8020  -12.4120   49.5330 O.co2     1 NXX681      0.0000 
      4 C3N       -66.8300  -11.1090   49.3150 C.ar      1 NXX681      0.0000 
      5 C4N       -67.7690  -10.3560   50.0350 C.ar      1 NXX681      0.0000 
      6 C5N       -68.5660   -9.4230   49.3680 C.ar      1 NXX681      0.0000 
      7 C6N       -68.4110   -9.2410   47.9930 C.ar      1 NXX681      0.0000 
      8 C2N       -66.7300  -10.8760   47.9410 C.ar      1 NXX681      0.0000 
      9 N1N       -67.5170   -9.9810   47.3140 N.pl3     1 NXX681      0.0000 
     10 C1M       -67.3280   -9.7850   45.8780 C.3       1 NXX681      0.0000 
     11 C2M       -68.6120   -9.4700   45.1270 C.3       1 NXX681      0.0000 
     12 O2M       -68.7520  -10.4030   44.0520 O.3       1 NXX681      0.0000 
     13 C3M       -68.4310   -8.0820   44.5380 C.3       1 NXX681      0.0000 
     14 O3M       -68.5180   -8.1420   43.1020 O.3       1 NXX681      0.0000 
     15 O4M       -66.5030   -8.6350   45.8150 O.3       1 NXX681      0.0000 
     16 C4M       -67.0320   -7.6390   44.9550 C.3       1 NXX681      0.0000 
     17 C5M       -66.9490   -6.3240   45.7220 C.3       1 NXX681      0.0000 
     18 O5M       -67.0520   -5.2510   44.7910 O.3       1 NXX681      0.0000 
     19 PN        -66.0640   -3.9780   44.8170 P.3       1 NXX681      0.0000 
     20 O1N       -64.6620   -4.5410   44.9570 O.co2     1 NXX681      0.0000 
     21 O2N       -66.4090   -3.2080   43.5520 O.co2     1 NXX681      0.0000 
     22 O3A       -66.6260   -3.2280   46.1670 O.3       1 NXX681      0.0000 
     23 PA        -65.7600   -2.4810   47.3310 P.3       1 NXX681      0.0000 
     24 O1A       -66.5240   -1.5230   48.2360 O.co2     1 NXX681      0.0000 
     25 O2A       -65.0050   -3.5420   48.0800 O.co2     1 NXX681      0.0000 
     26 O5B       -64.7680   -1.5600   46.4490 O.3       1 NXX681      0.0000 
     27 C5B       -65.2600   -0.6140   45.5070 C.3       1 NXX681      0.0000 
     28 C4B       -65.2980    0.7340   46.2160 C.3       1 NXX681      0.0000 
     29 C3B       -66.0120    1.7850   45.3870 C.3       1 NXX681      0.0000 
     30 O3B       -66.7330    2.7090   46.2470 O.3       1 NXX681      0.0000 
     31 C2B       -64.8570    2.4230   44.6330 C.3       1 NXX681      0.0000 
     32 O2P       -65.1990    3.7430   44.2050 O.3       1 NXX681      0.0000 
     33 C1B       -63.7070    2.3850   45.6380 C.3       1 NXX681      0.0000 
     34 O4B       -63.9660    1.2060   46.4230 O.3       1 NXX681      0.0000 
     35 N9A       -62.3280    2.2840   45.0430 N.pl3     1 NXX681      0.0000 
     36 C8A       -62.0060    1.5950   43.9340 C.2       1 NXX681      0.0000 
     37 N7A       -60.6820    1.7060   43.7020 N.2       1 NXX681      0.0000 
     38 C5A       -60.1650    2.4890   44.6730 C.ar      1 NXX681      0.0000 
     39 C4A       -61.1930    2.8460   45.5210 C.ar      1 NXX681      0.0000 
     40 C6A       -58.7930    2.9840   44.9860 C.ar      1 NXX681      0.0000 
     41 N6A       -57.7490    2.6390   44.1880 N.pl3     1 NXX681      0.0000 
     42 N1A       -58.6170    3.7700   46.0790 N.ar      1 NXX681      0.0000 
     43 C2A       -59.6550    4.0760   46.8630 C.ar      1 NXX681      0.0000 
     44 N3A       -60.8990    3.6220   46.5880 N.ar      1 NXX681      0.0000 
     45 H         -67.8677  -10.4915   51.0444 H         1 NXX681      0.0000 
     46 H         -69.2598   -8.8759   49.8851 H         1 NXX681      0.0000 
     47 H         -68.9948   -8.5309   47.5172 H         1 NXX681      0.0000 
     48 H         -66.0171  -11.4231   47.4034 H         1 NXX681      0.0000 
     49 H         -66.8443  -10.6186   45.4414 H         1 NXX681      0.0000 
     50 H         -69.4193   -9.4711   45.7901 H         1 NXX681      0.0000 
     51 H         -69.1394   -7.4280   44.9691 H         1 NXX681      0.0000 
     52 H         -66.4122   -7.5591   44.0688 H         1 NXX681      0.0000 
     53 H         -65.9988   -6.3084   46.2594 H         1 NXX681      0.0000 
     54 H         -67.7602   -6.3099   46.4525 H         1 NXX681      0.0000 
     55 H         -66.2671   -0.8495   45.1783 H         1 NXX681      0.0000 
     56 H         -64.6102   -0.5211   44.6427 H         1 NXX681      0.0000 
     57 H         -65.8150    0.6258   47.1502 H         1 NXX681      0.0000 
     58 H         -66.6349    1.2818   44.6902 H         1 NXX681      0.0000 
     59 H         -64.6046    1.7676   43.8209 H         1 NXX681      0.0000 
     60 H         -63.7803    3.2545   46.2681 H         1 NXX681      0.0000 
     61 H         -62.6311    1.0923   43.3816 H         1 NXX681      0.0000 
     62 H         -57.9726    2.0858   43.3855 H         1 NXX681      0.0000 
     63 H         -56.8491    2.9687   44.4736 H         1 NXX681      0.0000 
     64 H         -59.5093    4.6807   47.7114 H         1 NXX681      0.0000 
     65 H         -68.5369   -9.8809   43.2267 H         1 NXX681      0.0000 
     66 H         -67.6046   -7.8970   42.7770 H         1 NXX681      0.0000 
     67 H         -66.6606    3.5963   45.7916 H         1 NXX681      0.0000 
     68 H         -65.9300    4.0338   44.8223 H         1 NXX681      0.0000 
@<TRIPOS>BOND
     1    2    1 ar   
     2    3    2 ar   
     3    4    2 1    
     4    5    4 ar   
     5    8    4 ar   
     6    6    5 ar   
     7   45    5 1    
     8    7    6 ar   
     9   46    6 1    
    10    9    7 ar   
    11   47    7 1    
    12    9    8 ar   
    13   48    8 1    
    14   10    9 1    
    15   11   10 1    
    16   15   10 1    
    17   49   10 1    
    18   12   11 1    
    19   13   11 1    
    20   50   11 1    
    21   65   12 1    
    22   14   13 1    
    23   16   13 1    
    24   51   13 1    
    25   66   14 1    
    26   16   15 1    
    27   17   16 1    
    28   52   16 1    
    29   18   17 1    
    30   53   17 1    
    31   54   17 1    
    32   19   18 1    
    33   20   19 ar   
    34   21   19 ar   
    35   22   19 1    
    36   23   22 1    
    37   24   23 ar   
    38   25   23 ar   
    39   26   23 1    
    40   27   26 1    
    41   28   27 1    
    42   55   27 1    
    43   56   27 1    
    44   29   28 1    
    45   34   28 1    
    46   57   28 1    
    47   30   29 1    
    48   31   29 1    
    49   58   29 1    
    50   67   30 1    
    51   32   31 1    
    52   33   31 1    
    53   59   31 1    
    54   68   32 1    
    55   34   33 1    
    56   35   33 1    
    57   60   33 1    
    58   36   35 1    
    59   39   35 1    
    60   37   36 2    
    61   61   36 1    
    62   38   37 1    
    63   39   38 ar   
    64   40   38 ar   
    65   44   39 ar   
    66   41   40 1    
    67   42   40 ar   
    68   62   41 1    
    69   63   41 1    
    70   43   42 ar   
    71   44   43 ar   
    72   64   43 1    
@<TRIPOS>SUBSTRUCTURE
     1 NXX681      1 GROUP   
@<TRIPOS>SET

