#    Name: 3FH8_2_CAVITY_N1_6.mol2
#    Modification time : Mon Mar 10 16:21:28 2014

@<TRIPOS>MOLECULE
3FH8_2_CAVITY_N1_6.mol2
   16     0     6     0     0
SMALL
NO_CHARGES


@<TRIPOS>ATOM
      1 CZ         31.5787   79.1302    1.5758 C.ar      4 PHE5        0.0000 
      2 OG         31.3133   77.9938    0.6335 O.2       1 SER1        0.0000 
      3 CA         34.1757   81.4596    0.4227 C.3       5 GLY6        0.0000 
      4 OG         34.3755   81.1674   -1.6689 O.2       1 SER1        0.0000 
      5 OG         33.9103   80.3231   -0.5196 O.2       1 SER1        0.0000 
      6 OG         33.4450   79.4788    0.6296 O.2       1 SER1        0.0000 
      7 OG         34.1100   80.0309   -2.6112 O.2       1 SER1        0.0000 
      8 OG         33.6448   79.1866   -1.4620 O.2       1 SER1        0.0000 
      9 OG         33.1796   78.3424   -0.3127 O.2       1 SER1        0.0000 
     10 NZ         36.2418   81.5160   -2.6151 N.2       3 LYS4        0.0000 
     11 N          35.7766   80.6717   -1.4658 N.2       2 ALA2        0.0000 
     12 O          35.3114   79.8275   -0.3166 O.2       2 ALA2        0.0000 
     13 CA         35.9764   80.3795   -3.5574 C.3       5 GLY6        0.0000 
     14 DU         35.5111   79.5353   -2.4081 H         6 CUB7        0.0000 
     15 DU         35.0459   78.6910   -1.2589 H         6 CUB7        0.0000 
     16 O          37.1777   80.1761   -1.2628 O.2       2 ALA2        0.0000 
@<TRIPOS>BOND
@<TRIPOS>SUBSTRUCTURE
     1 SER1        2 GROUP   
     2 ALA2       11 GROUP   
     3 LYS4       10 GROUP   
     4 PHE5        1 GROUP   
     5 GLY6        3 GROUP   
     6 CUB7       14 GROUP   
@<TRIPOS>SET

