#    Name: 3fh8_27P_2_INTS_M
#    Modification time : Tue Mar 25 04:07:39 2014

@<TRIPOS>MOLECULE
3fh8_27P_2_INTS_M
   70     0     6     0     0
SMALL
NO_CHARGES


@<TRIPOS>ATOM
      1 CA         32.8690   87.4920    1.8640 C.3       2 GLC5        0.0000 
      2 CA         33.3010   85.3730    2.1660 C.3       6 GLL5        0.0000 
      3 CA         32.4370   89.6110    1.5620 C.3       4 GLP5        0.0000 
      4 CA         33.6760   84.3290    3.6390 C.3       2 GLC5        0.0000 
      5 CA         34.0510   83.2850    5.1120 C.3       4 GLP5        0.0000 
      6 CA         34.0285   83.4615    2.6620 C.3       2 GLC5        0.0000 
      7 CA         34.1810   84.6240    1.1730 C.3       6 GLL5        0.0000 
      8 CA         33.8760   82.2990    4.1510 C.3       4 GLP5        0.0000 
      9 O          32.2675   86.4400    0.5215 O.2       1 ALC1        0.0000 
     10 O          32.0170   85.5230    1.4800 O.2       5 ALL1        0.0000 
     11 O          32.5180   87.3570   -0.4370 O.2       3 ALP1        0.0000 
     12 CA         31.7280   87.7655    2.0285 C.3       2 GLC5        0.0000 
     13 CA         31.0190   85.9200    2.4950 C.3       6 GLL5        0.0000 
     14 CA         31.3560   84.7475    3.9010 C.3       2 GLC5        0.0000 
     15 CA         31.6930   83.5750    5.3070 C.3       4 GLP5        0.0000 
     16 CA         30.5960   87.6690    1.1620 C.3       2 GLC5        0.0000 
     17 CA         29.5760   85.8940    2.0050 C.3       6 GLL5        0.0000 
     18 CA         31.6160   89.4440    0.3190 C.3       4 GLP5        0.0000 
     19 CA         30.5280   84.2475    3.1810 C.3       2 GLC5        0.0000 
     20 CA         31.4800   82.6010    4.3570 C.3       4 GLP5        0.0000 
     21 CA         28.7730   84.4675    0.7315 C.3       2 GLC5        0.0000 
     22 CA         27.9700   83.0410   -0.5420 C.3       4 GLP5        0.0000 
     23 CA         27.0275   87.8175   -3.8535 C.3       2 GLC5        0.0000 
     24 CA         27.2230   87.7670   -1.7380 C.3       6 GLL5        0.0000 
     25 CA         26.8320   87.8680   -5.9690 C.3       4 GLP5        0.0000 
     26 CA         24.7850   89.6035   -2.4795 C.3       2 GLC5        0.0000 
     27 CA         24.7170   87.5200   -2.0230 C.3       6 GLL5        0.0000 
     28 CA         24.8530   91.6870   -2.9360 C.3       4 GLP5        0.0000 
     29 CA         26.1780   86.6700   -3.3865 C.3       2 GLC5        0.0000 
     30 CA         27.6390   85.8200   -4.7500 C.3       4 GLP5        0.0000 
     31 CA         21.7875   84.7515   -5.6255 C.3       2 GLC5        0.0000 
     32 CA         23.4810   84.3680   -4.7530 C.3       6 GLL5        0.0000 
     33 CA         20.0940   85.1350   -6.4980 C.3       4 GLP5        0.0000 
     34 CA         34.8265   86.3742    1.2917 C.3       2 GLC5        0.0000 
     35 CA         35.9120   87.7500    0.9140 C.3       4 GLP5        0.0000 
     36 CA         32.5378   82.9380    2.2393 C.3       2 GLC5        0.0000 
     37 CA         33.1950   83.6760    0.4810 C.3       6 GLL5        0.0000 
     38 CA         32.5800   81.9450    3.7930 C.3       4 GLP5        0.0000 
     39 CA         31.1752   82.7540    0.1752 C.3       2 GLC5        0.0000 
     40 CA         31.7960   84.1860    0.8900 C.3       6 GLL5        0.0000 
     41 CA         29.8550   81.5770   -0.3350 C.3       4 GLP5        0.0000 
     42 CA         30.0082   88.3448   -0.0512 C.3       2 GLC5        0.0000 
     43 CA         28.3980   86.9080    0.1860 C.3       6 GLL5        0.0000 
     44 CA         27.1060   89.1275   -0.1530 C.3       2 GLC5        0.0000 
     45 CA         27.5880   90.7290    1.1840 C.3       4 GLP5        0.0000 
     46 CA         27.6911   88.7824    0.6571 C.3       2 GLC5        0.0000 
     47 CA         28.4030   87.5830   -1.0290 C.3       6 GLL5        0.0000 
     48 CA         25.2682   87.6960    1.0148 C.3       2 GLC5        0.0000 
     49 CA         27.1880   86.4260    0.6820 C.3       6 GLL5        0.0000 
     50 CA         23.9390   88.8690    1.7030 C.3       4 GLP5        0.0000 
     51 CA         26.2667   84.6795    0.6318 C.3       2 GLC5        0.0000 
     52 CA         26.0070   86.6200   -0.0290 C.3       6 GLL5        0.0000 
     53 CA         25.9360   82.8360    0.9370 C.3       4 GLP5        0.0000 
     54 CA         24.6550   88.1358    0.0353 C.3       2 GLC5        0.0000 
     55 CA         26.0250   87.2850   -1.2420 C.3       6 GLL5        0.0000 
     56 CA         22.2105   86.7735   -5.1120 C.3       2 GLC5        0.0000 
     57 CA         23.9610   86.6750   -4.2780 C.3       6 GLL5        0.0000 
     58 CA         20.6520   87.3660   -5.4960 C.3       4 GLP5        0.0000 
     59 CA         23.0355   88.3480   -2.9634 C.3       2 GLC5        0.0000 
     60 CA         21.8370   89.8820   -2.5400 C.3       4 GLP5        0.0000 
     61 CA         25.3425   86.9884   -5.1848 C.3       2 GLC5        0.0000 
     62 CA         24.2970   86.3860   -2.9680 C.3       6 GLL5        0.0000 
     63 CA         22.4050   84.5378   -1.7437 C.3       2 GLC5        0.0000 
     64 CA         23.7940   84.0710   -3.4290 C.3       6 GLL5        0.0000 
     65 CA         20.8180   84.5100   -0.5050 C.3       4 GLP5        0.0000 
     66 CA         24.4050   83.4762   -1.5002 C.3       2 GLC5        0.0000 
     67 CA         24.1900   85.0600   -2.5360 C.3       6 GLL5        0.0000 
     68 CA         24.8180   82.3870   -0.0180 C.3       4 GLP5        0.0000 
     69 CA         25.0222   83.5166   -5.0556 C.3       2 GLC5        0.0000 
     70 CA         26.3830   82.4840   -5.9140 C.3       4 GLP5        0.0000 
@<TRIPOS>BOND
@<TRIPOS>SUBSTRUCTURE
     1 ALC1        9 GROUP        1 X    ALC  0     ROOT ALC X 1
     2 GLC5        1 GROUP        1 X    GLC  0     **** GLC X 6
     3 ALP1       11 GROUP        1 Y    ALP  0     ROOT ALP Y 8
     4 GLP5        3 GROUP        1 Y    GLP  0     **** GLP Y 13
     5 ALL1       10 GROUP        1 Z    ALL  0     ROOT ALL Z 15
     6 GLL5        2 GROUP        1 Z    GLL  0     **** GLL Z 20
@<TRIPOS>SET

