#    Name: 3fh8_27P_2_ligand
#    Modification time : Tue Mar 25 04:07:39 2014

@<TRIPOS>MOLECULE
3fh8_27P_2_ligand
   45    47     1     0     0
SMALL
NO_CHARGES


@<TRIPOS>ATOM
      1 CAR        33.3010   85.3730    2.1660 C.3       1 27P611      0.0000 
      2 CAS        34.1810   84.6240    1.1730 C.3       1 27P611      0.0000 
      3 CAU        33.1950   83.6760    0.4810 C.3       1 27P611      0.0000 
      4 CAT        31.7960   84.1860    0.8900 C.3       1 27P611      0.0000 
      5 NAA        32.0170   85.5230    1.4800 N.4       1 27P611      0.0000 
      6 CAB        31.0190   85.9200    2.4950 C.3       1 27P611      0.0000 
      7 CAC        29.5760   85.8940    2.0050 C.3       1 27P611      0.0000 
      8 OAD        29.5730   86.7380    0.8560 O.3       1 27P611      0.0000 
      9 CAE        28.3980   86.9080    0.1860 C.ar      1 27P611      0.0000 
     10 CAJ        28.4030   87.5830   -1.0290 C.ar      1 27P611      0.0000 
     11 CAI        27.2230   87.7670   -1.7380 C.ar      1 27P611      0.0000 
     12 CAF        27.1880   86.4260    0.6820 C.ar      1 27P611      0.0000 
     13 CAG        26.0070   86.6200   -0.0290 C.ar      1 27P611      0.0000 
     14 CAH        26.0250   87.2850   -1.2420 C.ar      1 27P611      0.0000 
     15 CAK        24.7170   87.5200   -2.0230 C.3       1 27P611      0.0000 
     16 CAL        24.2970   86.3860   -2.9680 C.ar      1 27P611      0.0000 
     17 CAM        23.9610   86.6750   -4.2780 C.ar      1 27P611      0.0000 
     18 CAN        23.5770   85.6870   -5.1780 C.ar      1 27P611      0.0000 
     19 CAO        23.4810   84.3680   -4.7530 C.ar      1 27P611      0.0000 
     20 CAP        23.7940   84.0710   -3.4290 C.ar      1 27P611      0.0000 
     21 CAQ        24.1900   85.0600   -2.5360 C.ar      1 27P611      0.0000 
     22 H          33.7457   86.3254    2.3733 H         1 27P611      0.0000 
     23 H          33.2015   84.7828    3.0546 H         1 27P611      0.0000 
     24 H          34.9124   84.0614    1.6896 H         1 27P611      0.0000 
     25 H          34.5829   85.2984    0.4644 H         1 27P611      0.0000 
     26 H          33.3301   82.6866    0.8441 H         1 27P611      0.0000 
     27 H          33.3031   83.7494   -0.5735 H         1 27P611      0.0000 
     28 H          31.3839   83.5079    1.6101 H         1 27P611      0.0000 
     29 H          31.1857   84.2462    0.0114 H         1 27P611      0.0000 
     30 H          32.1150   86.2533    0.7187 H         1 27P611      0.0000 
     31 H          31.2402   86.9438    2.8639 H         1 27P611      0.0000 
     32 H          31.0949   85.2554    3.3814 H         1 27P611      0.0000 
     33 H          28.9462   86.2723    2.7912 H         1 27P611      0.0000 
     34 H          29.3197   84.8768    1.7651 H         1 27P611      0.0000 
     35 H          29.2906   87.9501   -1.4068 H         1 27P611      0.0000 
     36 H          27.2427   88.2673   -2.6413 H         1 27P611      0.0000 
     37 H          27.1682   85.9227    1.5811 H         1 27P611      0.0000 
     38 H          25.1176   86.2653    0.3531 H         1 27P611      0.0000 
     39 H          24.8206   88.4533   -2.6100 H         1 27P611      0.0000 
     40 H          23.9008   87.6993   -1.2964 H         1 27P611      0.0000 
     41 H          23.9958   87.6663   -4.6051 H         1 27P611      0.0000 
     42 H          23.3655   85.9320   -6.1522 H         1 27P611      0.0000 
     43 H          23.1884   83.6334   -5.3942 H         1 27P611      0.0000 
     44 H          23.7297   83.0871   -3.1020 H         1 27P611      0.0000 
     45 H          24.4042   84.8217   -1.5613 H         1 27P611      0.0000 
@<TRIPOS>BOND
     1    2    1 1    
     2    5    1 1    
     3   22    1 1    
     4   23    1 1    
     5    3    2 1    
     6   24    2 1    
     7   25    2 1    
     8    4    3 1    
     9   26    3 1    
    10   27    3 1    
    11    5    4 1    
    12   28    4 1    
    13   29    4 1    
    14    6    5 1    
    15   30    5 1    
    16    7    6 1    
    17   31    6 1    
    18   32    6 1    
    19    8    7 1    
    20   33    7 1    
    21   34    7 1    
    22    9    8 1    
    23   10    9 ar   
    24   12    9 ar   
    25   11   10 ar   
    26   35   10 1    
    27   14   11 ar   
    28   36   11 1    
    29   13   12 ar   
    30   37   12 1    
    31   14   13 ar   
    32   38   13 1    
    33   15   14 1    
    34   16   15 1    
    35   39   15 1    
    36   40   15 1    
    37   17   16 ar   
    38   21   16 ar   
    39   18   17 ar   
    40   41   17 1    
    41   19   18 ar   
    42   42   18 1    
    43   20   19 ar   
    44   43   19 1    
    45   21   20 ar   
    46   44   20 1    
    47   45   21 1    
@<TRIPOS>SUBSTRUCTURE
     1 27P611      1 GROUP   
@<TRIPOS>SET

