#    Name: 2WNB_1_CAVITY_N1_6.mol2
#    Modification time : Mon Mar 10 20:23:59 2014

@<TRIPOS>MOLECULE
2WNB_1_CAVITY_N1_6.mol2
  110     0     6     0     0
SMALL
NO_CHARGES


@<TRIPOS>ATOM
      1 N          28.5920   36.1939   34.2171 N.2       2 ALA2        0.0000 
      2 CA         28.4653   35.8046   32.7741 C.3       5 GLY6        0.0000 
      3 CA         27.2174   36.6292   32.6612 C.3       5 GLY6        0.0000 
      4 CA         26.5215   35.8275   34.4977 C.3       5 GLY6        0.0000 
      5 CZ         26.3948   35.4383   33.0547 C.ar      4 PHE5        0.0000 
      6 N          25.1469   36.2629   32.9418 N.2       2 ALA2        0.0000 
      7 CA         25.6988   34.6365   34.8912 C.3       5 GLY6        0.0000 
      8 CA         24.4509   35.4612   34.7783 C.3       5 GLY6        0.0000 
      9 DU         26.8200   33.4226   33.5611 H         6 CUB7        0.0000 
     10 DU         25.5722   34.2473   33.4482 H         6 CUB7        0.0000 
     11 CA         24.3243   35.0719   33.3353 C.3       5 GLY6        0.0000 
     12 CZ         26.6934   33.0334   32.1180 C.ar      4 PHE5        0.0000 
     13 CZ         25.4455   33.8580   32.0051 C.ar      4 PHE5        0.0000 
     14 N          24.1976   34.6826   31.8922 N.2       2 ALA2        0.0000 
     15 CZ         27.6879   31.4302   29.3448 C.ar      4 PHE5        0.0000 
     16 CZ         27.5612   31.0409   27.9017 C.ar      4 PHE5        0.0000 
     17 CZ         26.1866   31.4763   26.3458 C.ar      4 PHE5        0.0000 
     18 CA         23.6908   33.1256   26.1200 C.3       5 GLY6        0.0000 
     19 N          26.1241   32.6209   35.3976 N.2       2 ALA2        0.0000 
     20 N          24.8762   33.4455   35.2847 N.2       2 ALA2        0.0000 
     21 CA         23.6283   34.2702   35.1718 C.3       5 GLY6        0.0000 
     22 DU         25.9974   32.2316   33.9545 H         6 CUB7        0.0000 
     23 DU         24.7495   33.0563   33.8417 H         6 CUB7        0.0000 
     24 O          23.5016   33.8809   33.7288 O.2       2 ALA2        0.0000 
     25 DU         27.1186   31.0178   32.6244 H         6 CUB7        0.0000 
     26 DU         25.8707   31.8424   32.5115 H         6 CUB7        0.0000 
     27 DU         24.6228   32.6670   32.3986 H         6 CUB7        0.0000 
     28 N          23.3749   33.4916   32.2857 N.2       2 ALA2        0.0000 
     29 DU         28.2398   29.8039   31.2942 H         6 CUB7        0.0000 
     30 DU         26.9919   30.6285   31.1813 H         6 CUB7        0.0000 
     31 CZ         25.7440   31.4531   31.0684 C.ar      4 PHE5        0.0000 
     32 CZ         24.4961   32.2777   30.9555 C.ar      4 PHE5        0.0000 
     33 CA         28.1131   29.4146   29.8511 C.3       5 GLY6        0.0000 
     34 CA         26.8652   30.2392   29.7382 C.3       5 GLY6        0.0000 
     35 CZ         25.6174   31.0639   29.6254 C.ar      4 PHE5        0.0000 
     36 CZ         24.3695   31.8885   29.5125 C.ar      4 PHE5        0.0000 
     37 CA         26.7386   29.8500   28.2952 C.3       5 GLY6        0.0000 
     38 CZ         25.4907   30.6746   28.1823 C.ar      4 PHE5        0.0000 
     39 CZ         24.2428   31.4992   28.0694 C.ar      4 PHE5        0.0000 
     40 O          22.9949   32.3238   27.9565 O.2       2 ALA2        0.0000 
     41 N          25.3640   30.2853   26.7392 N.2       2 ALA2        0.0000 
     42 CA         24.1161   31.1100   26.6264 C.3       5 GLY6        0.0000 
     43 OG         22.8682   31.9346   26.5135 O.2       1 SER1        0.0000 
     44 O          21.6203   32.7592   26.4006 O.2       2 ALA2        0.0000 
     45 OG         21.4936   32.3699   24.9575 O.2       1 SER1        0.0000 
     46 DU         26.6761   30.9946   37.3470 H         6 CUB7        0.0000 
     47 N          25.4282   31.8192   37.2342 N.2       2 ALA2        0.0000 
     48 CA         24.1803   32.6438   37.1213 C.3       5 GLY6        0.0000 
     49 DU         26.5494   30.6053   35.9040 H         6 CUB7        0.0000 
     50 DU         25.3015   31.4299   35.7911 H         6 CUB7        0.0000 
     51 CA         24.0536   32.2546   35.6782 C.3       5 GLY6        0.0000 
     52 DU         23.9269   31.8653   34.2351 H         6 CUB7        0.0000 
     53 O          22.6790   32.6899   34.1223 O.2       2 ALA2        0.0000 
     54 CA         27.5439   29.0021   33.1307 C.3       5 GLY6        0.0000 
     55 DU         26.2960   29.8268   33.0179 H         6 CUB7        0.0000 
     56 N          22.5523   32.3007   32.6792 N.2       2 ALA2        0.0000 
     57 CA         28.6651   27.7882   31.8006 C.3       5 GLY6        0.0000 
     58 CA         27.4172   28.6129   31.6877 C.3       5 GLY6        0.0000 
     59 DU         26.1693   29.4375   31.5748 H         6 CUB7        0.0000 
     60 DU         24.9214   30.2621   31.4619 H         6 CUB7        0.0000 
     61 DU         23.6735   31.0868   31.3490 H         6 CUB7        0.0000 
     62 CZ         22.4256   31.9114   31.2361 C.ar      4 PHE5        0.0000 
     63 NZ         26.0426   29.0482   30.1317 N.2       3 LYS4        0.0000 
     64 DU         24.7947   29.8729   30.0189 H         6 CUB7        0.0000 
     65 CZ         23.5468   30.6975   29.9060 C.ar      4 PHE5        0.0000 
     66 CZ         22.2989   31.5221   29.7931 C.ar      4 PHE5        0.0000 
     67 CA         25.9159   28.6590   28.6887 C.3       5 GLY6        0.0000 
     68 N          24.6680   29.4836   28.5758 N.2       2 ALA2        0.0000 
     69 DU         23.4201   30.3082   28.4629 H         6 CUB7        0.0000 
     70 CZ         22.1722   31.1329   28.3500 C.ar      4 PHE5        0.0000 
     71 N          24.5413   29.0943   27.1327 N.2       2 ALA2        0.0000 
     72 CA         23.2935   29.9190   27.0198 C.3       5 GLY6        0.0000 
     73 CA         22.0456   30.7436   26.9070 C.3       5 GLY6        0.0000 
     74 CA         20.7977   31.5682   26.7941 C.3       5 GLY6        0.0000 
     75 O          25.8535   29.8036   37.7405 O.2       2 ALA2        0.0000 
     76 O          24.6056   30.6282   37.6276 O.2       2 ALA2        0.0000 
     77 O          25.7268   29.4143   36.2975 O.2       2 ALA2        0.0000 
     78 O          24.4789   30.2389   36.1846 O.2       2 ALA2        0.0000 
     79 O          23.2310   31.0636   36.0717 O.2       2 ALA2        0.0000 
     80 O          21.9831   31.8882   35.9588 O.2       2 ALA2        0.0000 
     81 DU         25.6001   29.0250   34.8544 H         6 CUB7        0.0000 
     82 DU         24.3522   29.8497   34.7415 H         6 CUB7        0.0000 
     83 DU         23.1043   30.6743   34.6286 H         6 CUB7        0.0000 
     84 O          21.8564   31.4989   34.5157 O.2       2 ALA2        0.0000 
     85 CA         26.7213   27.8111   33.5242 C.3       5 GLY6        0.0000 
     86 CA         25.4734   28.6358   33.4113 C.3       5 GLY6        0.0000 
     87 O          24.2255   29.4604   33.2985 O.2       2 ALA2        0.0000 
     88 CA         22.9776   30.2850   33.1856 C.3       5 GLY6        0.0000 
     89 CZ         21.7297   31.1097   33.0727 C.ar      4 PHE5        0.0000 
     90 OG         25.3467   28.2465   31.9683 O.2       1 SER1        0.0000 
     91 OG         24.0988   29.0711   31.8554 O.2       1 SER1        0.0000 
     92 CZ         22.8509   29.8958   31.7425 C.ar      4 PHE5        0.0000 
     93 NZ         23.9721   28.6819   30.4123 N.2       3 LYS4        0.0000 
     94 CZ         22.7242   29.5065   30.2995 C.ar      4 PHE5        0.0000 
     95 NZ         23.8454   28.2926   28.9693 N.2       3 LYS4        0.0000 
     96 CZ         22.5975   29.1172   28.8564 C.ar      4 PHE5        0.0000 
     97 CA         23.7187   27.9033   27.5262 C.3       5 GLY6        0.0000 
     98 CA         22.4708   28.7280   27.4133 C.3       5 GLY6        0.0000 
     99 OG         21.2229   29.5526   27.3004 O.2       1 SER1        0.0000 
    100 O          24.9041   28.2233   36.6910 O.2       2 ALA2        0.0000 
    101 O          23.6562   29.0479   36.5781 O.2       2 ALA2        0.0000 
    102 CA         22.4083   29.8726   36.4652 C.3       5 GLY6        0.0000 
    103 O          24.7774   27.8340   35.2479 O.2       2 ALA2        0.0000 
    104 O          23.5296   28.6587   35.1350 O.2       2 ALA2        0.0000 
    105 CA         22.2817   29.4833   35.0221 C.3       5 GLY6        0.0000 
    106 OG         23.2762   27.8801   32.2489 O.2       1 SER1        0.0000 
    107 OG         23.1495   27.4909   30.8058 O.2       1 SER1        0.0000 
    108 CZ         21.9016   28.3155   30.6929 C.ar      4 PHE5        0.0000 
    109 NZ         23.0228   27.1016   29.3628 N.2       3 LYS4        0.0000 
    110 CZ         21.7749   27.9262   29.2499 C.ar      4 PHE5        0.0000 
@<TRIPOS>BOND
@<TRIPOS>SUBSTRUCTURE
     1 SER1       43 GROUP   
     2 ALA2        1 GROUP   
     3 LYS4       63 GROUP   
     4 PHE5        5 GROUP   
     5 GLY6        2 GROUP   
     6 CUB7        9 GROUP   
@<TRIPOS>SET

