#    Name: 2wnb_C5P_1_INTS_M
#    Modification time : Tue Mar 25 04:30:19 2014

@<TRIPOS>MOLECULE
2wnb_C5P_1_INTS_M
   42     0     9     0     0
SMALL
NO_CHARGES


@<TRIPOS>ATOM
      1 N          23.1215   32.1630   39.0300 N.am      2 SEC2        0.0000 
      2 N          24.3820   31.6370   39.0720 N.am      8 SEL2        0.0000 
      3 N          21.8610   32.6890   38.9880 N.am      5 SEP2        0.0000 
      4 N          23.9940   30.2315   39.2860 N.am      2 SEC2        0.0000 
      5 N          23.6060   28.8260   39.5000 N.am      5 SEP2        0.0000 
      6 N          26.2075   33.6815   37.7595 N.am      2 SEC2        0.0000 
      7 N          26.1990   32.4490   37.3960 N.am      8 SEL2        0.0000 
      8 N          26.2160   34.9140   38.1230 N.am      5 SEP2        0.0000 
      9 CA         22.5665   32.3570   36.8910 C.3       3 GLC5        0.0000 
     10 CA         23.0820   30.2720   36.4800 C.3       9 GLL5        0.0000 
     11 CA         22.0510   34.4420   37.3020 C.3       6 GLP5        0.0000 
     12 N          21.2670   32.7775   35.0360 N.am      2 SEC2        0.0000 
     13 N          22.0510   31.4090   34.5370 N.am      8 SEL2        0.0000 
     14 N          20.4830   34.1460   35.5350 N.am      5 SEP2        0.0000 
     15 N          23.2820   27.3280   34.4415 N.am      2 SEC2        0.0000 
     16 N          24.3640   28.2920   34.4860 N.am      8 SEL2        0.0000 
     17 N          22.2000   26.3640   34.3970 N.am      5 SEP2        0.0000 
     18 CA         21.0105   30.3680   32.0495 C.3       3 GLC5        0.0000 
     19 CA         22.6260   31.3740   33.1310 C.3       9 GLL5        0.0000 
     20 CA         19.3950   29.3620   30.9680 C.3       6 GLP5        0.0000 
     21 N          22.9595   34.4165   29.9745 N.am      2 SEC2        0.0000 
     22 N          23.9980   34.3620   31.2540 N.am      8 SEL2        0.0000 
     23 N          21.9210   34.4710   28.6950 N.am      5 SEP2        0.0000 
     24 CA         22.8015   34.9000   34.9830 C.3       3 GLC5        0.0000 
     25 CA         24.5260   34.6570   33.5910 C.3       9 GLL5        0.0000 
     26 CA         21.0770   35.1430   36.3750 C.3       6 GLP5        0.0000 
     27 CA         25.0605   35.3440   35.6005 C.3       3 GLC5        0.0000 
     28 CA         25.5950   36.0310   37.6100 C.3       6 GLP5        0.0000 
     29 CA         22.9760   33.9395   35.5875 C.3       3 GLC5        0.0000 
     30 CA         23.9010   33.4370   33.8730 C.3       9 GLL5        0.0000 
     31 N          22.4165   33.4460   29.6005 N.am      2 SEC2        0.0000 
     32 N          22.9120   32.4210   30.5060 N.am      8 SEL2        0.0000 
     33 O          24.2410   36.5470   30.6735 O.2       1 ALC1        0.0000 
     34 O          25.1730   36.2670   32.0410 O.2       7 ALL1        0.0000 
     35 O          23.3090   36.8270   29.3060 O.2       4 ALP1        0.0000 
     36 CA         21.3340   29.5708   36.1013 C.3       3 GLC5        0.0000 
     37 CA         22.5720   30.0450   35.0370 C.3       9 GLL5        0.0000 
     38 CA         19.8410   28.9830   36.4440 C.3       6 GLP5        0.0000 
     39 CA         22.3036   28.5087   33.6610 C.3       3 GLC5        0.0000 
     40 CA         21.1790   27.0070   33.5390 C.3       6 GLP5        0.0000 
     41 CA         23.1557   35.7665   33.6340 C.3       3 GLC5        0.0000 
     42 CA         22.0980   37.4860   33.5360 C.3       6 GLP5        0.0000 
@<TRIPOS>BOND
@<TRIPOS>SUBSTRUCTURE
     1 ALC1       33 GROUP        1 X    ALC  0     ROOT ALC X 1
     2 SEC2        1 GROUP        1 X    SEC  0     **** SEC X 2
     3 GLC5        9 GROUP        1 X    GLC  0     **** GLC X 6
     4 ALP1       35 GROUP        1 Y    ALP  0     ROOT ALP Y 8
     5 SEP2        3 GROUP        1 Y    SEP  0     **** SEP Y 9
     6 GLP5       11 GROUP        1 Y    GLP  0     **** GLP Y 13
     7 ALL1       34 GROUP        1 Z    ALL  0     ROOT ALL Z 15
     8 SEL2        2 GROUP        1 Z    SEL  0     **** SEL Z 16
     9 GLL5       10 GROUP        1 Z    GLL  0     **** GLL Z 20
@<TRIPOS>SET

