#    Name: 2wnb_C5P_1_ligand
#    Modification time : Tue Mar 25 04:30:19 2014

@<TRIPOS>MOLECULE
2wnb_C5P_1_ligand
   33    34     1     0     0
SMALL
NO_CHARGES


@<TRIPOS>ATOM
      1 O3P        25.7650   29.8790   37.5920 O.co2     1 C5P1344     0.0000 
      2 P          25.0690   31.3620   37.7590 P.3       1 C5P1344     0.0000 
      3 O1P        24.3820   31.6370   39.0720 O.co2     1 C5P1344     0.0000 
      4 O2P        26.1990   32.4490   37.3960 O.co2     1 C5P1344     0.0000 
      5 O5'        24.0090   31.4130   36.4830 O.3       1 C5P1344     0.0000 
      6 C5'        23.0820   30.2720   36.4800 C.3       1 C5P1344     0.0000 
      7 C4'        22.5720   30.0450   35.0370 C.3       1 C5P1344     0.0000 
      8 O4'        22.0510   31.4090   34.5370 O.3       1 C5P1344     0.0000 
      9 C3'        23.9430   29.6950   34.3250 C.3       1 C5P1344     0.0000 
     10 O3'        24.3640   28.2920   34.4860 O.3       1 C5P1344     0.0000 
     11 C2'        23.5990   30.1510   32.8850 C.3       1 C5P1344     0.0000 
     12 O2'        23.0080   29.1390   32.0100 O.3       1 C5P1344     0.0000 
     13 C1'        22.6260   31.3740   33.1310 C.3       1 C5P1344     0.0000 
     14 N1         23.3360   32.6800   32.7910 N.am      1 C5P1344     0.0000 
     15 C2         23.3870   33.1350   31.4400 C.2       1 C5P1344     0.0000 
     16 N3         23.9980   34.3620   31.2540 N.2       1 C5P1344     0.0000 
     17 C4         24.5630   35.0950   32.2490 C.2       1 C5P1344     0.0000 
     18 C5         24.5260   34.6570   33.5910 C.2       1 C5P1344     0.0000 
     19 C6         23.9010   33.4370   33.8730 C.2       1 C5P1344     0.0000 
     20 O2         22.9120   32.4210   30.5060 O.2       1 C5P1344     0.0000 
     21 N4         25.1730   36.2670   32.0410 N.pl3     1 C5P1344     0.0000 
     22 H          22.2224   30.4640   37.1142 H         1 C5P1344     0.0000 
     23 H          23.5774   29.3639   36.8083 H         1 C5P1344     0.0000 
     24 H          21.9315   29.2976   34.9850 H         1 C5P1344     0.0000 
     25 H          24.6522   30.4081   34.7144 H         1 C5P1344     0.0000 
     26 H          24.5016   30.5889   32.4676 H         1 C5P1344     0.0000 
     27 H          21.7957   31.2555   32.4173 H         1 C5P1344     0.0000 
     28 H          24.9419   35.2145   34.3247 H         1 C5P1344     0.0000 
     29 H          23.8395   33.0799   34.8173 H         1 C5P1344     0.0000 
     30 H          25.5714   36.7048   32.8470 H         1 C5P1344     0.0000 
     31 H          25.1760   36.6003   31.0982 H         1 C5P1344     0.0000 
     32 H          25.3501   28.2972   34.3201 H         1 C5P1344     0.0000 
     33 H          23.5624   28.3189   32.1517 H         1 C5P1344     0.0000 
@<TRIPOS>BOND
     1    2    1 ar   
     2    3    2 ar   
     3    4    2 ar   
     4    5    2 1    
     5    6    5 1    
     6    7    6 1    
     7   22    6 1    
     8   23    6 1    
     9    8    7 1    
    10    9    7 1    
    11   24    7 1    
    12   13    8 1    
    13   10    9 1    
    14   11    9 1    
    15   25    9 1    
    16   32   10 1    
    17   12   11 1    
    18   13   11 1    
    19   26   11 1    
    20   33   12 1    
    21   14   13 1    
    22   27   13 1    
    23   15   14 am   
    24   19   14 1    
    25   16   15 1    
    26   20   15 2    
    27   17   16 2    
    28   18   17 1    
    29   21   17 1    
    30   19   18 2    
    31   28   18 1    
    32   29   19 1    
    33   30   21 1    
    34   31   21 1    
@<TRIPOS>SUBSTRUCTURE
     1 C5P1344     1 GROUP   
@<TRIPOS>SET

