#    Name: 1gss_LEE_2_INTS_M
#    Modification time : Tue Mar 25 03:43:19 2014

@<TRIPOS>MOLECULE
1gss_LEE_2_INTS_M
   79     0    15     0     0
SMALL
NO_CHARGES


@<TRIPOS>ATOM
      1 OD1        16.0535   57.9620   11.6700 O.co2     3 ASC3        0.0000 
      2 OD1        14.4150   57.0420   11.6140 O.co2    13 ASL3        0.0000 
      3 OD1        17.6920   58.8820   11.7260 O.co2     8 ASP3        0.0000 
      4 OD1        15.1970   58.5060   11.9930 O.co2     3 ASC3        0.0000 
      5 OD1        15.9790   59.9700   12.3720 O.co2     8 ASP3        0.0000 
      6 O          15.1970   58.5060   11.9930 O.2       1 ALC1        0.0000 
      7 O          14.4150   57.0420   11.6140 O.2      11 ALL1        0.0000 
      8 O          15.9790   59.9700   12.3720 O.2       6 ALP1        0.0000 
      9 O          14.7855   57.1830   12.9620 O.2       1 ALC1        0.0000 
     10 O          15.1560   57.3240   14.3100 O.2       6 ALP1        0.0000 
     11 CA         13.0090   55.7570   13.5335 C.3       5 GLC5        0.0000 
     12 CA         13.1100   56.4670   11.4060 C.3      15 GLL5        0.0000 
     13 CA         12.9080   55.0470   15.6610 C.3      10 GLP5        0.0000 
     14 N          12.6850   53.7415   13.4695 N.am      2 SEC2        0.0000 
     15 N          12.1910   54.5140   12.4520 N.am     12 SEL2        0.0000 
     16 N          13.1790   52.9690   14.4870 N.am      7 SEP2        0.0000 
     17 N          12.9660   53.1620   12.2085 N.am      2 SEC2        0.0000 
     18 N          13.7410   51.8100   11.9650 N.am      7 SEP2        0.0000 
     19 CA         10.3030   57.9080   10.2205 C.3       5 GLC5        0.0000 
     20 CA         11.4270   56.2310    9.5230 C.3      15 GLL5        0.0000 
     21 CA          9.1790   59.5850   10.9180 C.3      10 GLP5        0.0000 
     22 NZ         14.8660   53.9155   10.2555 N.4       4 LYC4        0.0000 
     23 NZ         14.3010   54.4850   12.0460 N.4      14 LYL4        0.0000 
     24 NZ         15.4310   53.3460    8.4650 N.4       9 LYP4        0.0000 
     25 N          13.7400   53.7270   13.2665 N.am      2 SEC2        0.0000 
     26 N          14.3010   54.4850   12.0460 N.am     12 SEL2        0.0000 
     27 N          14.0210   53.1475   12.0055 N.am      2 SEC2        0.0000 
     28 O           9.1640   56.2160    9.4255 O.2       1 ALC1        0.0000 
     29 O           9.7510   57.2880    8.3690 O.2      11 ALL1        0.0000 
     30 O           8.5770   55.1440   10.4820 O.2       6 ALP1        0.0000 
     31 CA          9.1800   58.7745    9.0690 C.3       5 GLC5        0.0000 
     32 CA          9.1810   57.9640    7.2200 C.3      15 GLL5        0.0000 
     33 CA          7.8585   54.1495    7.6075 C.3       5 GLC5        0.0000 
     34 CA          8.7170   55.2820    6.6400 C.3      15 GLL5        0.0000 
     35 CA          7.0000   53.0170    8.5750 C.3      10 GLP5        0.0000 
     36 CA          7.6515   53.5145    6.5490 C.3       5 GLC5        0.0000 
     37 CA          7.5890   54.9090    5.2680 C.3      15 GLL5        0.0000 
     38 CA          7.7140   52.1200    7.8300 C.3      10 GLP5        0.0000 
     39 CA          5.8785   55.1365    6.0205 C.3       5 GLC5        0.0000 
     40 CA          4.1680   55.3640    6.7730 C.3      10 GLP5        0.0000 
     41 CA          5.0345   55.5935    4.7985 C.3       5 GLC5        0.0000 
     42 CA          5.9010   55.8230    2.8240 C.3      15 GLL5        0.0000 
     43 CA          4.6110   53.0835    2.2590 C.3       5 GLC5        0.0000 
     44 CA          4.8610   55.1130    1.9940 C.3      15 GLL5        0.0000 
     45 CA          4.3610   51.0540    2.5240 C.3      10 GLP5        0.0000 
     46 CA          2.7575   55.9075    4.0455 C.3       5 GLC5        0.0000 
     47 CA          3.5140   55.8340    2.0630 C.3      15 GLL5        0.0000 
     48 CA          2.0010   55.9810    6.0280 C.3      10 GLP5        0.0000 
     49 CA          1.7500   56.3065    1.8665 C.3       5 GLC5        0.0000 
     50 CA         -0.0140   56.7790    1.6700 C.3      10 GLP5        0.0000 
     51 N           7.2095   57.9435    9.8195 N.am      2 SEC2        0.0000 
     52 N           7.1110   58.3970    8.3430 N.am     12 SEL2        0.0000 
     53 N           7.3080   57.4900   11.2960 N.am      7 SEP2        0.0000 
     54 CA          5.0895   59.1255    6.8570 C.3       5 GLC5        0.0000 
     55 CA          6.6200   60.6080    6.9340 C.3      15 GLL5        0.0000 
     56 CA          3.5590   57.6430    6.7800 C.3      10 GLP5        0.0000 
     57 CA          4.8015   60.6960    7.8845 C.3       5 GLC5        0.0000 
     58 CA          2.9830   60.7840    8.8350 C.3      10 GLP5        0.0000 
     59 NZ          6.1975   63.5975    8.0975 N.4       4 LYC4        0.0000 
     60 NZ          6.0400   62.8600    6.8540 N.4      14 LYL4        0.0000 
     61 NZ          6.3550   64.3350    9.3410 N.4       9 LYP4        0.0000 
     62 N           4.6940   62.1010    7.2655 N.am      2 SEC2        0.0000 
     63 N           6.0400   62.8600    6.8540 N.am     12 SEL2        0.0000 
     64 N           3.3480   61.3420    7.6770 N.am      7 SEP2        0.0000 
     65 N           6.1975   63.5975    8.0975 N.am      2 SEC2        0.0000 
     66 N           6.3550   64.3350    9.3410 N.am      7 SEP2        0.0000 
     67 NZ          7.2290   63.3670    8.3930 N.4       4 LYC4        0.0000 
     68 NZ          8.1030   62.3990    7.4450 N.4      14 LYL4        0.0000 
     69 N           7.2290   63.3670    8.3930 N.am      2 SEC2        0.0000 
     70 N           8.1030   62.3990    7.4450 N.am     12 SEL2        0.0000 
     71 N           9.4495   61.7485    7.7875 N.am      2 SEC2        0.0000 
     72 N          10.7960   61.0980    8.1300 N.am      7 SEP2        0.0000 
     73 CA         12.5655   54.6400    9.1433 C.3       5 GLC5        0.0000 
     74 CA         12.9900   52.9450    8.5560 C.3      10 GLP5        0.0000 
     75 CA          6.6120   56.4140    6.7097 C.3       5 GLC5        0.0000 
     76 CA          4.4820   56.6780    7.0260 C.3      10 GLP5        0.0000 
     77 CA          8.8818   54.8090    1.8020 C.3       5 GLC5        0.0000 
     78 CA          8.1450   55.2300    3.8690 C.3      15 GLL5        0.0000 
     79 CA         10.1280   54.5360    0.2830 C.3      10 GLP5        0.0000 
@<TRIPOS>BOND
@<TRIPOS>SUBSTRUCTURE
     1 ALC1        6 GROUP        1 X    ALC  0     ROOT ALC X 1
     2 SEC2       14 GROUP        1 X    SEC  0     **** SEC X 2
     3 ASC3        1 GROUP        1 X    ASC  0     **** ASC X 3
     4 LYC4       22 GROUP        1 X    LYC  0     **** LYC X 4
     5 GLC5       11 GROUP        1 X    GLC  0     **** GLC X 6
     6 ALP1        8 GROUP        1 Y    ALP  0     ROOT ALP Y 8
     7 SEP2       16 GROUP        1 Y    SEP  0     **** SEP Y 9
     8 ASP3        3 GROUP        1 Y    ASP  0     **** ASP Y 10
     9 LYP4       24 GROUP        1 Y    LYP  0     **** LYP Y 11
    10 GLP5       13 GROUP        1 Y    GLP  0     **** GLP Y 13
    11 ALL1        7 GROUP        1 Z    ALL  0     ROOT ALL Z 15
    12 SEL2       15 GROUP        1 Z    SEL  0     **** SEL Z 16
    13 ASL3        2 GROUP        1 Z    ASL  0     **** ASL Z 17
    14 LYL4       23 GROUP        1 Z    LYL  0     **** LYL Z 18
    15 GLL5       12 GROUP        1 Z    GLL  0     **** GLL Z 20
@<TRIPOS>SET

