#    Name: 1gss_LEE_2_ligand
#    Modification time : Tue Mar 25 03:43:19 2014

@<TRIPOS>MOLECULE
1gss_LEE_2_ligand
   54    53     1     0     0
SMALL
NO_CHARGES


@<TRIPOS>ATOM
      1 N          14.4150   57.0420   11.6140 N.4       1 LEE208      0.0000 
      2 CA         13.1100   56.4670   11.4060 C.3       1 LEE208      0.0000 
      3 C          13.2020   55.0450   11.9860 C.2       1 LEE208      0.0000 
      4 O          12.1910   54.5140   12.4520 O.co2     1 LEE208      0.0000 
      5 CB         12.8550   56.4390    9.9380 C.3       1 LEE208      0.0000 
      6 CG         11.4270   56.2310    9.5230 C.3       1 LEE208      0.0000 
      7 CD         11.0770   57.2600    8.4890 C.2       1 LEE208      0.0000 
      8 OE1        11.7960   57.8240    7.8820 O.2       1 LEE208      0.0000 
      9 OXT        14.3010   54.4850   12.0460 O.co2     1 LEE208      0.0000 
     10 N1          9.7510   57.2880    8.3690 N.am      1 LEE208      0.0000 
     11 CA1         9.1810   57.9640    7.2200 C.3       1 LEE208      0.0000 
     12 CB1         8.7670   57.0180    6.1470 C.3       1 LEE208      0.0000 
     13 SG          8.7170   55.2820    6.6400 S.3       1 LEE208      0.0000 
     14 C1          7.5890   54.9090    5.2680 C.3       1 LEE208      0.0000 
     15 C2          8.1450   55.2300    3.8690 C.3       1 LEE208      0.0000 
     16 C3          7.1260   54.9340    2.7730 C.3       1 LEE208      0.0000 
     17 C4          5.9010   55.8230    2.8240 C.3       1 LEE208      0.0000 
     18 C5          4.8610   55.1130    1.9940 C.3       1 LEE208      0.0000 
     19 C6          3.5140   55.8340    2.0630 C.3       1 LEE208      0.0000 
     20 C7          7.9570   58.7720    7.5220 C.2       1 LEE208      0.0000 
     21 O1          7.1110   58.3970    8.3430 O.2       1 LEE208      0.0000 
     22 N2          7.8460   59.8770    6.8370 N.am      1 LEE208      0.0000 
     23 CA2         6.6200   60.6080    6.9340 C.3       1 LEE208      0.0000 
     24 C8          6.9540   62.0670    7.0920 C.2       1 LEE208      0.0000 
     25 O2          6.0400   62.8600    6.8540 O.co2     1 LEE208      0.0000 
     26 OXT1        8.1030   62.3990    7.4450 O.co2     1 LEE208      0.0000 
     27 H          12.3672   57.0027   11.9183 H         1 LEE208      0.0000 
     28 H          13.4827   55.6391    9.4729 H         1 LEE208      0.0000 
     29 H          13.2240   57.3920    9.4844 H         1 LEE208      0.0000 
     30 H          10.7764   56.3410   10.3843 H         1 LEE208      0.0000 
     31 H          11.3090   55.2367    9.1050 H         1 LEE208      0.0000 
     32 H           9.1091   56.8639    9.0343 H         1 LEE208      0.0000 
     33 H           9.9170   58.6503    6.7721 H         1 LEE208      0.0000 
     34 H           9.4455   56.9881    5.2955 H         1 LEE208      0.0000 
     35 H           7.7524   57.1754    5.7836 H         1 LEE208      0.0000 
     36 H           6.7156   55.4930    5.5208 H         1 LEE208      0.0000 
     37 H           7.3881   53.8571    5.4127 H         1 LEE208      0.0000 
     38 H           9.0430   54.6321    3.7004 H         1 LEE208      0.0000 
     39 H           8.4205   56.2859    3.8325 H         1 LEE208      0.0000 
     40 H           6.8130   53.8795    2.8544 H         1 LEE208      0.0000 
     41 H           7.6166   55.0478    1.7917 H         1 LEE208      0.0000 
     42 H           6.1269   56.7750    2.3917 H         1 LEE208      0.0000 
     43 H           5.5627   55.9148    3.8346 H         1 LEE208      0.0000 
     44 H           4.7338   54.0911    2.3577 H         1 LEE208      0.0000 
     45 H           5.1864   55.0711    0.9524 H         1 LEE208      0.0000 
     46 H           8.5788   60.2589    6.2322 H         1 LEE208      0.0000 
     47 H           6.0322   60.2916    7.7979 H         1 LEE208      0.0000 
     48 H           6.0097   60.4874    6.0369 H         1 LEE208      0.0000 
     49 H          14.3599   58.0117   11.8521 H         1 LEE208      0.0000 
     50 H          14.9081   56.5859   12.3549 H         1 LEE208      0.0000 
     51 H          14.9859   56.9730   10.7960 H         1 LEE208      0.0000 
     52 H           3.5771   56.7722    1.7227 H         1 LEE208      0.0000 
     53 H           2.8162   55.3705    1.5169 H         1 LEE208      0.0000 
     54 H           3.1674   55.8846    2.9996 H         1 LEE208      0.0000 
@<TRIPOS>BOND
     1    2    1 1    
     2   49    1 1    
     3   50    1 1    
     4   51    1 1    
     5    3    2 1    
     6    5    2 1    
     7   27    2 1    
     8    4    3 ar   
     9    9    3 ar   
    10    6    5 1    
    11   28    5 1    
    12   29    5 1    
    13    7    6 1    
    14   30    6 1    
    15   31    6 1    
    16    8    7 2    
    17   10    7 am   
    18   11   10 1    
    19   32   10 1    
    20   12   11 1    
    21   20   11 1    
    22   33   11 1    
    23   13   12 1    
    24   34   12 1    
    25   35   12 1    
    26   14   13 1    
    27   15   14 1    
    28   36   14 1    
    29   37   14 1    
    30   16   15 1    
    31   38   15 1    
    32   39   15 1    
    33   17   16 1    
    34   40   16 1    
    35   41   16 1    
    36   18   17 1    
    37   42   17 1    
    38   43   17 1    
    39   19   18 1    
    40   44   18 1    
    41   45   18 1    
    42   52   19 1    
    43   53   19 1    
    44   54   19 1    
    45   21   20 2    
    46   22   20 am   
    47   23   22 1    
    48   46   22 1    
    49   24   23 1    
    50   47   23 1    
    51   48   23 1    
    52   25   24 ar   
    53   26   24 ar   
@<TRIPOS>SUBSTRUCTURE
     1 LEE208      1 GROUP   
@<TRIPOS>SET

