#    Name: 2gks_ADP_2_INTS_M
#    Modification time : Tue Mar 25 14:37:02 2014

@<TRIPOS>MOLECULE
2gks_ADP_2_INTS_M
   72     0    12     0     0
SMALL
NO_CHARGES


@<TRIPOS>ATOM
      1 N          10.3465    2.4960   88.3310 N.am      2 SEC2        0.0000 
      2 N           9.2920    1.7020   88.5880 N.am     10 SEL2        0.0000 
      3 N          11.4010    3.2900   88.0740 N.am      6 SEP2        0.0000 
      4 NZ          5.6460    1.8425   87.7050 N.4       3 LYC4        0.0000 
      5 NZ          6.8420    1.2210   88.2250 N.4      11 LYL4        0.0000 
      6 NZ          4.2660    3.5740   86.4940 N.4       7 LYP4        0.0000 
      7 N           5.6460    1.8425   87.7050 N.am      2 SEC2        0.0000 
      8 N           6.8420    1.2210   88.2250 N.am     10 SEL2        0.0000 
      9 N           4.4500    2.4640   87.1850 N.am      6 SEP2        0.0000 
     10 N           8.0825   -1.0375   89.3690 N.am      2 SEC2        0.0000 
     11 N           8.0680    0.1070   90.1290 N.am     10 SEL2        0.0000 
     12 N           8.0970   -2.1820   88.6090 N.am      6 SEP2        0.0000 
     13 N           7.3175    5.4510   91.7295 N.am      2 SEC2        0.0000 
     14 N           6.4880    4.4190   91.3450 N.am     10 SEL2        0.0000 
     15 N           8.1470    6.4830   92.1140 N.am      6 SEP2        0.0000 
     16 N           7.5370    5.2565   90.2915 N.am      2 SEC2        0.0000 
     17 N           8.5860    6.0940   89.2380 N.am      6 SEP2        0.0000 
     18 N           5.1665    4.7680   90.5820 N.am      2 SEC2        0.0000 
     19 N           3.8450    5.1170   89.8190 N.am      6 SEP2        0.0000 
     20 N           4.5850    3.6510   90.2175 N.am      2 SEC2        0.0000 
     21 N           5.3250    2.1850   90.6160 N.am     10 SEL2        0.0000 
     22 CA          9.1235    3.7255   94.4700 C.3       4 GLC5        0.0000 
     23 CA          8.3790    2.6190   92.9710 C.3      12 GLL5        0.0000 
     24 CA          9.8680    4.8320   95.9690 C.3       8 GLP5        0.0000 
     25 CA          9.2430    4.0605   91.9900 C.3       4 GLC5        0.0000 
     26 CA         10.1070    5.5020   91.0090 C.3       8 GLP5        0.0000 
     27 CA          9.7700    2.6190   95.1110 C.3       4 GLC5        0.0000 
     28 CA          8.9670    1.5540   93.8970 C.3      12 GLL5        0.0000 
     29 CA         10.5730    3.6840   96.3250 C.3       8 GLP5        0.0000 
     30 CA          9.7645   -1.4520   92.1330 C.3       4 GLC5        0.0000 
     31 CA          8.8830    0.1430   93.3210 C.3      12 GLL5        0.0000 
     32 CA         10.6460   -3.0470   90.9450 C.3       8 GLP5        0.0000 
     33 N           9.9785   -1.9325   94.7850 N.am      2 SEC2        0.0000 
     34 N           9.9640   -0.6470   93.8330 N.am     10 SEL2        0.0000 
     35 N           9.9930   -3.2180   95.7370 N.am      6 SEP2        0.0000 
     36 N          10.5415   -1.3690   92.8260 N.am      2 SEC2        0.0000 
     37 N          11.1190   -2.0910   91.8190 N.am      6 SEP2        0.0000 
     38 CA          7.8650   -1.9180   92.2870 C.3       4 GLC5        0.0000 
     39 CA          7.5830   -0.3810   93.8880 C.3      12 GLL5        0.0000 
     40 CA          8.1470   -3.4550   90.6860 C.3       8 GLP5        0.0000 
     41 O           6.5525   -2.5920   93.6815 O.2       1 ALC1        0.0000 
     42 O           7.5730   -1.8080   93.8850 O.2       9 ALL1        0.0000 
     43 O           5.5320   -3.3760   93.4780 O.2       5 ALP1        0.0000 
     44 CA          7.9795    1.3155   97.0720 C.3       4 GLC5        0.0000 
     45 CA          7.5930    0.2610   95.2770 C.3      12 GLL5        0.0000 
     46 CA          8.3660    2.3700   98.8670 C.3       8 GLP5        0.0000 
     47 CA          2.4290   -1.8845   98.6795 C.3       4 GLC5        0.0000 
     48 CA          3.7590   -0.2000   98.4180 C.3      12 GLL5        0.0000 
     49 CA          1.0990   -3.5690   98.9410 C.3       8 GLP5        0.0000 
     50 CA          3.7865   -0.2360  100.6025 C.3       4 GLC5        0.0000 
     51 CA          3.8140   -0.2720  102.7870 C.3       8 GLP5        0.0000 
     52 O           1.7900    0.0750  100.2010 O.2       1 ALC1        0.0000 
     53 O           2.5230    0.2350   98.7660 O.2       9 ALL1        0.0000 
     54 O           1.0570   -0.0850  101.6360 O.2       5 ALP1        0.0000 
     55 N           3.7305   -1.7130  100.3080 N.am      2 SEC2        0.0000 
     56 N           4.3820   -1.1830   99.1230 N.am     10 SEL2        0.0000 
     57 N           3.0790   -2.2430  101.4930 N.am      6 SEP2        0.0000 
     58 CA          7.1290   -0.5845   99.6260 C.3       4 GLC5        0.0000 
     59 CA          5.6150   -1.6480   98.8050 C.3      12 GLL5        0.0000 
     60 CA          8.6430    0.4790  100.4470 C.3       8 GLP5        0.0000 
     61 CA          7.1570   -2.5200   97.5925 C.3       4 GLC5        0.0000 
     62 CA          8.6990   -3.3920   96.3800 C.3       8 GLP5        0.0000 
     63 CA          7.3845   -2.4560   99.8095 C.3       4 GLC5        0.0000 
     64 CA          9.1540   -3.2640  100.8140 C.3       8 GLP5        0.0000 
     65 CA          4.4020   -2.9750   99.5035 C.3       4 GLC5        0.0000 
     66 CA          3.1890   -4.3020  100.2020 C.3       8 GLP5        0.0000 
     67 CA          5.4435   -1.1420  100.9420 C.3       4 GLC5        0.0000 
     68 CA          5.2720   -0.6360  103.0790 C.3       8 GLP5        0.0000 
     69 CA          7.0935    1.0995   97.9175 C.3       4 GLC5        0.0000 
     70 CA          5.8210   -0.1710   96.9680 C.3      12 GLL5        0.0000 
     71 CA          7.2600   -1.7815   96.6740 C.3       4 GLC5        0.0000 
     72 CA          8.1435   -1.7260   95.4812 C.3       4 GLC5        0.0000 
@<TRIPOS>BOND
@<TRIPOS>SUBSTRUCTURE
     1 ALC1       41 GROUP        1 X    ALC  0     ROOT ALC X 1
     2 SEC2        1 GROUP        1 X    SEC  0     **** SEC X 2
     3 LYC4        4 GROUP        1 X    LYC  0     **** LYC X 4
     4 GLC5       22 GROUP        1 X    GLC  0     **** GLC X 6
     5 ALP1       43 GROUP        1 Y    ALP  0     ROOT ALP Y 8
     6 SEP2        3 GROUP        1 Y    SEP  0     **** SEP Y 9
     7 LYP4        6 GROUP        1 Y    LYP  0     **** LYP Y 11
     8 GLP5       24 GROUP        1 Y    GLP  0     **** GLP Y 13
     9 ALL1       42 GROUP        1 Z    ALL  0     ROOT ALL Z 15
    10 SEL2        2 GROUP        1 Z    SEL  0     **** SEL Z 16
    11 LYL4        5 GROUP        1 Z    LYL  0     **** LYL Z 18
    12 GLL5       23 GROUP        1 Z    GLL  0     **** GLL Z 20
@<TRIPOS>SET

