#    Name: 2gks_ADP_2_ligand
#    Modification time : Tue Mar 25 14:37:02 2014

@<TRIPOS>MOLECULE
2gks_ADP_2_ligand
   39    41     1     0     0
SMALL
NO_CHARGES


@<TRIPOS>ATOM
      1 PB          7.9780    1.2970   89.2030 P.3       1 ADP902      0.0000 
      2 O1B         9.2920    1.7020   88.5880 O.co2     1 ADP902      0.0000 
      3 O2B         6.8420    1.2210   88.2250 O.co2     1 ADP902      0.0000 
      4 O3B         8.0680    0.1070   90.1290 O.co2     1 ADP902      0.0000 
      5 PA          6.5310    2.9210   91.1270 P.3       1 ADP902      0.0000 
      6 O1A         6.4880    4.4190   91.3450 O.co2     1 ADP902      0.0000 
      7 O2A         5.3250    2.1850   90.6160 O.co2     1 ADP902      0.0000 
      8 O3A         7.7420    2.6280   90.0950 O.3       1 ADP902      0.0000 
      9 O5'         7.0890    2.2480   92.4830 O.3       1 ADP902      0.0000 
     10 C5'         8.3790    2.6190   92.9710 C.3       1 ADP902      0.0000 
     11 C4'         8.9670    1.5540   93.8970 C.3       1 ADP902      0.0000 
     12 O4'         8.2480    1.5290   95.1390 O.3       1 ADP902      0.0000 
     13 C3'         8.8830    0.1430   93.3210 C.3       1 ADP902      0.0000 
     14 O3'         9.9640   -0.6470   93.8330 O.3       1 ADP902      0.0000 
     15 C2'         7.5830   -0.3810   93.8880 C.3       1 ADP902      0.0000 
     16 O2'         7.5730   -1.8080   93.8850 O.3       1 ADP902      0.0000 
     17 C1'         7.5930    0.2610   95.2770 C.3       1 ADP902      0.0000 
     18 N9          6.2640    0.4880   95.8900 N.pl3     1 ADP902      0.0000 
     19 C8          5.3300    1.3930   95.5090 C.2       1 ADP902      0.0000 
     20 N7          4.2410    1.3370   96.3210 N.2       1 ADP902      0.0000 
     21 C5          4.4790    0.3820   97.2530 C.ar      1 ADP902      0.0000 
     22 C6          3.7590   -0.2000   98.4180 C.ar      1 ADP902      0.0000 
     23 N6          2.5230    0.2350   98.7660 N.pl3     1 ADP902      0.0000 
     24 N1          4.3820   -1.1830   99.1230 N.ar      1 ADP902      0.0000 
     25 C2          5.6150   -1.6480   98.8050 C.ar      1 ADP902      0.0000 
     26 N3          6.3220   -1.1660   97.7590 N.ar      1 ADP902      0.0000 
     27 C4          5.8210   -0.1710   96.9680 C.ar      1 ADP902      0.0000 
     28 H           8.3410    3.5674   93.5371 H         1 ADP902      0.0000 
     29 H           9.0962    2.7734   92.1445 H         1 ADP902      0.0000 
     30 H          10.0085    1.7811   94.0763 H         1 ADP902      0.0000 
     31 H           8.8278    0.1890   92.2887 H         1 ADP902      0.0000 
     32 H           6.7909    0.0637   93.3285 H         1 ADP902      0.0000 
     33 H           8.1946   -0.3732   95.9300 H         1 ADP902      0.0000 
     34 H           5.4244    2.0055   94.7517 H         1 ADP902      0.0000 
     35 H           1.9481    0.5700   98.0195 H         1 ADP902      0.0000 
     36 H           2.2956    0.1824   99.7384 H         1 ADP902      0.0000 
     37 H           6.0369   -2.4148   99.3973 H         1 ADP902      0.0000 
     38 H          10.6117    0.0147   94.2107 H         1 ADP902      0.0000 
     39 H           6.6222   -2.0596   93.7043 H         1 ADP902      0.0000 
@<TRIPOS>BOND
     1    2    1 ar   
     2    3    1 ar   
     3    4    1 ar   
     4    8    1 1    
     5    6    5 ar   
     6    7    5 ar   
     7    8    5 1    
     8    9    5 1    
     9   10    9 1    
    10   11   10 1    
    11   28   10 1    
    12   29   10 1    
    13   12   11 1    
    14   13   11 1    
    15   30   11 1    
    16   17   12 1    
    17   14   13 1    
    18   15   13 1    
    19   31   13 1    
    20   38   14 1    
    21   16   15 1    
    22   17   15 1    
    23   32   15 1    
    24   39   16 1    
    25   18   17 1    
    26   33   17 1    
    27   19   18 1    
    28   27   18 1    
    29   20   19 2    
    30   34   19 1    
    31   21   20 1    
    32   22   21 ar   
    33   27   21 ar   
    34   23   22 1    
    35   24   22 ar   
    36   35   23 1    
    37   36   23 1    
    38   25   24 ar   
    39   26   25 ar   
    40   37   25 1    
    41   27   26 ar   
@<TRIPOS>SUBSTRUCTURE
     1 ADP902      1 GROUP   
@<TRIPOS>SET

