#    Name: 2v0m_KLN_5_INTS_M
#    Modification time : Tue Mar 25 00:39:01 2014

@<TRIPOS>MOLECULE
2v0m_KLN_5_INTS_M
   58     0     6     0     0
SMALL
NO_CHARGES


@<TRIPOS>ATOM
      1 CA         27.7030    2.7310    8.5545 C.3       2 GLC5        0.0000 
      2 CA         26.0750    3.5510    7.3800 C.3       6 GLL5        0.0000 
      3 CA         29.3310    1.9110    9.7290 C.3       4 GLP5        0.0000 
      4 CA         28.6760    6.2560    6.0810 C.3       2 GLC5        0.0000 
      5 CA         27.4690    5.6200    7.7170 C.3       6 GLL5        0.0000 
      6 CA         29.8830    6.8920    4.4450 C.3       4 GLP5        0.0000 
      7 CA         25.3845    9.6360    6.5045 C.3       2 GLC5        0.0000 
      8 CA         24.8580    7.9270    7.2410 C.3       6 GLL5        0.0000 
      9 CA         25.9110   11.3450    5.7680 C.3       4 GLP5        0.0000 
     10 CA         29.6160    7.3115   12.8820 C.3       2 GLC5        0.0000 
     11 CA         28.5210    8.0140   11.3500 C.3       6 GLL5        0.0000 
     12 CA         30.7110    6.6090   14.4140 C.3       4 GLP5        0.0000 
     13 CA         31.3300   10.9555   11.3665 C.3       2 GLC5        0.0000 
     14 CA         29.7320   10.3440   11.9720 C.3       6 GLL5        0.0000 
     15 CA         32.9280   11.5670   10.7610 C.3       4 GLP5        0.0000 
     16 CA         29.8170   11.1480   13.3870 C.3       2 GLC5        0.0000 
     17 CA         29.9020   11.9520   14.8020 C.3       4 GLP5        0.0000 
     18 CA         22.9305    1.4060   10.1630 C.3       2 GLC5        0.0000 
     19 CA         22.7370    3.3820   10.8080 C.3       6 GLL5        0.0000 
     20 CA         23.1240   -0.5700    9.5180 C.3       4 GLP5        0.0000 
     21 CA         24.5630   -0.6860   14.5485 C.3       2 GLC5        0.0000 
     22 CA         23.3740    0.8350   14.3280 C.3       6 GLL5        0.0000 
     23 CA         25.7520   -2.2070   14.7690 C.3       4 GLP5        0.0000 
     24 CA         20.1435   -0.6885   14.5050 C.3       2 GLC5        0.0000 
     25 CA         20.8580    1.1310   14.5430 C.3       6 GLL5        0.0000 
     26 CA         19.4290   -2.5080   14.4670 C.3       4 GLP5        0.0000 
     27 N          20.8875   -1.2785   17.3060 N.am      1 SEC2        0.0000 
     28 N          21.1540    0.1820   17.0990 N.am      5 SEL2        0.0000 
     29 N          20.6210   -2.7390   17.5130 N.am      3 SEP2        0.0000 
     30 CA         24.6845   -0.6955   18.3480 C.3       2 GLC5        0.0000 
     31 CA         23.4770   -0.1610   17.0900 C.3       6 GLL5        0.0000 
     32 CA         25.8920   -1.2300   19.6060 C.3       4 GLP5        0.0000 
     33 CA         24.6145   -1.1840   15.9295 C.3       2 GLC5        0.0000 
     34 CA         22.1280   -1.8465   16.6895 C.3       2 GLC5        0.0000 
     35 CA         20.7790   -3.5320   16.2890 C.3       4 GLP5        0.0000 
     36 CA         29.2595    5.9390   10.3790 C.3       2 GLC5        0.0000 
     37 CA         27.4250    5.5940   11.0760 C.3       6 GLL5        0.0000 
     38 CA         31.0940    6.2840    9.6820 C.3       4 GLP5        0.0000 
     39 CA         28.0655    3.5620   11.0780 C.3       2 GLC5        0.0000 
     40 CA         28.7060    1.5300   11.0800 C.3       4 GLP5        0.0000 
     41 CA         29.0338    6.7710    8.3762 C.3       2 GLC5        0.0000 
     42 CA         31.0070    7.3350    8.7670 C.3       4 GLP5        0.0000 
     43 CA         29.8460    8.9230   13.1892 C.3       2 GLC5        0.0000 
     44 CA         28.8540    9.2880   10.9310 C.3       6 GLL5        0.0000 
     45 CA         30.3990    8.0300   14.9270 C.3       4 GLP5        0.0000 
     46 CA         27.2638   10.8735    8.9482 C.3       2 GLC5        0.0000 
     47 CA         28.4890    9.7420    9.6760 C.3       6 GLL5        0.0000 
     48 CA         26.3920   12.4180    8.6440 C.3       4 GLP5        0.0000 
     49 CA         30.0532    9.3325    8.4177 C.3       2 GLC5        0.0000 
     50 CA         31.9710    9.3360    7.5830 C.3       4 GLP5        0.0000 
     51 CA         23.0724    8.5572    8.3528 C.3       2 GLC5        0.0000 
     52 CA         22.2720   10.0920    8.6080 C.3       4 GLP5        0.0000 
     53 CA         20.0209    5.9081   11.3685 C.3       2 GLC5        0.0000 
     54 CA         22.2520    5.6770   10.2760 C.3       6 GLL5        0.0000 
     55 CA         18.2040    6.5280   11.0570 C.3       4 GLP5        0.0000 
     56 CA         18.9840    2.6255   14.5282 C.3       2 GLC5        0.0000 
     57 CA         21.0300    2.5190   13.8980 C.3       6 GLL5        0.0000 
     58 CA         17.0240    3.4260   14.8360 C.3       4 GLP5        0.0000 
@<TRIPOS>BOND
@<TRIPOS>SUBSTRUCTURE
     1 SEC2       27 GROUP        1 X    SEC  0     ROOT SEC X 2
     2 GLC5        1 GROUP        1 X    GLC  0     **** GLC X 6
     3 SEP2       29 GROUP        1 Y    SEP  0     ROOT SEP Y 9
     4 GLP5        3 GROUP        1 Y    GLP  0     **** GLP Y 13
     5 SEL2       28 GROUP        1 Z    SEL  0     ROOT SEL Z 16
     6 GLL5        2 GROUP        1 Z    GLL  0     **** GLL Z 20
@<TRIPOS>SET

