#    Name: 2v0m_KLN_5_ligand
#    Modification time : Tue Mar 25 00:39:01 2014

@<TRIPOS>MOLECULE
2v0m_KLN_5_ligand
   64    68     1     0     0
SMALL
NO_CHARGES


@<TRIPOS>ATOM
      1 N1         26.5730    4.7500    6.9570 N.pl3     1 KLN1498     0.0000 
      2 C1         26.0750    4.9790    5.7200 C.2       1 KLN1498     0.0000 
      3 N2         25.3120    3.9790    5.3860 N.2       1 KLN1498     0.0000 
      4 C2         25.2970    3.0870    6.3870 C.2       1 KLN1498     0.0000 
      5 C3         26.0750    3.5510    7.3800 C.2       1 KLN1498     0.0000 
      6 C4         27.4690    5.6200    7.7170 C.3       1 KLN1498     0.0000 
      7 C5         26.6520    6.7940    8.2540 C.3       1 KLN1498     0.0000 
      8 O1         25.4700    6.3150    8.8920 O.3       1 KLN1498     0.0000 
      9 C6         24.4130    7.2270    8.5430 C.3       1 KLN1498     0.0000 
     10 C7         24.8580    7.9270    7.2410 C.3       1 KLN1498     0.0000 
     11 O2         26.2680    7.6190    7.1430 O.3       1 KLN1498     0.0000 
     12 C8         27.4380    7.6340    9.2310 C.ar      1 KLN1498     0.0000 
     13 C9         27.8080    7.1840   10.5000 C.ar      1 KLN1498     0.0000 
     14 C10        28.5210    8.0140   11.3500 C.ar      1 KLN1498     0.0000 
     15 C11        28.8540    9.2880   10.9310 C.ar      1 KLN1498     0.0000 
     16 C12        28.4890    9.7420    9.6760 C.ar      1 KLN1498     0.0000 
     17 C13        27.7820    8.9160    8.8290 C.ar      1 KLN1498     0.0000 
     18 CL1        29.7320   10.3440   11.9720 Cl        1 KLN1498     0.0000 
     19 C14        23.1100    6.4680    8.3030 C.3       1 KLN1498     0.0000 
     20 O3         22.2550    6.7360    9.4160 O.3       1 KLN1498     0.0000 
     21 C15        22.2520    5.6770   10.2760 C.ar      1 KLN1498     0.0000 
     22 C16        21.7170    5.8560   11.5440 C.ar      1 KLN1498     0.0000 
     23 C17        21.6910    4.8100   12.4500 C.ar      1 KLN1498     0.0000 
     24 C18        22.2070    3.5580   12.0900 C.ar      1 KLN1498     0.0000 
     25 C19        22.7370    3.3820   10.8080 C.ar      1 KLN1498     0.0000 
     26 C20        22.7620    4.4330    9.9110 C.ar      1 KLN1498     0.0000 
     27 N3         22.1770    2.4520   12.9710 N.3       1 KLN1498     0.0000 
     28 C21        23.4330    2.2430   13.7110 C.3       1 KLN1498     0.0000 
     29 C22        23.3740    0.8350   14.3280 C.3       1 KLN1498     0.0000 
     30 N4         22.1450    0.7200   15.1570 N.am      1 KLN1498     0.0000 
     31 C23        20.8580    1.1310   14.5430 C.3       1 KLN1498     0.0000 
     32 C24        21.0300    2.5190   13.8980 C.3       1 KLN1498     0.0000 
     33 C25        22.1780    0.2620   16.4430 C.2       1 KLN1498     0.0000 
     34 O4         21.1540    0.1820   17.0990 O.2       1 KLN1498     0.0000 
     35 C26        23.4770   -0.1610   17.0900 C.3       1 KLN1498     0.0000 
     36 CL2        27.4250    5.5940   11.0760 Cl        1 KLN1498     0.0000 
     37 H          26.2737    5.7740    5.1892 H         1 KLN1498     0.0000 
     38 H          24.8094    2.2506    6.3950 H         1 KLN1498     0.0000 
     39 H          26.2522    3.1354    8.2179 H         1 KLN1498     0.0000 
     40 H          28.2609    6.0123    7.0867 H         1 KLN1498     0.0000 
     41 H          27.9060    5.0919    8.5587 H         1 KLN1498     0.0000 
     42 H          24.2685    7.9685    9.2867 H         1 KLN1498     0.0000 
     43 H          24.6818    8.9760    7.3503 H         1 KLN1498     0.0000 
     44 H          24.2978    7.5105    6.4311 H         1 KLN1498     0.0000 
     45 H          28.7983    7.6843   12.2813 H         1 KLN1498     0.0000 
     46 H          28.7457   10.6937    9.3782 H         1 KLN1498     0.0000 
     47 H          27.5058    9.2490    7.8916 H         1 KLN1498     0.0000 
     48 H          23.3471    5.4121    8.2168 H         1 KLN1498     0.0000 
     49 H          22.6837    6.8192    7.3684 H         1 KLN1498     0.0000 
     50 H          21.3354    6.7782   11.8123 H         1 KLN1498     0.0000 
     51 H          21.2948    4.9439   13.3888 H         1 KLN1498     0.0000 
     52 H          23.1098    2.4593   10.5372 H         1 KLN1498     0.0000 
     53 H          23.1577    4.3012    8.9688 H         1 KLN1498     0.0000 
     54 H          23.5377    2.9618   14.5100 H         1 KLN1498     0.0000 
     55 H          24.2859    2.2909   13.0505 H         1 KLN1498     0.0000 
     56 H          24.2599    0.6880   14.9366 H         1 KLN1498     0.0000 
     57 H          23.3616    0.1067   13.5241 H         1 KLN1498     0.0000 
     58 H          20.0782    1.1962   15.2945 H         1 KLN1498     0.0000 
     59 H          20.5597    0.4289   13.7716 H         1 KLN1498     0.0000 
     60 H          20.1189    2.7652   13.3697 H         1 KLN1498     0.0000 
     61 H          21.2085    3.2407   14.6836 H         1 KLN1498     0.0000 
     62 H          23.9136   -0.9099   16.5915 H         1 KLN1498     0.0000 
     63 H          24.1358    0.5904   17.1262 H         1 KLN1498     0.0000 
     64 H          23.3390   -0.4753   18.0292 H         1 KLN1498     0.0000 
@<TRIPOS>BOND
     1    2    1 1    
     2    5    1 1    
     3    6    1 1    
     4    3    2 2    
     5   37    2 1    
     6    4    3 1    
     7    5    4 2    
     8   38    4 1    
     9   39    5 1    
    10    7    6 1    
    11   40    6 1    
    12   41    6 1    
    13    8    7 1    
    14   11    7 1    
    15   12    7 1    
    16    9    8 1    
    17   10    9 1    
    18   19    9 1    
    19   42    9 1    
    20   11   10 1    
    21   43   10 1    
    22   44   10 1    
    23   13   12 ar   
    24   17   12 ar   
    25   14   13 ar   
    26   36   13 1    
    27   15   14 ar   
    28   45   14 1    
    29   16   15 ar   
    30   18   15 1    
    31   17   16 ar   
    32   46   16 1    
    33   47   17 1    
    34   20   19 1    
    35   48   19 1    
    36   49   19 1    
    37   21   20 1    
    38   22   21 ar   
    39   26   21 ar   
    40   23   22 ar   
    41   50   22 1    
    42   24   23 ar   
    43   51   23 1    
    44   25   24 ar   
    45   27   24 1    
    46   26   25 ar   
    47   52   25 1    
    48   53   26 1    
    49   28   27 1    
    50   32   27 1    
    51   29   28 1    
    52   54   28 1    
    53   55   28 1    
    54   30   29 1    
    55   56   29 1    
    56   57   29 1    
    57   31   30 1    
    58   33   30 am   
    59   32   31 1    
    60   58   31 1    
    61   59   31 1    
    62   60   32 1    
    63   61   32 1    
    64   34   33 2    
    65   35   33 1    
    66   62   35 1    
    67   63   35 1    
    68   64   35 1    
@<TRIPOS>SUBSTRUCTURE
     1 KLN1498     1 GROUP   
@<TRIPOS>SET

