#    Name: 2h7m_641_1_INTS_M
#    Modification time : Tue Mar 25 15:42:31 2014

@<TRIPOS>MOLECULE
2h7m_641_1_INTS_M
   62     0     6     0     0
SMALL
NO_CHARGES


@<TRIPOS>ATOM
      1 CA          2.6945   31.7160   57.6385 C.3       2 GLC5        0.0000 
      2 CA          4.4120   31.1940   58.6100 C.3       6 GLL5        0.0000 
      3 CA          0.9770   32.2380   56.6670 C.3       4 GLP5        0.0000 
      4 CA          9.1365   30.1350   60.0360 C.3       2 GLC5        0.0000 
      5 CA          7.4530   30.9460   59.3080 C.3       6 GLL5        0.0000 
      6 CA         10.8200   29.3240   60.7640 C.3       4 GLP5        0.0000 
      7 CA          8.3835   28.7565   59.4675 C.3       2 GLC5        0.0000 
      8 CA          6.6790   29.7380   58.6230 C.3       6 GLL5        0.0000 
      9 CA         10.0880   27.7750   60.3120 C.3       4 GLP5        0.0000 
     10 CA          8.2150   29.4480   57.0665 C.3       2 GLC5        0.0000 
     11 CA          9.7510   29.1580   55.5100 C.3       4 GLP5        0.0000 
     12 CA         11.4795   35.2595   58.8055 C.3       2 GLC5        0.0000 
     13 CA          9.6270   34.2050   59.3570 C.3       6 GLL5        0.0000 
     14 CA         13.3320   36.3140   58.2540 C.3       4 GLP5        0.0000 
     15 N          10.1765   33.4945   56.9580 N.am      1 SEC2        0.0000 
     16 N           8.8710   33.6450   57.2990 N.am      5 SEL2        0.0000 
     17 N          11.4820   33.3440   56.6170 N.am      3 SEP2        0.0000 
     18 N           8.0260   33.7830   56.3810 N.am      1 SEC2        0.0000 
     19 N           7.1810   33.9210   55.4630 N.am      3 SEP2        0.0000 
     20 CA         15.2310   36.2055   63.5585 C.3       2 GLC5        0.0000 
     21 CA         15.7300   34.5850   63.1860 C.3       6 GLL5        0.0000 
     22 CA         14.7320   37.8260   63.9310 C.3       4 GLP5        0.0000 
     23 CA         11.8480   29.5930   62.4190 C.3       2 GLC5        0.0000 
     24 CA         12.8760   29.8620   64.0740 C.3       6 GLL5        0.0000 
     25 CA         13.3370   27.8750   64.7790 C.3       2 GLC5        0.0000 
     26 CA         13.7980   25.8880   65.4840 C.3       4 GLP5        0.0000 
     27 CA         14.4980   29.5180   64.5690 C.3       2 GLC5        0.0000 
     28 CA         16.1200   29.1740   65.0640 C.3       4 GLP5        0.0000 
     29 CA         14.1100   29.9675   62.3760 C.3       2 GLC5        0.0000 
     30 CA         15.3440   30.0730   60.6780 C.3       4 GLP5        0.0000 
     31 CA          6.0657   33.4950   57.2827 C.3       2 GLC5        0.0000 
     32 CA          6.8670   32.2150   58.6840 C.3       6 GLL5        0.0000 
     33 CA          6.0450   34.6920   55.7600 C.3       4 GLP5        0.0000 
     34 CA          5.6048   28.4325   57.2765 C.3       2 GLC5        0.0000 
     35 CA          5.3300   27.1060   55.8480 C.3       4 GLP5        0.0000 
     36 CA         10.7748   33.2740   59.3468 C.3       2 GLC5        0.0000 
     37 CA         12.1460   32.2770   58.6630 C.3       4 GLP5        0.0000 
     38 CA          8.1000   34.1097   62.4205 C.3       2 GLC5        0.0000 
     39 CA          9.1800   34.3370   60.7040 C.3       6 GLL5        0.0000 
     40 CA          7.7900   34.0620   64.1310 C.3       4 GLP5        0.0000 
     41 CA          7.9639   35.8632   59.5846 C.3       2 GLC5        0.0000 
     42 CA          7.6400   33.9780   60.7160 C.3       6 GLL5        0.0000 
     43 CA          7.4060   37.6020   58.7960 C.3       4 GLP5        0.0000 
     44 CA         10.5190   33.8470   63.8165 C.3       2 GLC5        0.0000 
     45 CA         11.8440   33.4640   62.5360 C.3       6 GLL5        0.0000 
     46 CA          9.1830   34.9050   64.8570 C.3       4 GLP5        0.0000 
     47 CA         11.8470   32.7945   64.7460 C.3       2 GLC5        0.0000 
     48 CA         11.8390   32.8000   66.7160 C.3       4 GLP5        0.0000 
     49 CA         14.1935   35.8865   63.3915 C.3       2 GLC5        0.0000 
     50 CA         14.2700   33.6480   63.1220 C.3       6 GLL5        0.0000 
     51 CA         16.0355   34.5053   61.6850 C.3       2 GLC5        0.0000 
     52 CA         17.0710   34.8940   60.2160 C.3       4 GLP5        0.0000 
     53 CA         15.3010   32.7788   61.5980 C.3       2 GLC5        0.0000 
     54 CA         15.6020   31.4410   60.0420 C.3       4 GLP5        0.0000 
     55 CA         14.8820   30.5270   64.3187 C.3       2 GLC5        0.0000 
     56 CA         14.2640   32.2560   63.6080 C.3       6 GLL5        0.0000 
     57 CA         14.4940   30.9765   62.1257 C.3       2 GLC5        0.0000 
     58 CA         13.5488   33.3133   65.0935 C.3       2 GLC5        0.0000 
     59 CA         13.1380   33.5250   66.9570 C.3       4 GLP5        0.0000 
     60 CA         11.6325   30.5665   62.0207 C.3       2 GLC5        0.0000 
     61 CA         13.0240   31.5040   63.5390 C.3       6 GLL5        0.0000 
     62 CA         12.3945   31.7415   65.2612 C.3       2 GLC5        0.0000 
@<TRIPOS>BOND
@<TRIPOS>SUBSTRUCTURE
     1 SEC2       15 GROUP        1 X    SEC  0     ROOT SEC X 2
     2 GLC5        1 GROUP        1 X    GLC  0     **** GLC X 6
     3 SEP2       17 GROUP        1 Y    SEP  0     ROOT SEP Y 9
     4 GLP5        3 GROUP        1 Y    GLP  0     **** GLP Y 13
     5 SEL2       16 GROUP        1 Z    SEL  0     ROOT SEL Z 16
     6 GLL5        2 GROUP        1 Z    GLL  0     **** GLL Z 20
@<TRIPOS>SET

