#    Name: 2h7m_641_1_ligand
#    Modification time : Tue Mar 25 15:42:31 2014

@<TRIPOS>MOLECULE
2h7m_641_1_ligand
   43    45     1     0     0
SMALL
NO_CHARGES


@<TRIPOS>ATOM
      1 C1          4.4120   31.1940   58.6100 C.3       1 641501      0.0000 
      2 C2          5.3060   32.3810   58.9270 C.3       1 641501      0.0000 
      3 C3          6.8670   32.2150   58.6840 C.3       1 641501      0.0000 
      4 C4          7.4530   30.9460   59.3080 C.3       1 641501      0.0000 
      5 C5          6.6790   29.7380   58.6230 C.3       1 641501      0.0000 
      6 C6          5.0800   29.7800   58.7870 C.3       1 641501      0.0000 
      7 C7          8.6060   33.8010   58.4930 C.2       1 641501      0.0000 
      8 C8          9.6270   34.2050   59.3570 C.3       1 641501      0.0000 
      9 C9          9.1800   34.3370   60.7040 C.3       1 641501      0.0000 
     10 C10         7.6400   33.9780   60.7160 C.3       1 641501      0.0000 
     11 N11         7.3700   33.6280   59.1310 N.am      1 641501      0.0000 
     12 C12         9.7990   33.3500   61.6090 C.2       1 641501      0.0000 
     13 N13        11.0920   33.9120   62.1760 N.am      1 641501      0.0000 
     14 O14         9.3090   32.2760   61.8080 O.2       1 641501      0.0000 
     15 O15         8.8710   33.6450   57.2990 O.2       1 641501      0.0000 
     16 C15        11.8440   33.4640   62.5360 C.ar      1 641501      0.0000 
     17 C20        13.0400   34.2460   62.5820 C.ar      1 641501      0.0000 
     18 C19        14.2700   33.6480   63.1220 C.ar      1 641501      0.0000 
     19 CL2        15.7300   34.5850   63.1860 Cl        1 641501      0.0000 
     20 C18        14.2640   32.2560   63.6080 C.ar      1 641501      0.0000 
     21 C17        13.0240   31.5040   63.5390 C.ar      1 641501      0.0000 
     22 C16        11.8660   32.1140   63.0160 C.ar      1 641501      0.0000 
     23 CL1        12.8760   29.8620   64.0740 Cl        1 641501      0.0000 
     24 H           4.0546   31.2654   57.5669 H         1 641501      0.0000 
     25 H           3.5146   31.2215   59.2541 H         1 641501      0.0000 
     26 H           5.1730   32.6749   59.9934 H         1 641501      0.0000 
     27 H           4.9775   33.2653   58.3341 H         1 641501      0.0000 
     28 H           6.9580   32.1941   57.5847 H         1 641501      0.0000 
     29 H           7.2559   30.9173   60.3492 H         1 641501      0.0000 
     30 H           8.4826   30.8557   59.0719 H         1 641501      0.0000 
     31 H           7.0373   28.8028   59.0565 H         1 641501      0.0000 
     32 H           6.9080   29.7365   57.5560 H         1 641501      0.0000 
     33 H           4.6525   29.0893   58.0497 H         1 641501      0.0000 
     34 H           4.8385   29.3945   59.7853 H         1 641501      0.0000 
     35 H          10.0693   35.1775   59.0149 H         1 641501      0.0000 
     36 H          10.4834   33.4815   59.3185 H         1 641501      0.0000 
     37 H           9.2614   35.3133   61.0873 H         1 641501      0.0000 
     38 H           7.0796   34.8134   60.9523 H         1 641501      0.0000 
     39 H           7.4781   33.1143   61.2596 H         1 641501      0.0000 
     40 H          10.9321   35.0662   62.0581 H         1 641501      0.0000 
     41 H          13.0586   35.1940   62.2539 H         1 641501      0.0000 
     42 H          15.0944   31.8514   63.9723 H         1 641501      0.0000 
     43 H          10.9825   31.5675   62.9724 H         1 641501      0.0000 
@<TRIPOS>BOND
     1    2    1 1    
     2    6    1 1    
     3   24    1 1    
     4   25    1 1    
     5    3    2 1    
     6   26    2 1    
     7   27    2 1    
     8    4    3 1    
     9   11    3 1    
    10   28    3 1    
    11    5    4 1    
    12   29    4 1    
    13   30    4 1    
    14    6    5 1    
    15   31    5 1    
    16   32    5 1    
    17   33    6 1    
    18   34    6 1    
    19    8    7 1    
    20   11    7 am   
    21   15    7 2    
    22    9    8 1    
    23   35    8 1    
    24   36    8 1    
    25   10    9 1    
    26   12    9 1    
    27   37    9 1    
    28   11   10 1    
    29   38   10 1    
    30   39   10 1    
    31   13   12 am   
    32   14   12 2    
    33   16   13 1    
    34   40   13 1    
    35   17   16 ar   
    36   22   16 ar   
    37   18   17 ar   
    38   41   17 1    
    39   19   18 1    
    40   20   18 ar   
    41   21   20 ar   
    42   42   20 1    
    43   22   21 ar   
    44   23   21 1    
    45   43   22 1    
@<TRIPOS>SUBSTRUCTURE
     1 641501      1 GROUP   
@<TRIPOS>SET

