#    Name: 4iwd_1JC_1_INTS_M
#    Modification time : Tue Mar 25 04:47:00 2014

@<TRIPOS>MOLECULE
4iwd_1JC_1_INTS_M
   76     0     9     0     0
SMALL
NO_CHARGES


@<TRIPOS>ATOM
      1 CA         -6.0185   -9.4125  -18.3705 C.3       3 GLC5        0.0000 
      2 CA         -4.6650   -9.2760  -17.0390 C.3       9 GLL5        0.0000 
      3 CA         -7.3720   -9.5490  -19.7020 C.3       6 GLP5        0.0000 
      4 N          -6.6900   -9.7465  -17.4830 N.am      2 SEC2        0.0000 
      5 N          -5.9120   -9.1320  -16.4790 N.am      8 SEL2        0.0000 
      6 N          -7.4680  -10.3610  -18.4870 N.am      5 SEP2        0.0000 
      7 CA         -6.8640   -8.1630  -17.4020 C.3       3 GLC5        0.0000 
      8 CA         -6.0960   -8.2430  -15.4640 C.3       9 GLL5        0.0000 
      9 CA         -7.6320   -8.0830  -19.3400 C.3       6 GLP5        0.0000 
     10 CA         -5.9225   -6.5045  -16.5550 C.3       3 GLC5        0.0000 
     11 CA         -5.7490   -4.7660  -17.6460 C.3       6 GLP5        0.0000 
     12 CA         -5.1335   -5.6700  -15.6395 C.3       3 GLC5        0.0000 
     13 CA         -5.0510   -7.4750  -14.9340 C.3       9 GLL5        0.0000 
     14 CA         -5.2160   -3.8650  -16.3450 C.3       6 GLP5        0.0000 
     15 CA         -7.8485  -10.1875  -16.0425 C.3       3 GLC5        0.0000 
     16 CA         -7.4570   -8.2120  -15.0570 C.3       9 GLL5        0.0000 
     17 CA         -8.2400  -12.1630  -17.0280 C.3       6 GLP5        0.0000 
     18 CA         -8.2335   -8.0535  -16.8925 C.3       3 GLC5        0.0000 
     19 CA         -9.0100   -7.8950  -18.7280 C.3       6 GLP5        0.0000 
     20 CA         -5.5955   -7.0415  -11.9680 C.3       3 GLC5        0.0000 
     21 CA         -6.1640   -5.6980  -13.4680 C.3       9 GLL5        0.0000 
     22 CA         -5.0270   -8.3850  -10.4680 C.3       6 GLP5        0.0000 
     23 CA         -9.2995   -2.0180  -12.5410 C.3       3 GLC5        0.0000 
     24 CA         -8.0220   -3.7610  -12.7060 C.3       9 GLL5        0.0000 
     25 CA        -10.5770   -0.2750  -12.3760 C.3       6 GLP5        0.0000 
     26 CA         -5.6460   -1.8110   -9.8985 C.3       3 GLC5        0.0000 
     27 CA         -6.1270   -2.2150  -11.8610 C.3       9 GLL5        0.0000 
     28 CA         -5.1650   -1.4070   -7.9360 C.3       6 GLP5        0.0000 
     29 CA         -7.6870   -0.9020  -11.9465 C.3       3 GLC5        0.0000 
     30 CA         -9.2470    0.4110  -12.0320 C.3       6 GLP5        0.0000 
     31 O          -5.9555    1.4200  -12.9150 O.2       1 ALC1        0.0000 
     32 O          -5.3610    0.2600  -12.6410 O.2       7 ALL1        0.0000 
     33 O          -6.5500    2.5800  -13.1890 O.2       4 ALP1        0.0000 
     34 CA         -1.6020   -9.3275  -15.3240 C.3       3 GLC5        0.0000 
     35 CA         -2.2150   -8.6270  -17.1880 C.3       9 GLL5        0.0000 
     36 CA         -0.9890  -10.0280  -13.4600 C.3       6 GLP5        0.0000 
     37 CA         -5.2590    3.0780   -7.5125 C.3       3 GLC5        0.0000 
     38 CA         -3.5570    2.8110   -8.6070 C.3       9 GLL5        0.0000 
     39 CA         -6.9610    3.3450   -6.4180 C.3       6 GLP5        0.0000 
     40 CA         -1.1175   -7.2505  -20.2355 C.3       3 GLC5        0.0000 
     41 CA          0.7910   -8.3730  -20.4490 C.3       9 GLL5        0.0000 
     42 CA         -3.0260   -6.1280  -20.0220 C.3       6 GLP5        0.0000 
     43 CA         -4.7190   -6.4322  -16.8540 C.3       3 GLC5        0.0000 
     44 CA         -3.5650   -8.5290  -16.5910 C.3       9 GLL5        0.0000 
     45 CA         -6.4388   -9.1585  -14.0135 C.3       3 GLC5        0.0000 
     46 CA         -7.3040  -10.4580  -12.8280 C.3       6 GLP5        0.0000 
     47 CA         -7.5213   -9.0742  -13.7465 C.3       3 GLC5        0.0000 
     48 CA         -6.0237   -4.8550  -14.9617 C.3       3 GLC5        0.0000 
     49 CA         -7.4990   -5.9920  -13.6890 C.3       9 GLL5        0.0000 
     50 CA         -8.2417   -4.2945  -10.9885 C.3       3 GLC5        0.0000 
     51 CA         -8.4030   -4.9850  -13.2880 C.3       9 GLL5        0.0000 
     52 CA         -8.2710   -4.2160   -8.9800 C.3       6 GLP5        0.0000 
     53 CA         -9.8586   -5.9349  -14.3893 C.3       3 GLC5        0.0000 
     54 CA        -11.6360   -6.0870  -15.1440 C.3       6 GLP5        0.0000 
     55 CA         -9.3251   -6.4714  -12.3682 C.3       3 GLC5        0.0000 
     56 CA        -10.5690   -7.1600  -11.1020 C.3       6 GLP5        0.0000 
     57 CA         -9.1367   -3.5985  -14.5805 C.3       3 GLC5        0.0000 
     58 CA        -10.0610   -2.8240  -16.1640 C.3       6 GLP5        0.0000 
     59 CA         -5.3498   -5.0400  -11.1360 C.3       3 GLC5        0.0000 
     60 CA         -6.6710   -3.4940  -12.4820 C.3       9 GLL5        0.0000 
     61 CA         -4.4690   -6.1030   -9.5950 C.3       6 GLP5        0.0000 
     62 CA         -7.3350   -3.5353  -10.5757 C.3       3 GLC5        0.0000 
     63 CA         -5.7233   -3.9210  -14.5110 C.3       3 GLC5        0.0000 
     64 CA         -2.7313   -7.5132  -18.8336 C.3       3 GLC5        0.0000 
     65 CA         -3.2900    2.1413  -13.1470 C.3       3 GLC5        0.0000 
     66 CA         -3.9460    0.5500  -12.2710 C.3       9 GLL5        0.0000 
     67 CA         -2.6720    3.3390  -14.6750 C.3       6 GLP5        0.0000 
     68 CA         -1.6700    1.2625   -8.4992 C.3       3 GLC5        0.0000 
     69 CA         -0.3120   -0.1760   -7.9560 C.3       6 GLP5        0.0000 
     70 CA         -4.8978    0.2241   -8.8400 C.3       3 GLC5        0.0000 
     71 CA         -3.8700    1.3370  -10.9670 C.3       9 GLL5        0.0000 
     72 CA         -6.3200    2.6830   -8.5278 C.3       3 GLC5        0.0000 
     73 CA         -4.9880    1.5400  -10.1170 C.3       9 GLL5        0.0000 
     74 CA         -7.7300    3.4600   -7.5240 C.3       6 GLP5        0.0000 
     75 CA         -4.1299   -9.4646  -14.5623 C.3       3 GLC5        0.0000 
     76 CA         -3.4910  -10.8570  -13.4380 C.3       6 GLP5        0.0000 
@<TRIPOS>BOND
@<TRIPOS>SUBSTRUCTURE
     1 ALC1       31 GROUP        1 X    ALC  0     ROOT ALC X 1
     2 SEC2        4 GROUP        1 X    SEC  0     **** SEC X 2
     3 GLC5        1 GROUP        1 X    GLC  0     **** GLC X 6
     4 ALP1       33 GROUP        1 Y    ALP  0     ROOT ALP Y 8
     5 SEP2        6 GROUP        1 Y    SEP  0     **** SEP Y 9
     6 GLP5        3 GROUP        1 Y    GLP  0     **** GLP Y 13
     7 ALL1       32 GROUP        1 Z    ALL  0     ROOT ALL Z 15
     8 SEL2        5 GROUP        1 Z    SEL  0     **** SEL Z 16
     9 GLL5        2 GROUP        1 Z    GLL  0     **** GLL Z 20
@<TRIPOS>SET

