#    Name: 4iwd_1JC_1_ligand
#    Modification time : Tue Mar 25 04:47:01 2014

@<TRIPOS>MOLECULE
4iwd_1JC_1_ligand
   66    71     1     0     0
SMALL
NO_CHARGES


@<TRIPOS>ATOM
      1 C          -3.5650   -8.5290  -16.5910 C.ar      1 1JC1401     0.0000 
      2 C1         -4.6650   -9.2760  -17.0390 C.ar      1 1JC1401     0.0000 
      3 N          -5.9120   -9.1320  -16.4790 N.ar      1 1JC1401     0.0000 
      4 C2         -6.0960   -8.2430  -15.4640 C.ar      1 1JC1401     0.0000 
      5 C3         -5.0510   -7.4750  -14.9340 C.ar      1 1JC1401     0.0000 
      6 C4         -3.8130   -7.6680  -15.5330 C.ar      1 1JC1401     0.0000 
      7 C5         -7.4570   -8.2120  -15.0570 C.2       1 1JC1401     0.0000 
      8 C6         -8.0200   -7.1690  -14.2730 C.2       1 1JC1401     0.0000 
      9 C7         -7.4990   -5.9920  -13.6890 C.ar      1 1JC1401     0.0000 
     10 C8         -6.1640   -5.6980  -13.4680 C.ar      1 1JC1401     0.0000 
     11 C9         -5.0640   -6.5170  -13.8250 C.2       1 1JC1401     0.0000 
     12 C10        -8.4030   -4.9850  -13.2880 C.ar      1 1JC1401     0.0000 
     13 C11        -8.0220   -3.7610  -12.7060 C.ar      1 1JC1401     0.0000 
     14 C12        -6.6710   -3.4940  -12.4820 C.ar      1 1JC1401     0.0000 
     15 C13        -5.7900   -4.4600  -12.8720 C.ar      1 1JC1401     0.0000 
     16 C14        -6.1270   -2.2150  -11.8610 C.3       1 1JC1401     0.0000 
     17 S          -5.6840   -1.2620  -13.3020 S.o2      1 1JC1401     0.0000 
     18 N15        -5.3610    0.2600  -12.6410 N.pl3     1 1JC1401     0.0000 
     19 O          -3.9820   -6.3010  -13.1980 O.2       1 1JC1401     0.0000 
     20 O16        -4.3020   -1.8620  -13.8580 O.2       1 1JC1401     0.0000 
     21 O17        -6.9290   -1.1650  -14.2870 O.2       1 1JC1401     0.0000 
     22 C18        -2.2150   -8.6270  -17.1880 C.2       1 1JC1401     0.0000 
     23 C19        -1.9830   -9.2190  -18.4010 C.2       1 1JC1401     0.0000 
     24 N20        -0.6430   -9.1380  -18.6360 N.pl3     1 1JC1401     0.0000 
     25 N21         0.0080   -8.5080  -17.6650 N.2       1 1JC1401     0.0000 
     26 C22        -0.9380   -8.2040  -16.7840 C.2       1 1JC1401     0.0000 
     27 C23        -3.9460    0.5500  -12.2710 C.3       1 1JC1401     0.0000 
     28 C24        -3.8700    1.3370  -10.9670 C.ar      1 1JC1401     0.0000 
     29 N25        -2.6670    1.8440  -10.6350 N.ar      1 1JC1401     0.0000 
     30 C26        -2.4990    2.5910   -9.4780 C.ar      1 1JC1401     0.0000 
     31 C27        -3.5570    2.8110   -8.6070 C.ar      1 1JC1401     0.0000 
     32 C28        -4.8320    2.2720   -8.9460 C.ar      1 1JC1401     0.0000 
     33 C29        -4.9880    1.5400  -10.1170 C.ar      1 1JC1401     0.0000 
     34 C30         0.0800   -9.6380  -19.8260 C.3       1 1JC1401     0.0000 
     35 C31         1.1180  -10.6950  -19.3630 C.3       1 1JC1401     0.0000 
     36 C32         2.2010  -11.0330  -20.4050 C.3       1 1JC1401     0.0000 
     37 N33         2.7680   -9.8420  -21.1120 N.4       1 1JC1401     0.0000 
     38 C34         1.8690   -8.6880  -21.4790 C.3       1 1JC1401     0.0000 
     39 C35         0.7910   -8.3730  -20.4490 C.3       1 1JC1401     0.0000 
     40 H          -4.5204   -9.9533  -17.8159 H         1 1JC1401     0.0000 
     41 H          -2.9904   -7.1106  -15.1489 H         1 1JC1401     0.0000 
     42 H          -8.0777   -8.9989  -15.3501 H         1 1JC1401     0.0000 
     43 H          -9.1149   -7.3131  -14.0764 H         1 1JC1401     0.0000 
     44 H          -9.4308   -5.1624  -13.4345 H         1 1JC1401     0.0000 
     45 H          -8.7357   -3.0752  -12.4509 H         1 1JC1401     0.0000 
     46 H          -4.7524   -4.3010  -12.7321 H         1 1JC1401     0.0000 
     47 H          -5.2250   -2.3407  -11.3755 H         1 1JC1401     0.0000 
     48 H          -6.8496   -1.6341  -11.4077 H         1 1JC1401     0.0000 
     49 H          -6.1017    0.8336  -12.5474 H         1 1JC1401     0.0000 
     50 H          -2.6363   -9.6114  -18.9691 H         1 1JC1401     0.0000 
     51 H          -0.8000   -7.7324  -15.9262 H         1 1JC1401     0.0000 
     52 H          -3.4631    1.1328  -13.0614 H         1 1JC1401     0.0000 
     53 H          -3.3904   -0.3850  -12.1496 H         1 1JC1401     0.0000 
     54 H          -1.5678    2.9916   -9.2602 H         1 1JC1401     0.0000 
     55 H          -3.4440    3.3368   -7.7515 H         1 1JC1401     0.0000 
     56 H          -5.6225    2.4326   -8.3171 H         1 1JC1401     0.0000 
     57 H          -5.8929    1.1466  -10.3749 H         1 1JC1401     0.0000 
     58 H          -0.5739  -10.0429  -20.5301 H         1 1JC1401     0.0000 
     59 H           0.5801  -11.6181  -19.0942 H         1 1JC1401     0.0000 
     60 H           1.6062  -10.3268  -18.4466 H         1 1JC1401     0.0000 
     61 H           1.7626  -11.7322  -21.1412 H         1 1JC1401     0.0000 
     62 H           3.0106  -11.5848  -19.8920 H         1 1JC1401     0.0000 
     63 H           1.3795   -8.9010  -22.4493 H         1 1JC1401     0.0000 
     64 H           2.4849   -7.7809  -21.6349 H         1 1JC1401     0.0000 
     65 H           1.2269   -7.7945  -19.6195 H         1 1JC1401     0.0000 
     66 H           0.0108   -7.7453  -20.9073 H         1 1JC1401     0.0000 
@<TRIPOS>BOND
     1    2    1 ar   
     2    6    1 ar   
     3   22    1 1    
     4    3    2 ar   
     5   40    2 1    
     6    4    3 ar   
     7    5    4 ar   
     8    7    4 1    
     9    6    5 ar   
    10   11    5 1    
    11   41    6 1    
    12    8    7 2    
    13   42    7 1    
    14    9    8 1    
    15   43    8 1    
    16   10    9 ar   
    17   12    9 ar   
    18   11   10 1    
    19   15   10 ar   
    20   19   11 2    
    21   13   12 ar   
    22   44   12 1    
    23   14   13 ar   
    24   45   13 1    
    25   15   14 ar   
    26   16   14 1    
    27   46   15 1    
    28   17   16 1    
    29   47   16 1    
    30   48   16 1    
    31   18   17 1    
    32   20   17 2    
    33   21   17 2    
    34   27   18 1    
    35   49   18 1    
    36   23   22 2    
    37   26   22 1    
    38   24   23 1    
    39   50   23 1    
    40   25   24 1    
    41   34   24 1    
    42   26   25 2    
    43   51   26 1    
    44   28   27 1    
    45   52   27 1    
    46   53   27 1    
    47   29   28 ar   
    48   33   28 ar   
    49   30   29 ar   
    50   31   30 ar   
    51   54   30 1    
    52   32   31 ar   
    53   55   31 1    
    54   33   32 ar   
    55   56   32 1    
    56   57   33 1    
    57   35   34 1    
    58   39   34 1    
    59   58   34 1    
    60   36   35 1    
    61   59   35 1    
    62   60   35 1    
    63   37   36 1    
    64   61   36 1    
    65   62   36 1    
    66   38   37 1    
    67   39   38 1    
    68   63   38 1    
    69   64   38 1    
    70   65   39 1    
    71   66   39 1    
@<TRIPOS>SUBSTRUCTURE
     1 1JC1401     1 GROUP   
@<TRIPOS>SET

