#    Name: 2y02_WHJ_6_INTS_M
#    Modification time : Tue Mar 25 07:15:44 2014

@<TRIPOS>MOLECULE
2y02_WHJ_6_INTS_M
   67     0    12     0     0
SMALL
NO_CHARGES


@<TRIPOS>ATOM
      1 N           5.7040   -6.3000   16.3985 N.am      2 SEC2        0.0000 
      2 N           5.3030   -7.6790   15.9130 N.am     10 SEL2        0.0000 
      3 N           6.1050   -4.9210   16.8840 N.am      6 SEP2        0.0000 
      4 O           3.8100   -8.3775   17.6895 O.2       1 ALC1        0.0000 
      5 O           5.2110   -8.5760   17.9680 O.2       9 ALL1        0.0000 
      6 O           2.4090   -8.1790   17.4110 O.2       5 ALP1        0.0000 
      7 CA          5.5975  -11.3630   19.3860 C.3       4 GLC5        0.0000 
      8 CA          5.8420   -9.1680   18.9870 C.3      12 GLL5        0.0000 
      9 CA          5.3530  -13.5580   19.7850 C.3       8 GLP5        0.0000 
     10 CA          4.2220  -11.2730   20.7270 C.3       4 GLC5        0.0000 
     11 CA          5.1120   -9.5560   20.2080 C.3      12 GLL5        0.0000 
     12 CA          3.3320  -12.9900   21.2460 C.3       8 GLP5        0.0000 
     13 O           3.0930   -8.8285   21.4670 O.2       1 ALC1        0.0000 
     14 O           3.7930   -9.2770   20.2660 O.2       9 ALL1        0.0000 
     15 O           2.3930   -8.3800   22.6680 O.2       5 ALP1        0.0000 
     16 CA          9.9030   -8.6275   19.3800 C.3       4 GLC5        0.0000 
     17 CA          9.4130  -10.4400   20.0860 C.3      12 GLL5        0.0000 
     18 CA         10.3930   -6.8150   18.6740 C.3       8 GLP5        0.0000 
     19 N          11.3825  -10.2040   21.5030 N.am      2 SEC2        0.0000 
     20 N           9.8390  -10.9090   21.3740 N.am     10 SEL2        0.0000 
     21 N          12.9260   -9.4990   21.6320 N.am      6 SEP2        0.0000 
     22 O           9.7890  -12.0285   21.8565 O.2       1 ALC1        0.0000 
     23 O           9.8390  -10.9090   21.3740 O.2       9 ALL1        0.0000 
     24 O           9.7390  -13.1480   22.3390 O.2       5 ALP1        0.0000 
     25 O          10.5005  -12.4390   21.1390 O.2       1 ALC1        0.0000 
     26 O          11.1620  -13.9690   20.9040 O.2       5 ALP1        0.0000 
     27 CA          8.8690  -11.7645   17.0660 C.3       4 GLC5        0.0000 
     28 CA          9.6830  -11.5750   19.1010 C.3      12 GLL5        0.0000 
     29 CA          8.0550  -11.9540   15.0310 C.3       8 GLP5        0.0000 
     30 OD1        10.5005  -12.4390   21.1390 O.co2     3 ASC3        0.0000 
     31 OD1        11.0960  -11.9440   19.0590 O.co2    11 ASL3        0.0000 
     32 OD1         9.7390  -13.1480   22.3390 O.co2     7 ASP3        0.0000 
     33 OD1        11.1290  -12.9565   19.9815 O.co2     3 ASC3        0.0000 
     34 OD1        11.1620  -13.9690   20.9040 O.co2     7 ASP3        0.0000 
     35 CA         12.7855  -15.3275   17.7280 C.3       4 GLC5        0.0000 
     36 CA         10.9990  -14.0390   17.6890 C.3      12 GLL5        0.0000 
     37 CA         14.5720  -16.6160   17.7670 C.3       8 GLP5        0.0000 
     38 CA          9.2180  -15.1210   17.1415 C.3       4 GLC5        0.0000 
     39 CA          7.4370  -16.2030   16.5940 C.3       8 GLP5        0.0000 
     40 CA         10.2650  -14.7355   19.6630 C.3       4 GLC5        0.0000 
     41 CA          9.5310  -15.4320   21.6370 C.3       8 GLP5        0.0000 
     42 CA         13.8685  -14.7295   17.9150 C.3       4 GLC5        0.0000 
     43 CA         13.1650  -12.8430   18.0630 C.3      12 GLL5        0.0000 
     44 CA         16.3100   -9.8310   15.1600 C.3       4 GLC5        0.0000 
     45 CA         14.5850  -11.0180   15.0420 C.3      12 GLL5        0.0000 
     46 CA         18.0350   -8.6440   15.2780 C.3       8 GLP5        0.0000 
     47 CA         15.4745  -12.8565   11.2500 C.3       4 GLC5        0.0000 
     48 CA         16.9070  -12.1310   12.7560 C.3      12 GLL5        0.0000 
     49 CA         14.0420  -13.5820    9.7440 C.3       8 GLP5        0.0000 
     50 CA         17.4710  -10.3875   14.0170 C.3       4 GLC5        0.0000 
     51 CA         16.1550  -14.9625   14.8225 C.3       4 GLC5        0.0000 
     52 CA         14.7240  -13.4030   14.6540 C.3      12 GLL5        0.0000 
     53 CA         17.5860  -16.5220   14.9910 C.3       8 GLP5        0.0000 
     54 CA          6.3975  -10.4402   23.0663 C.3       4 GLC5        0.0000 
     55 CA          5.7790  -10.1710   21.2690 C.3      12 GLL5        0.0000 
     56 CA          6.3330  -10.5770   24.8960 C.3       8 GLP5        0.0000 
     57 CA          7.1600  -10.3655   16.3092 C.3       4 GLC5        0.0000 
     58 CA          7.9790   -9.0830   17.7590 C.3      12 GLL5        0.0000 
     59 CA          6.6980  -11.9530   15.3740 C.3       8 GLP5        0.0000 
     60 CA          9.0075   -7.7965   17.9592 C.3       4 GLC5        0.0000 
     61 CA          7.2650   -8.4730   16.7300 C.3      12 GLL5        0.0000 
     62 CA          6.2800  -11.8829   20.2249 C.3       4 GLC5        0.0000 
     63 CA          7.9520  -10.1120   20.0930 C.3      12 GLL5        0.0000 
     64 CA         10.6840  -13.1628   15.8332 C.3       4 GLC5        0.0000 
     65 CA         10.0420  -12.9700   13.8640 C.3       8 GLP5        0.0000 
     66 CA         14.1785  -13.5818   12.6837 C.3       4 GLC5        0.0000 
     67 CA         13.5230  -14.4160   10.9300 C.3       8 GLP5        0.0000 
@<TRIPOS>BOND
@<TRIPOS>SUBSTRUCTURE
     1 ALC1        4 GROUP        1 X    ALC  0     ROOT ALC X 1
     2 SEC2        1 GROUP        1 X    SEC  0     **** SEC X 2
     3 ASC3       30 GROUP        1 X    ASC  0     **** ASC X 3
     4 GLC5        7 GROUP        1 X    GLC  0     **** GLC X 6
     5 ALP1        6 GROUP        1 Y    ALP  0     ROOT ALP Y 8
     6 SEP2        3 GROUP        1 Y    SEP  0     **** SEP Y 9
     7 ASP3       32 GROUP        1 Y    ASP  0     **** ASP Y 10
     8 GLP5        9 GROUP        1 Y    GLP  0     **** GLP Y 13
     9 ALL1        5 GROUP        1 Z    ALL  0     ROOT ALL Z 15
    10 SEL2        2 GROUP        1 Z    SEL  0     **** SEL Z 16
    11 ASL3       31 GROUP        1 Z    ASL  0     **** ASL Z 17
    12 GLL5        8 GROUP        1 Z    GLL  0     **** GLL Z 20
@<TRIPOS>SET

