#    Name: 2y02_WHJ_6_ligand
#    Modification time : Tue Mar 25 07:15:44 2014

@<TRIPOS>MOLECULE
2y02_WHJ_6_ligand
   50    52     1     0     0
SMALL
NO_CHARGES


@<TRIPOS>ATOM
      1 O1          5.3030   -7.6790   15.9130 O.2       1 WHJ601      0.0000 
      2 C9          5.8960   -8.2320   16.8590 C.2       1 WHJ601      0.0000 
      3 N1          5.2110   -8.5760   17.9680 N.am      1 WHJ601      0.0000 
      4 C7          5.8420   -9.1680   18.9870 C.ar      1 WHJ601      0.0000 
      5 C6          5.1120   -9.5560   20.2080 C.ar      1 WHJ601      0.0000 
      6 O2          3.7930   -9.2770   20.2660 O.3       1 WHJ601      0.0000 
      7 C5          5.7790  -10.1710   21.2690 C.ar      1 WHJ601      0.0000 
      8 C4          7.1450  -10.4360   21.2040 C.ar      1 WHJ601      0.0000 
      9 C8          7.2650   -8.4730   16.7300 C.2       1 WHJ601      0.0000 
     10 C1          7.9790   -9.0830   17.7590 C.2       1 WHJ601      0.0000 
     11 C2          7.3020   -9.4440   18.9180 C.ar      1 WHJ601      0.0000 
     12 C3          7.9520  -10.1120   20.0930 C.ar      1 WHJ601      0.0000 
     13 C10         9.4130  -10.4400   20.0860 C.3       1 WHJ601      0.0000 
     14 O4          9.8390  -10.9090   21.3740 O.3       1 WHJ601      0.0000 
     15 C11         9.6830  -11.5750   19.1010 C.3       1 WHJ601      0.0000 
     16 N2         11.0960  -11.9440   19.0590 N.4       1 WHJ601      0.0000 
     17 C12        11.6530  -12.6720   17.9160 C.3       1 WHJ601      0.0000 
     18 C13        10.9990  -14.0390   17.6890 C.3       1 WHJ601      0.0000 
     19 C14        13.1650  -12.8430   18.0630 C.3       1 WHJ601      0.0000 
     20 C15        13.7980  -12.5690   16.7190 C.ar      1 WHJ601      0.0000 
     21 C20        14.0180  -11.2550   16.2900 C.ar      1 WHJ601      0.0000 
     22 C19        14.5850  -11.0180   15.0420 C.ar      1 WHJ601      0.0000 
     23 C18        14.9440  -12.0920   14.2210 C.ar      1 WHJ601      0.0000 
     24 O3         15.5180  -11.8590   12.9870 O.3       1 WHJ601      0.0000 
     25 C21        16.9070  -12.1310   12.7560 C.3       1 WHJ601      0.0000 
     26 C17        14.7240  -13.4030   14.6540 C.ar      1 WHJ601      0.0000 
     27 C16        14.1520  -13.6390   15.9030 C.ar      1 WHJ601      0.0000 
     28 H           4.1872   -8.3777   18.0261 H         1 WHJ601      0.0000 
     29 H           5.2484  -10.4340   22.1177 H         1 WHJ601      0.0000 
     30 H           7.6067  -10.9028   22.0240 H         1 WHJ601      0.0000 
     31 H           7.7516   -8.1961   15.8635 H         1 WHJ601      0.0000 
     32 H           8.9776   -9.2604   17.6625 H         1 WHJ601      0.0000 
     33 H           9.9801   -9.5902   19.7751 H         1 WHJ601      0.0000 
     34 H           9.3347  -11.2539   18.1057 H         1 WHJ601      0.0000 
     35 H           9.0638  -12.4379   19.3959 H         1 WHJ601      0.0000 
     36 H          11.4938  -12.0822   16.9946 H         1 WHJ601      0.0000 
     37 H          13.3798  -13.8539   18.3719 H         1 WHJ601      0.0000 
     38 H          13.5327  -12.1396   18.7934 H         1 WHJ601      0.0000 
     39 H          13.7600  -10.4698   16.8983 H         1 WHJ601      0.0000 
     40 H          14.7415  -10.0553   14.7202 H         1 WHJ601      0.0000 
     41 H          14.9847  -14.1915   14.0500 H         1 WHJ601      0.0000 
     42 H          13.9923  -14.6032   16.2200 H         1 WHJ601      0.0000 
     43 H          11.3941  -14.5138   16.9026 H         1 WHJ601      0.0000 
     44 H          11.1103  -14.6400   18.4805 H         1 WHJ601      0.0000 
     45 H          10.0170  -13.9572   17.5189 H         1 WHJ601      0.0000 
     46 H          17.4958  -11.5992   13.3646 H         1 WHJ601      0.0000 
     47 H          17.1264  -13.0952   12.9048 H         1 WHJ601      0.0000 
     48 H          17.1779  -11.9099   11.8191 H         1 WHJ601      0.0000 
     49 H           3.6196   -9.0446   21.2230 H         1 WHJ601      0.0000 
     50 H           9.6580  -11.8924   21.3640 H         1 WHJ601      0.0000 
@<TRIPOS>BOND
     1    2    1 2    
     2    3    2 am   
     3    9    2 1    
     4    4    3 1    
     5   28    3 1    
     6    5    4 ar   
     7   11    4 ar   
     8    6    5 1    
     9    7    5 ar   
    10   49    6 1    
    11    8    7 ar   
    12   29    7 1    
    13   12    8 ar   
    14   30    8 1    
    15   10    9 2    
    16   31    9 1    
    17   11   10 1    
    18   32   10 1    
    19   12   11 ar   
    20   13   12 1    
    21   14   13 1    
    22   15   13 1    
    23   33   13 1    
    24   50   14 1    
    25   16   15 1    
    26   34   15 1    
    27   35   15 1    
    28   17   16 1    
    29   18   17 1    
    30   19   17 1    
    31   36   17 1    
    32   43   18 1    
    33   44   18 1    
    34   45   18 1    
    35   20   19 1    
    36   37   19 1    
    37   38   19 1    
    38   21   20 ar   
    39   27   20 ar   
    40   22   21 ar   
    41   39   21 1    
    42   23   22 ar   
    43   40   22 1    
    44   24   23 1    
    45   26   23 ar   
    46   25   24 1    
    47   46   25 1    
    48   47   25 1    
    49   48   25 1    
    50   27   26 ar   
    51   41   26 1    
    52   42   27 1    
@<TRIPOS>SUBSTRUCTURE
     1 WHJ601      1 GROUP   
@<TRIPOS>SET

