#    Name: 1vp5_NAP_2_INTS_M
#    Modification time : Tue Mar 25 08:10:44 2014

@<TRIPOS>MOLECULE
1vp5_NAP_2_INTS_M
  103     0    12     0     0
SMALL
NO_CHARGES


@<TRIPOS>ATOM
      1 N          66.9665   19.0875  -33.0710 N.am      2 SEC2        0.0000 
      2 N          68.0980   18.2480  -33.7280 N.am     10 SEL2        0.0000 
      3 N          65.8350   19.9270  -32.4140 N.am      6 SEP2        0.0000 
      4 N          70.2365   15.5775  -33.6085 N.am      2 SEC2        0.0000 
      5 N          69.7920   16.5210  -34.5020 N.am     10 SEL2        0.0000 
      6 N          70.6810   14.6340  -32.7150 N.am      6 SEP2        0.0000 
      7 N          70.1155   15.6905  -35.7720 N.am      2 SEC2        0.0000 
      8 N          70.4390   14.8600  -37.0420 N.am      6 SEP2        0.0000 
      9 CA         66.5735   16.0295  -34.1760 C.3       4 GLC5        0.0000 
     10 CA         66.3240   17.2240  -36.0300 C.3      12 GLL5        0.0000 
     11 CA         66.8230   14.8350  -32.3220 C.3       8 GLP5        0.0000 
     12 CA         65.1730   18.9580  -36.2720 C.3       4 GLC5        0.0000 
     13 CA         64.0220   20.6920  -36.5140 C.3       8 GLP5        0.0000 
     14 CA         64.1005   18.6340  -36.8940 C.3       4 GLC5        0.0000 
     15 CA         64.1790   16.5760  -37.2740 C.3      12 GLL5        0.0000 
     16 CA         64.6845   13.2680  -34.8435 C.3       4 GLC5        0.0000 
     17 CA         63.6760   14.9630  -35.6420 C.3      12 GLL5        0.0000 
     18 CA         65.6930   11.5730  -34.0450 C.3       8 GLP5        0.0000 
     19 N          62.8745   16.0335  -30.7925 N.am      2 SEC2        0.0000 
     20 N          62.7020   15.2190  -32.1700 N.am     10 SEL2        0.0000 
     21 N          63.0470   16.8480  -29.4150 N.am      6 SEP2        0.0000 
     22 CA         63.1430   12.0855  -30.3970 C.3       4 GLC5        0.0000 
     23 CA         61.9230   12.9420  -31.5890 C.3      12 GLL5        0.0000 
     24 CA         64.3630   11.2290  -29.2050 C.3       8 GLP5        0.0000 
     25 O          61.3760   12.1090  -29.3065 O.2       1 ALC1        0.0000 
     26 O          61.9620   13.2010  -30.2890 O.2       9 ALL1        0.0000 
     27 O          60.7900   11.0170  -28.3240 O.2       5 ALP1        0.0000 
     28 O          62.3370   14.0235  -29.3585 O.2       1 ALC1        0.0000 
     29 O          62.7120   14.8460  -28.4280 O.2       5 ALP1        0.0000 
     30 CA         60.4785   12.9385  -33.2670 C.3       4 GLC5        0.0000 
     31 CA         62.0520   11.3730  -33.4170 C.3      12 GLL5        0.0000 
     32 CA         58.9050   14.5040  -33.1170 C.3       8 GLP5        0.0000 
     33 N          70.4450   19.8535  -38.5230 N.am      2 SEC2        0.0000 
     34 N          70.2420   20.1660  -37.3020 N.am     10 SEL2        0.0000 
     35 N          70.6480   19.5410  -39.7440 N.am      6 SEP2        0.0000 
     36 N          71.5650   19.7910  -34.3330 N.am      2 SEC2        0.0000 
     37 N          70.2410   20.3330  -34.8000 N.am     10 SEL2        0.0000 
     38 N          72.8890   19.2490  -33.8660 N.am      6 SEP2        0.0000 
     39 CA         71.1345   19.4615  -34.0760 C.3       4 GLC5        0.0000 
     40 CA         69.6580   20.9770  -33.6670 C.3      12 GLL5        0.0000 
     41 CA         72.6110   17.9460  -34.4850 C.3       8 GLP5        0.0000 
     42 CA         70.4640   19.5550  -32.7565 C.3       4 GLC5        0.0000 
     43 CA         71.2700   18.1330  -31.8460 C.3       8 GLP5        0.0000 
     44 CA         68.4145   20.1740  -32.0670 C.3       4 GLC5        0.0000 
     45 CA         67.1710   19.3710  -30.4670 C.3       8 GLP5        0.0000 
     46 CA         67.5520   21.0915  -34.0595 C.3       4 GLC5        0.0000 
     47 CA         65.4460   21.2060  -34.4520 C.3       8 GLP5        0.0000 
     48 CA         70.7905   23.4325  -32.2755 C.3       4 GLC5        0.0000 
     49 CA         69.8910   22.4910  -33.7570 C.3      12 GLL5        0.0000 
     50 CA         71.6900   24.3740  -30.7940 C.3       8 GLP5        0.0000 
     51 CA         67.3815   22.1970  -34.7150 C.3       4 GLC5        0.0000 
     52 CA         69.3170   23.1880  -34.9780 C.3      12 GLL5        0.0000 
     53 N          67.3410   24.4265  -35.9430 N.am      2 SEC2        0.0000 
     54 N          67.9160   23.3900  -34.9710 N.am     10 SEL2        0.0000 
     55 N          66.7660   25.4630  -36.9150 N.am      6 SEP2        0.0000 
     56 CA         69.9925   26.2745  -35.8065 C.3       4 GLC5        0.0000 
     57 CA         70.1480   24.4630  -34.9380 C.3      12 GLL5        0.0000 
     58 CA         69.8370   28.0860  -36.6750 C.3       8 GLP5        0.0000 
     59 O          70.3225   26.3080  -33.3605 O.2       1 ALC1        0.0000 
     60 O          69.5660   25.3400  -33.9730 O.2       9 ALL1        0.0000 
     61 O          71.0790   27.2760  -32.7480 O.2       5 ALP1        0.0000 
     62 CA         73.0045   22.9675  -34.0305 C.3       4 GLC5        0.0000 
     63 CA         71.5610   23.9610  -34.5600 C.3      12 GLL5        0.0000 
     64 CA         74.4480   21.9740  -33.5010 C.3       8 GLP5        0.0000 
     65 N          78.2175   25.2575  -37.4105 N.am      2 SEC2        0.0000 
     66 N          76.8580   25.0690  -37.5750 N.am     10 SEL2        0.0000 
     67 N          79.5770   25.4460  -37.2460 N.am      6 SEP2        0.0000 
     68 O          77.3300   26.1520  -34.7770 O.2       1 ALC1        0.0000 
     69 O          76.0800   25.7100  -35.3840 O.2       9 ALL1        0.0000 
     70 O          78.5800   26.5940  -34.1700 O.2       5 ALP1        0.0000 
     71 O          75.3720   25.6840  -34.1500 O.2       1 ALC1        0.0000 
     72 O          74.6640   25.6580  -32.9160 O.2       5 ALP1        0.0000 
     73 CA         70.4325   23.6870  -37.4720 C.3       4 GLC5        0.0000 
     74 CA         72.2450   22.8540  -36.7800 C.3      12 GLL5        0.0000 
     75 CA         68.6200   24.5200  -38.1640 C.3       8 GLP5        0.0000 
     76 CA         73.3465   22.4140  -35.1405 C.3       4 GLC5        0.0000 
     77 NZ         61.8070   19.2740  -37.6645 N.4       3 LYC4        0.0000 
     78 NZ         61.0390   18.4510  -36.8990 N.4      11 LYL4        0.0000 
     79 NZ         62.5750   20.0970  -38.4300 N.4       7 LYP4        0.0000 
     80 N          61.8070   19.2740  -37.6645 N.am      2 SEC2        0.0000 
     81 N          61.0390   18.4510  -36.8990 N.am     10 SEL2        0.0000 
     82 N          62.5750   20.0970  -38.4300 N.am      6 SEP2        0.0000 
     83 N          60.2200   19.3730  -35.9995 N.am      2 SEC2        0.0000 
     84 N          59.4010   20.2950  -35.1000 N.am      6 SEP2        0.0000 
     85 NZ         59.8450   15.1275  -35.6510 N.4       3 LYC4        0.0000 
     86 NZ         59.8330   16.6060  -35.6530 N.4      11 LYL4        0.0000 
     87 NZ         59.0590   12.8590  -34.9440 N.4       7 LYP4        0.0000 
     88 N          59.6935   17.1905  -34.5195 N.am      2 SEC2        0.0000 
     89 N          59.8330   16.6060  -35.6530 N.am     10 SEL2        0.0000 
     90 N          59.5540   17.7750  -33.3860 N.am      6 SEP2        0.0000 
     91 N          59.8450   15.1275  -35.6510 N.am      2 SEC2        0.0000 
     92 N          59.8570   13.6490  -35.6490 N.am      6 SEP2        0.0000 
     93 CA         67.6060   15.9025  -37.1463 C.3       4 GLC5        0.0000 
     94 CA         65.4700   16.0880  -36.6270 C.3      12 GLL5        0.0000 
     95 CA         69.3150   15.1490  -37.9640 C.3       8 GLP5        0.0000 
     96 CA         60.6816   14.0136  -32.9924 C.3       4 GLC5        0.0000 
     97 CA         62.4380   13.9210  -32.4140 C.3      12 GLL5        0.0000 
     98 CA         69.1763   24.1728  -36.5610 C.3       4 GLC5        0.0000 
     99 CA         68.3235   24.1666  -33.4254 C.3       4 GLC5        0.0000 
    100 CA         66.7710   24.6820  -32.1980 C.3       8 GLP5        0.0000 
    101 CA         71.2722   24.2930  -32.7715 C.3       4 GLC5        0.0000 
    102 CA         74.3063   23.1617  -34.8468 C.3       4 GLC5        0.0000 
    103 CA         73.6880   24.4240  -35.6800 C.3      12 GLL5        0.0000 
@<TRIPOS>BOND
@<TRIPOS>SUBSTRUCTURE
     1 ALC1       25 GROUP        1 X    ALC  0     ROOT ALC X 1
     2 SEC2        1 GROUP        1 X    SEC  0     **** SEC X 2
     3 LYC4       77 GROUP        1 X    LYC  0     **** LYC X 4
     4 GLC5        9 GROUP        1 X    GLC  0     **** GLC X 6
     5 ALP1       27 GROUP        1 Y    ALP  0     ROOT ALP Y 8
     6 SEP2        3 GROUP        1 Y    SEP  0     **** SEP Y 9
     7 LYP4       79 GROUP        1 Y    LYP  0     **** LYP Y 11
     8 GLP5       11 GROUP        1 Y    GLP  0     **** GLP Y 13
     9 ALL1       26 GROUP        1 Z    ALL  0     ROOT ALL Z 15
    10 SEL2        2 GROUP        1 Z    SEL  0     **** SEL Z 16
    11 LYL4       78 GROUP        1 Z    LYL  0     **** LYL Z 18
    12 GLL5       10 GROUP        1 Z    GLL  0     **** GLL Z 20
@<TRIPOS>SET

