#    Name: 1vp5_NAP_2_ligand
#    Modification time : Tue Mar 25 08:10:44 2014

@<TRIPOS>MOLECULE
1vp5_NAP_2_ligand
   73    77     1     0     0
SMALL
NO_CHARGES


@<TRIPOS>ATOM
      1 PA         68.7180   17.4700  -34.8320 P.3       1 NAP300      0.0000 
      2 O1A        68.0980   18.2480  -33.7280 O.co2     1 NAP300      0.0000 
      3 O2A        69.7920   16.5210  -34.5020 O.co2     1 NAP300      0.0000 
      4 O5B        67.4910   16.6300  -35.4930 O.3       1 NAP300      0.0000 
      5 C5B        66.3240   17.2240  -36.0300 C.3       1 NAP300      0.0000 
      6 C4B        65.4700   16.0880  -36.6270 C.3       1 NAP300      0.0000 
      7 O4B        65.0960   15.1180  -35.6540 O.3       1 NAP300      0.0000 
      8 C3B        64.1790   16.5760  -37.2740 C.3       1 NAP300      0.0000 
      9 O3B        63.9770   15.9620  -38.5300 O.3       1 NAP300      0.0000 
     10 C2B        63.1050   16.1980  -36.2700 C.3       1 NAP300      0.0000 
     11 O2B        61.8460   15.9270  -36.8210 O.3       1 NAP300      0.0000 
     12 C1B        63.6760   14.9630  -35.6420 C.3       1 NAP300      0.0000 
     13 N9A        63.1880   14.7910  -34.2650 N.pl3     1 NAP300      0.0000 
     14 C8A        63.1710   15.7610  -33.2890 C.2       1 NAP300      0.0000 
     15 N7A        62.7020   15.2190  -32.1700 N.2       1 NAP300      0.0000 
     16 C5A        62.4380   13.9210  -32.4140 C.ar      1 NAP300      0.0000 
     17 C6A        61.9230   12.9420  -31.5890 C.ar      1 NAP300      0.0000 
     18 N6A        61.9620   13.2010  -30.2890 N.pl3     1 NAP300      0.0000 
     19 N1A        61.7300   11.6590  -32.0920 N.ar      1 NAP300      0.0000 
     20 C2A        62.0520   11.3730  -33.4170 C.ar      1 NAP300      0.0000 
     21 N3A        62.5450   12.3560  -34.2530 N.ar      1 NAP300      0.0000 
     22 C4A        62.7360   13.6150  -33.7340 C.ar      1 NAP300      0.0000 
     23 O3         69.2330   18.3940  -36.0310 O.3       1 NAP300      0.0000 
     24 PN         69.3610   20.0140  -36.1410 P.3       1 NAP300      0.0000 
     25 O1N        68.0420   20.7180  -36.1680 O.co2     1 NAP300      0.0000 
     26 O2N        70.2420   20.1660  -37.3020 O.co2     1 NAP300      0.0000 
     27 O5D        70.2410   20.3330  -34.8000 O.3       1 NAP300      0.0000 
     28 C5D        69.6580   20.9770  -33.6670 C.3       1 NAP300      0.0000 
     29 C4D        69.8910   22.4910  -33.7570 C.3       1 NAP300      0.0000 
     30 O4D        71.3070   22.7760  -33.8270 O.3       1 NAP300      0.0000 
     31 C3D        69.3170   23.1880  -34.9780 C.3       1 NAP300      0.0000 
     32 O3D        67.9160   23.3900  -34.9710 O.3       1 NAP300      0.0000 
     33 C2D        70.1480   24.4630  -34.9380 C.3       1 NAP300      0.0000 
     34 O2D        69.5660   25.3400  -33.9730 O.3       1 NAP300      0.0000 
     35 C1D        71.5610   23.9610  -34.5600 C.3       1 NAP300      0.0000 
     36 N1N        72.5020   23.7220  -35.7070 N.pl3     1 NAP300      0.0000 
     37 C2N        73.6880   24.4240  -35.6800 C.ar      1 NAP300      0.0000 
     38 C3N        74.6410   24.2750  -36.7050 C.ar      1 NAP300      0.0000 
     39 C7N        75.9050   25.0430  -36.5350 C.2       1 NAP300      0.0000 
     40 O7N        76.8580   25.0690  -37.5750 O.2       1 NAP300      0.0000 
     41 N7N        76.0800   25.7100  -35.3840 N.am      1 NAP300      0.0000 
     42 C4N        74.3990   23.4090  -37.7980 C.ar      1 NAP300      0.0000 
     43 C5N        73.1720   22.6870  -37.8010 C.ar      1 NAP300      0.0000 
     44 C6N        72.2450   22.8540  -36.7800 C.ar      1 NAP300      0.0000 
     45 P2B        60.6320   16.9870  -36.8960 P.3       1 NAP300      0.0000 
     46 O1X        59.9310   16.8800  -38.2470 O.co2     1 NAP300      0.0000 
     47 O2X        61.0390   18.4510  -36.8990 O.co2     1 NAP300      0.0000 
     48 O3X        59.8330   16.6060  -35.6530 O.co2     1 NAP300      0.0000 
     49 H          66.5428   17.9228  -36.8319 H         1 NAP300      0.0000 
     50 H          65.7230   17.7205  -35.2740 H         1 NAP300      0.0000 
     51 H          66.0597   15.6057  -37.4195 H         1 NAP300      0.0000 
     52 H          64.2264   17.6444  -37.3206 H         1 NAP300      0.0000 
     53 H          63.0912   16.9606  -35.5074 H         1 NAP300      0.0000 
     54 H          63.3886   14.1149  -36.2457 H         1 NAP300      0.0000 
     55 H          63.4568   16.6720  -33.4221 H         1 NAP300      0.0000 
     56 H          61.6324   12.4749  -29.6856 H         1 NAP300      0.0000 
     57 H          62.3175   14.0990  -30.0297 H         1 NAP300      0.0000 
     58 H          61.9184   10.4109  -33.7743 H         1 NAP300      0.0000 
     59 H          70.0999   20.6293  -32.7272 H         1 NAP300      0.0000 
     60 H          68.5767   20.8110  -33.6142 H         1 NAP300      0.0000 
     61 H          69.4831   22.9700  -32.8724 H         1 NAP300      0.0000 
     62 H          69.6786   22.6281  -35.8409 H         1 NAP300      0.0000 
     63 H          70.1811   24.8591  -35.9181 H         1 NAP300      0.0000 
     64 H          71.9827   24.7143  -33.8860 H         1 NAP300      0.0000 
     65 H          73.8924   25.0727  -34.9008 H         1 NAP300      0.0000 
     66 H          76.9470   26.1987  -35.2861 H         1 NAP300      0.0000 
     67 H          75.3278   25.6588  -34.7270 H         1 NAP300      0.0000 
     68 H          75.0608   23.3057  -38.5402 H         1 NAP300      0.0000 
     69 H          72.9835   22.0368  -38.5760 H         1 NAP300      0.0000 
     70 H          71.3522   22.3352  -36.8048 H         1 NAP300      0.0000 
     71 H          63.0880   15.5100  -38.4570 H         1 NAP300      0.0000 
     72 H          67.5336   22.5649  -35.3870 H         1 NAP300      0.0000 
     73 H          70.3196   25.9192  -33.6621 H         1 NAP300      0.0000 
@<TRIPOS>BOND
     1    2    1 ar   
     2    3    1 ar   
     3    4    1 1    
     4   23    1 1    
     5    5    4 1    
     6    6    5 1    
     7   49    5 1    
     8   50    5 1    
     9    7    6 1    
    10    8    6 1    
    11   51    6 1    
    12   12    7 1    
    13    9    8 1    
    14   10    8 1    
    15   52    8 1    
    16   71    9 1    
    17   11   10 1    
    18   12   10 1    
    19   53   10 1    
    20   45   11 1    
    21   13   12 1    
    22   54   12 1    
    23   14   13 1    
    24   22   13 1    
    25   15   14 2    
    26   55   14 1    
    27   16   15 1    
    28   17   16 ar   
    29   22   16 ar   
    30   18   17 1    
    31   19   17 ar   
    32   56   18 1    
    33   57   18 1    
    34   20   19 ar   
    35   21   20 ar   
    36   58   20 1    
    37   22   21 ar   
    38   24   23 1    
    39   25   24 ar   
    40   26   24 ar   
    41   27   24 1    
    42   28   27 1    
    43   29   28 1    
    44   59   28 1    
    45   60   28 1    
    46   30   29 1    
    47   31   29 1    
    48   61   29 1    
    49   35   30 1    
    50   32   31 1    
    51   33   31 1    
    52   62   31 1    
    53   72   32 1    
    54   34   33 1    
    55   35   33 1    
    56   63   33 1    
    57   73   34 1    
    58   36   35 1    
    59   64   35 1    
    60   37   36 ar   
    61   44   36 ar   
    62   38   37 ar   
    63   65   37 1    
    64   39   38 1    
    65   42   38 ar   
    66   40   39 2    
    67   41   39 am   
    68   66   41 1    
    69   67   41 1    
    70   43   42 ar   
    71   68   42 1    
    72   44   43 ar   
    73   69   43 1    
    74   70   44 1    
    75   46   45 ar   
    76   47   45 ar   
    77   48   45 ar   
@<TRIPOS>SUBSTRUCTURE
     1 NAP300      1 GROUP   
@<TRIPOS>SET

