#    Name: 4KMZ_1_CAVITY_N1_ALL.mol2
#    Modification time : Tue Mar 11 11:37:14 2014

@<TRIPOS>MOLECULE
4KMZ_1_CAVITY_N1_ALL.mol2
  117     0     7     0     0
SMALL
NO_CHARGES


@<TRIPOS>ATOM
      1 O          24.2051   47.6451   46.8941 O.2       2 ALA2        0.0000 
      2 O          24.8245   44.7430   47.3347 O.2       2 ALA2        0.0000 
      3 N          25.0279   47.6303   45.6400 N.2       2 ALA2        0.0000 
      4 O          25.3376   46.1793   45.8603 O.2       2 ALA2        0.0000 
      5 N          25.8507   47.6155   44.3859 N.2       2 ALA2        0.0000 
      6 DU         26.1605   46.1645   44.6062 H         7 CUB7        0.0000 
      7 CA         26.4702   44.7134   44.8266 C.3       6 GLY6        0.0000 
      8 CA         27.0896   41.8114   45.2673 C.3       6 GLY6        0.0000 
      9 O          26.9833   46.1497   43.3521 O.2       2 ALA2        0.0000 
     10 DU         27.2930   44.6986   43.5725 H         7 CUB7        0.0000 
     11 CA         27.6028   43.2476   43.7928 C.3       6 GLY6        0.0000 
     12 CA         27.9125   41.7966   44.0132 C.3       6 GLY6        0.0000 
     13 O          27.8061   46.1349   42.0981 O.2       2 ALA2        0.0000 
     14 CZ         28.1159   44.6838   42.3184 C.ar      5 PHE5        0.0000 
     15 CZ         28.9387   44.6690   41.0643 C.ar      5 PHE5        0.0000 
     16 O          30.0712   43.2032   40.0306 O.2       2 ALA2        0.0000 
     17 O          24.9073   46.5887   49.1614 O.2       2 ALA2        0.0000 
     18 N          25.4204   48.0249   47.6870 N.2       2 ALA2        0.0000 
     19 O          25.7301   46.5739   47.9073 O.2       2 ALA2        0.0000 
     20 O          26.5530   46.5591   46.6532 O.2       2 ALA2        0.0000 
     21 N          27.3758   46.5443   45.3992 N.2       2 ALA2        0.0000 
     22 O          27.6855   45.0933   45.6195 O.2       2 ALA2        0.0000 
     23 O          27.8889   47.9805   43.9247 O.2       2 ALA2        0.0000 
     24 O          28.1986   46.5295   44.1451 O.2       2 ALA2        0.0000 
     25 DU         28.5084   45.0785   44.3654 H         7 CUB7        0.0000 
     26 CA         28.8181   43.6274   44.5858 C.3       6 GLY6        0.0000 
     27 CA         29.1278   42.1764   44.8061 C.3       6 GLY6        0.0000 
     28 CZ         29.0215   46.5147   42.8910 C.ar      5 PHE5        0.0000 
     29 CZ         29.3312   45.0637   43.1113 C.ar      5 PHE5        0.0000 
     30 DU         29.6409   43.6126   43.3317 H         7 CUB7        0.0000 
     31 OD1        29.9506   42.1616   43.5520 O.3       3 ASP3        0.0000 
     32 N          30.1540   45.0489   41.8572 N.2       2 ALA2        0.0000 
     33 N          30.4637   43.5978   42.0776 N.2       2 ALA2        0.0000 
     34 OD1        30.7735   42.1468   42.2979 O.3       3 ASP3        0.0000 
     35 O          27.7683   46.9389   47.4462 O.2       2 ALA2        0.0000 
     36 N          28.5911   46.9241   46.1921 N.2       2 ALA2        0.0000 
     37 O          28.9009   45.4731   46.4124 O.2       2 ALA2        0.0000 
     38 N          29.1042   48.3604   44.7176 N.2       2 ALA2        0.0000 
     39 N          29.4140   46.9093   44.9380 N.2       2 ALA2        0.0000 
     40 CZ         29.7237   45.4583   45.1583 C.ar      5 PHE5        0.0000 
     41 CZ         30.0334   44.0072   45.3787 C.ar      5 PHE5        0.0000 
     42 CZ         30.2368   46.8945   43.6839 C.ar      5 PHE5        0.0000 
     43 CZ         30.5465   45.4435   43.9042 C.ar      5 PHE5        0.0000 
     44 CZ         30.8562   43.9924   44.1246 C.ar      5 PHE5        0.0000 
     45 CZ         31.1660   42.5414   44.3449 C.ar      5 PHE5        0.0000 
     46 N          31.6791   43.9776   42.8705 N.2       2 ALA2        0.0000 
     47 CZ         29.8065   47.3039   46.9850 C.ar      5 PHE5        0.0000 
     48 N          30.3196   48.7402   45.5106 N.2       2 ALA2        0.0000 
     49 DU         30.6293   47.2891   45.7309 H         7 CUB7        0.0000 
     50 CZ         30.9390   45.8381   45.9512 C.ar      5 PHE5        0.0000 
     51 CZ         31.2487   44.3871   46.1716 C.ar      5 PHE5        0.0000 
     52 CZ         31.1424   48.7254   44.2565 C.ar      5 PHE5        0.0000 
     53 CZ         31.4521   47.2743   44.4768 C.ar      5 PHE5        0.0000 
     54 CA         31.7618   45.8233   44.6972 C.3       6 GLY6        0.0000 
     55 N          31.5349   49.1200   46.3035 N.2       2 ALA2        0.0000 
     56 CA         31.8446   47.6689   46.5238 C.3       6 GLY6        0.0000 
     57 CZ         32.1543   46.2179   46.7442 C.ar      5 PHE5        0.0000 
     58 CZ         32.6674   47.6541   45.2697 C.ar      5 PHE5        0.0000 
     59 CA         32.9772   46.2031   45.4901 C.3       6 GLY6        0.0000 
     60 CZ         33.0599   48.0488   47.3167 C.ar      5 PHE5        0.0000 
     61 CZ         33.3697   46.5977   47.5371 C.ar      5 PHE5        0.0000 
     62 CZ         33.6794   45.1467   47.7574 C.ar      5 PHE5        0.0000 
     63 CZ         33.5730   49.4850   45.8423 C.ar      5 PHE5        0.0000 
     64 CZ         33.8828   48.0340   46.0627 C.ar      5 PHE5        0.0000 
     65 CZ         34.1925   46.5829   46.2830 C.ar      5 PHE5        0.0000 
     66 CZ         34.7056   48.0192   44.8086 C.ar      5 PHE5        0.0000 
     67 N          33.7622   46.9923   49.5841 N.2       2 ALA2        0.0000 
     68 CZ         34.0719   45.5413   49.8044 C.ar      5 PHE5        0.0000 
     69 CZ         34.2753   48.4286   48.1097 C.ar      5 PHE5        0.0000 
     70 DU         34.5850   46.9775   48.3300 H         7 CUB7        0.0000 
     71 CZ         34.8947   45.5265   48.5503 C.ar      5 PHE5        0.0000 
     72 CZ         35.0981   48.4138   46.8556 C.ar      5 PHE5        0.0000 
     73 CZ         35.4078   46.9627   47.0759 C.ar      5 PHE5        0.0000 
     74 CZ         35.6112   49.8500   45.3811 C.ar      5 PHE5        0.0000 
     75 CZ         35.9209   48.3990   45.6015 C.ar      5 PHE5        0.0000 
     76 CZ         36.2307   46.9479   45.8218 C.ar      5 PHE5        0.0000 
     77 CA         36.7438   48.3842   44.3474 C.3       6 GLY6        0.0000 
     78 CZ         37.0535   46.9331   44.5677 C.ar      5 PHE5        0.0000 
     79 CA         37.8763   46.9183   43.3137 C.3       6 GLY6        0.0000 
     80 CZ         38.1860   45.4673   43.5340 C.ar      5 PHE5        0.0000 
     81 N          34.1547   47.3870   51.6311 N.2       2 ALA2        0.0000 
     82 CZ         34.6678   48.8232   50.1567 C.ar      5 PHE5        0.0000 
     83 N          34.9775   47.3722   50.3770 N.2       2 ALA2        0.0000 
     84 CZ         35.2872   45.9211   50.5973 C.ar      5 PHE5        0.0000 
     85 CZ         35.4906   48.8084   48.9026 C.ar      5 PHE5        0.0000 
     86 DU         35.8003   47.3574   49.1229 H         7 CUB7        0.0000 
     87 CZ         36.1100   45.9063   49.3433 C.ar      5 PHE5        0.0000 
     88 CZ         36.3134   48.7936   47.6485 C.ar      5 PHE5        0.0000 
     89 DU         36.6231   47.3426   47.8688 H         7 CUB7        0.0000 
     90 CZ         36.9329   45.8915   48.0892 C.ar      5 PHE5        0.0000 
     91 CZ         36.8265   50.2298   46.1741 C.ar      5 PHE5        0.0000 
     92 CZ         37.1363   48.7788   46.3944 C.ar      5 PHE5        0.0000 
     93 OG         37.4460   47.3278   46.6147 O.2       1 SER1        0.0000 
     94 CZ         37.7557   45.8767   46.8351 C.ar      5 PHE5        0.0000 
     95 O          37.6494   50.2150   44.9200 O.2       2 ALA2        0.0000 
     96 O          37.9591   48.7640   45.1403 O.2       2 ALA2        0.0000 
     97 OG         38.2688   47.3130   45.3607 O.2       1 SER1        0.0000 
     98 CZ         38.5785   45.8619   45.5810 C.ar      5 PHE5        0.0000 
     99 CZ         38.7819   48.7492   43.8862 C.ar      5 PHE5        0.0000 
    100 CZ         39.0916   47.2982   44.1066 C.ar      5 PHE5        0.0000 
    101 OG         39.4014   45.8471   44.3269 O.2       1 SER1        0.0000 
    102 CA         35.0603   49.2178   52.2037 C.3       6 GLY6        0.0000 
    103 CZ         35.3700   47.7668   52.4240 C.ar      5 PHE5        0.0000 
    104 CZ         35.8831   49.2030   50.9496 C.ar      5 PHE5        0.0000 
    105 CZ         36.1928   47.7520   51.1699 C.ar      5 PHE5        0.0000 
    106 CZ         36.7059   49.1882   49.6955 C.ar      5 PHE5        0.0000 
    107 CZ         37.0156   47.7372   49.9158 C.ar      5 PHE5        0.0000 
    108 CZ         37.3254   46.2861   50.1362 C.ar      5 PHE5        0.0000 
    109 CZ         37.5288   49.1734   48.4414 C.ar      5 PHE5        0.0000 
    110 OG         37.8385   47.7224   48.6617 O.2       1 SER1        0.0000 
    111 CA         38.1482   46.2713   48.8821 C.3       6 GLY6        0.0000 
    112 CZ         38.0419   50.6097   46.9670 C.ar      5 PHE5        0.0000 
    113 OG         38.3516   49.1586   47.1873 O.2       1 SER1        0.0000 
    114 OG         39.1744   49.1438   45.9332 O.2       1 SER1        0.0000 
    115 CA         36.2756   49.5976   52.9966 C.3       6 GLY6        0.0000 
    116 CA         37.4081   48.1318   51.9628 C.3       6 GLY6        0.0000 
    117 NZ         38.2310   48.1170   50.7088 N.2       4 LYS4        0.0000 
@<TRIPOS>BOND
@<TRIPOS>SUBSTRUCTURE
     1 SER1       93 GROUP   
     2 ALA2        1 GROUP   
     3 ASP3       31 GROUP   
     4 LYS4      117 GROUP   
     5 PHE5       14 GROUP   
     6 GLY6        7 GROUP   
     7 CUB7        6 GROUP   
@<TRIPOS>SET

