#    Name: 4kmz_FOL_1_INTS_M
#    Modification time : Tue Mar 25 08:04:22 2014

@<TRIPOS>MOLECULE
4kmz_FOL_1_INTS_M
   56     0     9     0     0
SMALL
NO_CHARGES


@<TRIPOS>ATOM
      1 O          38.2425   50.2425   52.6865 O.2       1 ALC1        0.0000 
      2 O          36.9660   49.3040   52.1120 O.2       7 ALL1        0.0000 
      3 O          39.5190   51.1810   53.2610 O.2       4 ALP1        0.0000 
      4 O          38.0825   49.9905   51.6240 O.2       1 ALC1        0.0000 
      5 O          39.1990   50.6770   51.1360 O.2       4 ALP1        0.0000 
      6 O          38.3265   50.6565   53.7830 O.2       1 ALC1        0.0000 
      7 O          37.1340   50.1320   54.3050 O.2       7 ALL1        0.0000 
      8 N          34.3185   49.3670   54.6005 N.am      2 SEC2        0.0000 
      9 N          35.1770   48.9850   53.6730 N.am      8 SEL2        0.0000 
     10 N          33.4600   49.7490   55.5280 N.am      5 SEP2        0.0000 
     11 N          32.5670   46.6140   52.9295 N.am      2 SEC2        0.0000 
     12 N          33.3250   47.8520   52.9830 N.am      8 SEL2        0.0000 
     13 N          31.8090   45.3760   52.8760 N.am      5 SEP2        0.0000 
     14 N          33.3925   48.8005   54.2555 N.am      2 SEC2        0.0000 
     15 CA         34.3660   50.1800   52.0540 C.3       3 GLC5        0.0000 
     16 CA         34.9750   48.1300   51.4470 C.3       9 GLL5        0.0000 
     17 CA         33.7570   52.2300   52.6610 C.3       6 GLP5        0.0000 
     18 N          32.9505   48.1565   50.5660 N.am      2 SEC2        0.0000 
     19 N          34.2400   47.4580   50.4890 N.am      8 SEL2        0.0000 
     20 N          31.6610   48.8550   50.6430 N.am      5 SEP2        0.0000 
     21 CA         37.5015   47.3380   52.1190 C.3       3 GLC5        0.0000 
     22 CA         36.2450   48.6290   51.1460 C.3       9 GLL5        0.0000 
     23 CA         38.7580   46.0470   53.0920 C.3       6 GLP5        0.0000 
     24 CA         34.5900   44.6900   47.7880 C.3       3 GLC5        0.0000 
     25 CA         33.9850   46.5620   48.1560 C.3       9 GLL5        0.0000 
     26 CA         35.1950   42.8180   47.4200 C.3       6 GLP5        0.0000 
     27 CA         32.5175   45.7545   48.9205 C.3       3 GLC5        0.0000 
     28 CA         31.0500   44.9470   49.6850 C.3       6 GLP5        0.0000 
     29 CA         32.3730   47.8150   48.8945 C.3       3 GLC5        0.0000 
     30 CA         30.7610   49.0680   49.6330 C.3       6 GLP5        0.0000 
     31 CA         33.0330   45.4400   44.9920 C.3       3 GLC5        0.0000 
     32 CA         31.7100   46.2010   46.3580 C.3       9 GLL5        0.0000 
     33 CA         34.3560   44.6790   43.6260 C.3       6 GLP5        0.0000 
     34 O          27.4705   48.8635   45.6035 O.2       1 ALC1        0.0000 
     35 O          27.6250   47.9580   44.5750 O.2       7 ALL1        0.0000 
     36 O          27.3160   49.7690   46.6320 O.2       4 ALP1        0.0000 
     37 CA         26.5040   48.0760   42.1075 C.3       3 GLC5        0.0000 
     38 CA         26.2910   47.8610   44.0270 C.3       9 GLL5        0.0000 
     39 CA         26.7170   48.2910   40.1880 C.3       6 GLP5        0.0000 
     40 CA         26.6450   44.4025   46.6370 C.3       3 GLC5        0.0000 
     41 CA         25.8090   45.8830   45.5710 C.3       9 GLL5        0.0000 
     42 CA         27.4810   42.9220   47.7030 C.3       6 GLP5        0.0000 
     43 N          26.2650   44.7255   47.9700 N.am      2 SEC2        0.0000 
     44 N          24.7900   45.3020   47.6830 N.am      8 SEL2        0.0000 
     45 N          27.7400   44.1490   48.2570 N.am      5 SEP2        0.0000 
     46 N          26.1415   51.3900   42.3400 N.am      2 SEC2        0.0000 
     47 N          26.5090   49.9910   42.9250 N.am      8 SEL2        0.0000 
     48 N          25.7740   52.7890   41.7550 N.am      5 SEP2        0.0000 
     49 N          27.1030   49.2410   42.0260 N.am      2 SEC2        0.0000 
     50 N          27.6970   48.4910   41.1270 N.am      5 SEP2        0.0000 
     51 N          24.6580   51.1250   44.2040 N.am      2 SEC2        0.0000 
     52 N          24.7010   49.6600   44.0850 N.am      8 SEL2        0.0000 
     53 N          24.6150   52.5900   44.3230 N.am      5 SEP2        0.0000 
     54 CA         29.9330   49.7747   46.8835 C.3       3 GLC5        0.0000 
     55 CA         30.3720   48.4710   45.4620 C.3       9 GLL5        0.0000 
     56 CA         28.9070   51.0150   47.9290 C.3       6 GLP5        0.0000 
@<TRIPOS>BOND
@<TRIPOS>SUBSTRUCTURE
     1 ALC1        1 GROUP        1 X    ALC  0     ROOT ALC X 1
     2 SEC2        8 GROUP        1 X    SEC  0     **** SEC X 2
     3 GLC5       15 GROUP        1 X    GLC  0     **** GLC X 6
     4 ALP1        3 GROUP        1 Y    ALP  0     ROOT ALP Y 8
     5 SEP2       10 GROUP        1 Y    SEP  0     **** SEP Y 9
     6 GLP5       17 GROUP        1 Y    GLP  0     **** GLP Y 13
     7 ALL1        2 GROUP        1 Z    ALL  0     ROOT ALL Z 15
     8 SEL2        9 GROUP        1 Z    SEL  0     **** SEL Z 16
     9 GLL5       16 GROUP        1 Z    GLL  0     **** GLL Z 20
@<TRIPOS>SET

