#    Name: 4kmz_FOL_1_ligand
#    Modification time : Tue Mar 25 08:04:22 2014

@<TRIPOS>MOLECULE
4kmz_FOL_1_ligand
   49    51     1     0     0
SMALL
NO_CHARGES


@<TRIPOS>ATOM
      1 N1         36.9660   49.3040   52.1120 N.pl3     1 FOL301      0.0000 
      2 C2         36.4320   49.4830   53.3730 C.2       1 FOL301      0.0000 
      3 NA2        37.1340   50.1320   54.3050 N.pl3     1 FOL301      0.0000 
      4 N3         35.1770   48.9850   53.6730 N.2       1 FOL301      0.0000 
      5 C4         34.4410   48.3080   52.7180 C.2       1 FOL301      0.0000 
      6 O4         33.3250   47.8520   52.9830 O.2       1 FOL301      0.0000 
      7 C4A        34.9750   48.1300   51.4470 C.ar      1 FOL301      0.0000 
      8 N5         34.2400   47.4580   50.4890 N.ar      1 FOL301      0.0000 
      9 C6         34.7800   47.2790   49.2270 C.ar      1 FOL301      0.0000 
     10 C7         36.0500   47.7810   48.9280 C.ar      1 FOL301      0.0000 
     11 N8         36.7830   48.4570   49.8840 N.ar      1 FOL301      0.0000 
     12 C8A        36.2450   48.6290   51.1460 C.ar      1 FOL301      0.0000 
     13 C9         33.9850   46.5620   48.1560 C.3       1 FOL301      0.0000 
     14 N10        33.3340   47.6190   47.3860 N.pl3     1 FOL301      0.0000 
     15 C11        29.8710   47.2070   45.1540 C.ar      1 FOL301      0.0000 
     16 C12        30.5440   46.0720   45.6030 C.ar      1 FOL301      0.0000 
     17 C13        31.7100   46.2010   46.3580 C.ar      1 FOL301      0.0000 
     18 C14        32.2210   47.4640   46.6620 C.ar      1 FOL301      0.0000 
     19 C15        31.5460   48.5980   46.2140 C.ar      1 FOL301      0.0000 
     20 C16        30.3720   48.4710   45.4620 C.ar      1 FOL301      0.0000 
     21 C          28.6000   47.0700   44.3500 C.2       1 FOL301      0.0000 
     22 O          28.4740   46.0340   43.3920 O.2       1 FOL301      0.0000 
     23 N          27.6250   47.9580   44.5750 N.am      1 FOL301      0.0000 
     24 CA         26.2910   47.8610   44.0270 C.3       1 FOL301      0.0000 
     25 CB         25.3150   47.2210   45.0230 C.3       1 FOL301      0.0000 
     26 CG         25.8090   45.8830   45.5710 C.3       1 FOL301      0.0000 
     27 CD         24.7670   45.1910   46.4280 C.2       1 FOL301      0.0000 
     28 OE1        23.8760   44.4750   45.8930 O.co2     1 FOL301      0.0000 
     29 OE2        24.7900   45.3020   47.6830 O.co2     1 FOL301      0.0000 
     30 CT         25.8090   49.2420   43.6610 C.2       1 FOL301      0.0000 
     31 O1         26.5090   49.9910   42.9250 O.co2     1 FOL301      0.0000 
     32 O2         24.7010   49.6600   44.0850 O.co2     1 FOL301      0.0000 
     33 H          37.9030   49.6741   51.8912 H         1 FOL301      0.0000 
     34 H          36.7093   50.2003   55.2077 H         1 FOL301      0.0000 
     35 H          38.0214   50.4915   54.0166 H         1 FOL301      0.0000 
     36 H          36.4377   47.6413   47.9806 H         1 FOL301      0.0000 
     37 H          33.2606   45.9216   48.6271 H         1 FOL301      0.0000 
     38 H          34.6593   45.9922   47.5416 H         1 FOL301      0.0000 
     39 H          33.8186   48.5628   47.4366 H         1 FOL301      0.0000 
     40 H          30.1806   45.1370   45.3775 H         1 FOL301      0.0000 
     41 H          32.1979   45.3582   46.6939 H         1 FOL301      0.0000 
     42 H          31.9099   49.5342   46.4355 H         1 FOL301      0.0000 
     43 H          29.8805   49.3127   45.1377 H         1 FOL301      0.0000 
     44 H          27.7991   48.8035   45.1898 H         1 FOL301      0.0000 
     45 H          26.2924   47.2564   43.1264 H         1 FOL301      0.0000 
     46 H          24.3478   47.0709   44.5257 H         1 FOL301      0.0000 
     47 H          25.1547   47.9147   45.8587 H         1 FOL301      0.0000 
     48 H          26.7138   46.0549   46.1662 H         1 FOL301      0.0000 
     49 H          26.0791   45.2326   44.7305 H         1 FOL301      0.0000 
@<TRIPOS>BOND
     1    2    1 1    
     2   12    1 1    
     3   33    1 1    
     4    3    2 1    
     5    4    2 2    
     6   34    3 1    
     7   35    3 1    
     8    5    4 1    
     9    6    5 2    
    10    7    5 1    
    11    8    7 ar   
    12   12    7 ar   
    13    9    8 ar   
    14   10    9 ar   
    15   13    9 1    
    16   11   10 ar   
    17   36   10 1    
    18   12   11 ar   
    19   14   13 1    
    20   37   13 1    
    21   38   13 1    
    22   18   14 1    
    23   39   14 1    
    24   16   15 ar   
    25   20   15 ar   
    26   21   15 1    
    27   17   16 ar   
    28   40   16 1    
    29   18   17 ar   
    30   41   17 1    
    31   19   18 ar   
    32   20   19 ar   
    33   42   19 1    
    34   43   20 1    
    35   22   21 2    
    36   23   21 am   
    37   24   23 1    
    38   44   23 1    
    39   25   24 1    
    40   30   24 1    
    41   45   24 1    
    42   26   25 1    
    43   46   25 1    
    44   47   25 1    
    45   27   26 1    
    46   48   26 1    
    47   49   26 1    
    48   28   27 ar   
    49   29   27 ar   
    50   31   30 ar   
    51   32   30 ar   
@<TRIPOS>SUBSTRUCTURE
     1 FOL301      1 GROUP   
@<TRIPOS>SET

