#    Name: 3hy3_10F_1_INTS_M
#    Modification time : Tue Mar 25 15:20:50 2014

@<TRIPOS>MOLECULE
3hy3_10F_1_INTS_M
   53     0     9     0     0
SMALL
NO_CHARGES


@<TRIPOS>ATOM
      1 CA         12.4740   18.7370   -3.8630 C.3       3 GLC5        0.0000 
      2 CA         11.7050   18.7390   -5.5340 C.3       9 GLL5        0.0000 
      3 CA         13.2430   18.7350   -2.1920 C.3       6 GLP5        0.0000 
      4 CA         11.1365   18.7125   -7.5080 C.3       3 GLC5        0.0000 
      5 CA         10.5680   18.6860   -9.4820 C.3       6 GLP5        0.0000 
      6 CA         10.3555   18.7465   -3.7570 C.3       3 GLC5        0.0000 
      7 CA          9.0060   18.7540   -1.9800 C.3       6 GLP5        0.0000 
      8 CA          9.1965   18.3475   -3.9590 C.3       3 GLC5        0.0000 
      9 CA          9.3870   17.9410   -5.9380 C.3       9 GLL5        0.0000 
     10 N           7.2920   19.0755   -7.1900 N.am      1 SEC2        0.0000 
     11 N           8.0910   18.2010   -6.3040 N.am      7 SEL2        0.0000 
     12 N           6.4930   19.9500   -8.0760 N.am      4 SEP2        0.0000 
     13 N           7.1430   17.1545   -6.6195 N.am      1 SEC2        0.0000 
     14 N           6.1950   16.1080   -6.9350 N.am      4 SEP2        0.0000 
     15 CA         10.1400   16.7140   -8.6395 C.3       3 GLC5        0.0000 
     16 CA          9.7120   14.7420   -7.7970 C.3       9 GLL5        0.0000 
     17 CA         12.3310   13.7570   -5.6265 C.3       3 GLC5        0.0000 
     18 CA         10.9180   14.1050   -7.0780 C.3       9 GLL5        0.0000 
     19 CA         13.7440   13.4090   -4.1750 C.3       6 GLP5        0.0000 
     20 CA         11.1930   12.4270   -7.8845 C.3       3 GLC5        0.0000 
     21 CA         11.4680   10.7490   -8.6910 C.3       6 GLP5        0.0000 
     22 CA         10.6895   12.9475   -5.1985 C.3       3 GLC5        0.0000 
     23 CA         10.4610   11.7900   -3.3190 C.3       6 GLP5        0.0000 
     24 CA         12.5225   14.9030   -5.1780 C.3       3 GLC5        0.0000 
     25 CA         11.3010   16.3970   -6.1810 C.3       9 GLL5        0.0000 
     26 CA          7.5105   14.4045   -7.7260 C.3       3 GLC5        0.0000 
     27 CA          8.9180   14.0340   -8.9440 C.3       9 GLL5        0.0000 
     28 CA          6.1030   14.7750   -6.5080 C.3       6 GLP5        0.0000 
     29 CA          3.7370   16.4315   -9.6425 C.3       3 GLC5        0.0000 
     30 CA          4.2470   14.7750  -10.8970 C.3       9 GLL5        0.0000 
     31 CA          3.2270   18.0880   -8.3880 C.3       6 GLP5        0.0000 
     32 CA          4.1955   18.6245  -13.0425 C.3       3 GLC5        0.0000 
     33 CA          2.2550   18.4480  -13.0710 C.3       9 GLL5        0.0000 
     34 CA          6.1360   18.8010  -13.0140 C.3       6 GLP5        0.0000 
     35 NZ          3.1770   22.1710  -12.9340 N.4       2 LYC4        0.0000 
     36 NZ          3.2030   20.6070  -13.8780 N.4       8 LYL4        0.0000 
     37 NZ          3.1510   23.7350  -11.9900 N.4       5 LYP4        0.0000 
     38 N           1.4690   14.0610   -9.1275 N.am      1 SEC2        0.0000 
     39 N           2.1450   14.6670  -10.1340 N.am      7 SEL2        0.0000 
     40 N           0.7930   13.4550   -8.1210 N.am      4 SEP2        0.0000 
     41 CA          8.3758   15.8417   -6.0118 C.3       3 GLC5        0.0000 
     42 CA         10.0400   16.8980   -6.8150 C.3       9 GLL5        0.0000 
     43 CA          7.0380   14.2640   -5.6470 C.3       6 GLP5        0.0000 
     44 CA          9.6635   12.4530   -8.7218 C.3       3 GLC5        0.0000 
     45 CA         10.0120   10.5180   -9.0730 C.3       6 GLP5        0.0000 
     46 CA          8.6765   14.3438   -6.5423 C.3       3 GLC5        0.0000 
     47 CA         10.5376   17.7971   -7.8804 C.3       3 GLC5        0.0000 
     48 CA          3.1712   12.7843   -9.9193 C.3       3 GLC5        0.0000 
     49 CA          4.8640   13.4540  -10.3400 C.3       9 GLL5        0.0000 
     50 CA          1.7870   11.4540   -9.2200 C.3       6 GLP5        0.0000 
     51 CA          5.6843   17.5755   -9.8320 C.3       3 GLC5        0.0000 
     52 CA          5.1320   16.0850  -11.1060 C.3       9 GLL5        0.0000 
     53 CA          5.4790   19.0840   -8.7110 C.3       6 GLP5        0.0000 
@<TRIPOS>BOND
@<TRIPOS>SUBSTRUCTURE
     1 SEC2       10 GROUP        1 X    SEC  0     ROOT SEC X 2
     2 LYC4       35 GROUP        1 X    LYC  0     **** LYC X 4
     3 GLC5        1 GROUP        1 X    GLC  0     **** GLC X 6
     4 SEP2       12 GROUP        1 Y    SEP  0     ROOT SEP Y 9
     5 LYP4       37 GROUP        1 Y    LYP  0     **** LYP Y 11
     6 GLP5        3 GROUP        1 Y    GLP  0     **** GLP Y 13
     7 SEL2       11 GROUP        1 Z    SEL  0     ROOT SEL Z 16
     8 LYL4       36 GROUP        1 Z    LYL  0     **** LYL Z 18
     9 GLL5        2 GROUP        1 Z    GLL  0     **** GLL Z 20
@<TRIPOS>SET

