#    Name: 3hy3_10F_1_ligand
#    Modification time : Tue Mar 25 15:20:50 2014

@<TRIPOS>MOLECULE
3hy3_10F_1_ligand
   55    57     1     0     0
SMALL
NO_CHARGES


@<TRIPOS>ATOM
      1 N1         12.2680   17.5350   -6.2370 N.4       1 10F501      0.0000 
      2 C2         11.7050   18.7390   -5.5340 C.3       1 10F501      0.0000 
      3 NA2        12.5580   19.8670   -5.7160 N.3       1 10F501      0.0000 
      4 N3         10.2630   19.1310   -5.7910 N.3       1 10F501      0.0000 
      5 C4          9.3870   17.9410   -5.9380 C.3       1 10F501      0.0000 
      6 O4          8.0910   18.2010   -6.3040 O.3       1 10F501      0.0000 
      7 C4A        10.0400   16.8980   -6.8150 C.3       1 10F501      0.0000 
      8 N5          9.0000   15.8470   -7.0730 N.3       1 10F501      0.0000 
      9 C6          9.7120   14.7420   -7.7970 C.3       1 10F501      0.0000 
     10 C7         10.9180   14.1050   -7.0780 C.3       1 10F501      0.0000 
     11 N8         11.9300   15.1920   -6.8710 N.3       1 10F501      0.0000 
     12 C8A        11.3010   16.3970   -6.1810 C.3       1 10F501      0.0000 
     13 C9          8.9180   14.0340   -8.9440 C.3       1 10F501      0.0000 
     14 N10         8.6060   14.6600   -9.9110 N.am      1 10F501      0.0000 
     15 C11         4.2470   14.7750  -10.8970 C.ar      1 10F501      0.0000 
     16 C12         5.1320   16.0850  -11.1060 C.ar      1 10F501      0.0000 
     17 C13         6.6470   16.0490  -10.8000 C.ar      1 10F501      0.0000 
     18 C14         7.2400   14.7030  -10.2670 C.ar      1 10F501      0.0000 
     19 C15         6.3770   13.3920  -10.0250 C.ar      1 10F501      0.0000 
     20 C16         4.8640   13.4540  -10.3400 C.ar      1 10F501      0.0000 
     21 C17         2.7570   14.8400  -11.1050 C.2       1 10F501      0.0000 
     22 N           2.4330   15.9940  -11.9070 N.am      1 10F501      0.0000 
     23 CA          1.9250   16.0270  -13.2720 C.3       1 10F501      0.0000 
     24 CB          1.1950   17.3680  -13.4350 C.3       1 10F501      0.0000 
     25 CG          2.2550   18.4480  -13.0710 C.3       1 10F501      0.0000 
     26 CD          2.7070   19.3370  -14.2760 C.2       1 10F501      0.0000 
     27 OE1         3.2030   20.6070  -13.8780 O.co2     1 10F501      0.0000 
     28 OE2         1.7710   19.4460  -15.3280 O.co2     1 10F501      0.0000 
     29 CT          1.0520   14.8100  -13.5650 C.2       1 10F501      0.0000 
     30 O2          1.8630   13.6640  -13.7290 O.co2     1 10F501      0.0000 
     31 O1         -0.0050   14.6680  -12.6360 O.co2     1 10F501      0.0000 
     32 C18         9.6610   14.9020  -10.8230 C.2       1 10F501      0.0000 
     33 O5         10.6830   14.6740  -10.3670 O.2       1 10F501      0.0000 
     34 O           2.1450   14.6670  -10.1340 O.2       1 10F501      0.0000 
     35 H          11.7545   18.4933   -4.4111 H         1 10F501      0.0000 
     36 H           9.3805   17.4489   -4.8947 H         1 10F501      0.0000 
     37 H          10.2775   17.3864   -7.7642 H         1 10F501      0.0000 
     38 H          10.4166   15.5383   -8.5896 H         1 10F501      0.0000 
     39 H          11.3219   13.3279   -7.7010 H         1 10F501      0.0000 
     40 H          10.5897   13.7111   -6.1335 H         1 10F501      0.0000 
     41 H          11.1187   16.1647   -5.1457 H         1 10F501      0.0000 
     42 H           8.0441   13.5298   -8.3541 H         1 10F501      0.0000 
     43 H           9.5707   13.0837   -9.1355 H         1 10F501      0.0000 
     44 H           4.7017   16.8913  -11.4248 H         1 10F501      0.0000 
     45 H           7.2040   16.8110  -10.9280 H         1 10F501      0.0000 
     46 H           6.7952   12.6018   -9.6958 H         1 10F501      0.0000 
     47 H           4.2970   12.6800  -10.1944 H         1 10F501      0.0000 
     48 H           2.5826   16.9474  -11.4468 H         1 10F501      0.0000 
     49 H           2.7679   16.0303  -13.9639 H         1 10F501      0.0000 
     50 H           0.3883   17.4274  -12.7491 H         1 10F501      0.0000 
     51 H           0.8979   17.4988  -14.4447 H         1 10F501      0.0000 
     52 H           3.1391   17.9497  -12.6553 H         1 10F501      0.0000 
     53 H           1.8417   19.1008  -12.2926 H         1 10F501      0.0000 
     54 H           9.3836   15.2407  -11.7487 H         1 10F501      0.0000 
     55 H           7.6235   18.4352   -5.4516 H         1 10F501      0.0000 
@<TRIPOS>BOND
     1    2    1 1    
     2   12    1 1    
     3    3    2 1    
     4    4    2 1    
     5   35    2 1    
     6    5    4 1    
     7    6    5 1    
     8    7    5 1    
     9   36    5 1    
    10   55    6 1    
    11    8    7 1    
    12   12    7 1    
    13   37    7 1    
    14    9    8 1    
    15   10    9 1    
    16   13    9 1    
    17   38    9 1    
    18   11   10 1    
    19   39   10 1    
    20   40   10 1    
    21   12   11 1    
    22   41   12 1    
    23   14   13 1    
    24   42   13 1    
    25   43   13 1    
    26   18   14 1    
    27   32   14 am   
    28   16   15 ar   
    29   20   15 ar   
    30   21   15 1    
    31   17   16 ar   
    32   44   16 1    
    33   18   17 ar   
    34   45   17 1    
    35   19   18 ar   
    36   20   19 ar   
    37   46   19 1    
    38   47   20 1    
    39   22   21 am   
    40   34   21 2    
    41   23   22 1    
    42   48   22 1    
    43   24   23 1    
    44   29   23 1    
    45   49   23 1    
    46   25   24 1    
    47   50   24 1    
    48   51   24 1    
    49   26   25 1    
    50   52   25 1    
    51   53   25 1    
    52   27   26 ar   
    53   28   26 ar   
    54   30   29 ar   
    55   31   29 ar   
    56   33   32 2    
    57   54   32 1    
@<TRIPOS>SUBSTRUCTURE
     1 10F501      1 GROUP   
@<TRIPOS>SET

