#    Name: 1d3d_BZT_1_INTS_M
#    Modification time : Mon Mar 24 21:22:37 2014

@<TRIPOS>MOLECULE
1d3d_BZT_1_INTS_M
   85     0     6     0     0
SMALL
NO_CHARGES


@<TRIPOS>ATOM
      1 CA        -25.1480  -32.5175   20.4960 C.3       2 GLC5        0.0000 
      2 CA        -23.5320  -33.1090   21.0650 C.3       6 GLL5        0.0000 
      3 CA        -26.7640  -31.9260   19.9270 C.3       4 GLP5        0.0000 
      4 CA        -25.1760  -34.0625   21.1650 C.3       2 GLC5        0.0000 
      5 CA        -26.8200  -35.0160   21.2650 C.3       4 GLP5        0.0000 
      6 CA        -23.1405  -34.6030   17.7745 C.3       2 GLC5        0.0000 
      7 CA        -21.7360  -35.0190   19.2830 C.3       6 GLL5        0.0000 
      8 CA        -24.5450  -34.1870   16.2660 C.3       4 GLP5        0.0000 
      9 CA        -18.6010  -36.6060   17.2205 C.3       2 GLC5        0.0000 
     10 CA        -20.1990  -37.4370   15.8820 C.3       6 GLL5        0.0000 
     11 CA        -17.0030  -35.7750   18.5590 C.3       4 GLP5        0.0000 
     12 CA        -16.9655  -30.8520   19.7230 C.3       2 GLC5        0.0000 
     13 CA        -17.4520  -32.3350   20.7780 C.3       6 GLL5        0.0000 
     14 CA        -16.4790  -29.3690   18.6680 C.3       4 GLP5        0.0000 
     15 CA        -17.5700  -31.7825   22.9540 C.3       2 GLC5        0.0000 
     16 CA        -17.6880  -31.2300   25.1300 C.3       4 GLP5        0.0000 
     17 CA        -17.8785  -32.8860   23.7490 C.3       2 GLC5        0.0000 
     18 CA        -18.0690  -34.5420   22.3680 C.3       6 GLL5        0.0000 
     19 CA        -14.4040  -30.9345   19.9900 C.3       2 GLC5        0.0000 
     20 CA        -14.7860  -32.8190   20.5240 C.3       6 GLL5        0.0000 
     21 CA        -14.0220  -29.0500   19.4560 C.3       4 GLP5        0.0000 
     22 CA        -13.3605  -33.8740   20.5185 C.3       2 GLC5        0.0000 
     23 CA        -11.9350  -34.9290   20.5130 C.3       4 GLP5        0.0000 
     24 CA        -15.7115  -33.8875   19.0010 C.3       2 GLC5        0.0000 
     25 CA        -16.6370  -34.9560   17.4780 C.3       4 GLP5        0.0000 
     26 CA        -14.6305  -31.4625   21.8675 C.3       2 GLC5        0.0000 
     27 CA        -14.4750  -30.1060   23.2110 C.3       4 GLP5        0.0000 
     28 CA        -13.8130  -35.1915   21.4970 C.3       2 GLC5        0.0000 
     29 CA        -15.6910  -35.4540   22.4810 C.3       6 GLL5        0.0000 
     30 CA        -16.0060  -36.1935   20.6610 C.3       2 GLC5        0.0000 
     31 CA        -16.3210  -36.9330   18.8410 C.3       4 GLP5        0.0000 
     32 CA        -14.2155  -36.2115   27.8200 C.3       2 GLC5        0.0000 
     33 CA        -14.2590  -35.6570   25.9730 C.3       6 GLL5        0.0000 
     34 CA        -14.1720  -36.7660   29.6670 C.3       4 GLP5        0.0000 
     35 CA        -15.9080  -32.9690   26.7910 C.3       2 GLC5        0.0000 
     36 CA        -14.4620  -34.1290   25.8850 C.3       6 GLL5        0.0000 
     37 CA        -17.3540  -31.8090   27.6970 C.3       4 GLP5        0.0000 
     38 CA        -16.1445  -32.6275   24.7225 C.3       2 GLC5        0.0000 
     39 CA        -14.6010  -34.0250   24.3150 C.3       6 GLL5        0.0000 
     40 CA        -14.9285  -39.1080   15.9655 C.3       2 GLC5        0.0000 
     41 CA        -16.3620  -39.9680   14.9020 C.3       6 GLL5        0.0000 
     42 CA        -13.4950  -38.2480   17.0290 C.3       4 GLP5        0.0000 
     43 CA        -14.8370  -37.9355   15.1615 C.3       2 GLC5        0.0000 
     44 CA        -15.9450  -38.7570   14.0180 C.3       6 GLL5        0.0000 
     45 CA        -13.7290  -37.1140   16.3050 C.3       4 GLP5        0.0000 
     46 O         -26.1330  -30.2520   25.5085 O.2       1 ALC1        0.0000 
     47 O         -24.8940  -30.0890   25.2580 O.2       5 ALL1        0.0000 
     48 O         -27.3720  -30.4150   25.7590 O.2       3 ALP1        0.0000 
     49 CA        -25.4025  -29.5685   22.9635 C.3       2 GLC5        0.0000 
     50 CA        -24.0350  -30.4500   24.2640 C.3       6 GLL5        0.0000 
     51 CA        -26.6290  -28.1520   22.1370 C.3       4 GLP5        0.0000 
     52 CA        -23.2390  -28.4730   23.2118 C.3       2 GLC5        0.0000 
     53 CA        -23.0620  -26.8340   22.2300 C.3       4 GLP5        0.0000 
     54 CA        -22.8280  -32.1090   24.9415 C.3       2 GLC5        0.0000 
     55 CA        -21.4800  -33.2330   26.0930 C.3       4 GLP5        0.0000 
     56 CA        -23.7790  -29.9315   26.2703 C.3       2 GLC5        0.0000 
     57 CA        -24.1420  -29.7510   28.3470 C.3       4 GLP5        0.0000 
     58 CA        -25.3150  -31.8178   21.3620 C.3       2 GLC5        0.0000 
     59 CA        -24.3170  -31.5200   23.3160 C.3       6 GLL5        0.0000 
     60 CA        -22.1348  -32.3935   24.1520 C.3       2 GLC5        0.0000 
     61 CA        -23.4150  -31.8990   22.2780 C.3       6 GLL5        0.0000 
     62 CA        -21.3885  -29.4830   20.9097 C.3       2 GLC5        0.0000 
     63 CA        -22.1640  -31.2090   22.1440 C.3       6 GLL5        0.0000 
     64 CA        -20.7590  -28.2860   19.2140 C.3       4 GLP5        0.0000 
     65 CA        -22.5400  -28.7570   22.4177 C.3       2 GLC5        0.0000 
     66 CA        -21.9073  -31.5977   24.8440 C.3       2 GLC5        0.0000 
     67 CA        -21.8720  -30.1510   23.0670 C.3       6 GLL5        0.0000 
     68 CA        -20.7488  -30.4415   24.0791 C.3       2 GLC5        0.0000 
     69 CA        -22.7970  -29.7740   24.1230 C.3       6 GLL5        0.0000 
     70 CA        -19.0900  -30.6560   24.7940 C.3       4 GLP5        0.0000 
     71 CA        -23.6840  -32.8867   18.8400 C.3       2 GLC5        0.0000 
     72 CA        -22.0620  -32.7980   20.3770 C.3       6 GLL5        0.0000 
     73 CA        -24.5710  -32.8200   16.9590 C.3       4 GLP5        0.0000 
     74 CA        -20.7185  -29.9438   20.0505 C.3       2 GLC5        0.0000 
     75 CA        -21.3850  -31.7250   21.0720 C.3       6 GLL5        0.0000 
     76 CA        -22.9035  -33.0645   17.7843 C.3       2 GLC5        0.0000 
     77 CA        -21.5630  -33.5970   19.2000 C.3       6 GLL5        0.0000 
     78 CA        -22.2059  -34.7219   16.3718 C.3       2 GLC5        0.0000 
     79 CA        -20.4460  -33.8360   16.9690 C.3       6 GLL5        0.0000 
     80 CA        -23.5260  -34.2660   15.1530 C.3       4 GLP5        0.0000 
     81 CA        -19.1671  -31.7431   23.1306 C.3       2 GLC5        0.0000 
     82 CA        -19.9710  -31.4780   20.7020 C.3       6 GLL5        0.0000 
     83 CA        -15.7048  -31.4550   22.0945 C.3       2 GLC5        0.0000 
     84 CA        -13.8727  -32.3050   24.5390 C.3       2 GLC5        0.0000 
     85 CA        -13.2140  -30.5330   23.9780 C.3       4 GLP5        0.0000 
@<TRIPOS>BOND
@<TRIPOS>SUBSTRUCTURE
     1 ALC1       46 GROUP        1 X    ALC  0     ROOT ALC X 1
     2 GLC5        1 GROUP        1 X    GLC  0     **** GLC X 6
     3 ALP1       48 GROUP        1 Y    ALP  0     ROOT ALP Y 8
     4 GLP5        3 GROUP        1 Y    GLP  0     **** GLP Y 13
     5 ALL1       47 GROUP        1 Z    ALL  0     ROOT ALL Z 15
     6 GLL5        2 GROUP        1 Z    GLL  0     **** GLL Z 20
@<TRIPOS>SET

