#    Name: 1d3d_BZT_1_ligand
#    Modification time : Mon Mar 24 21:22:37 2014

@<TRIPOS>MOLECULE
1d3d_BZT_1_ligand
   75    80     1     0     0
SMALL
NO_CHARGES


@<TRIPOS>ATOM
      1 C1        -24.0350  -30.4500   24.2640 C.ar      1 BZT400      0.0000 
      2 C2        -24.3170  -31.5200   23.3160 C.ar      1 BZT400      0.0000 
      3 C3        -23.4150  -31.8990   22.2780 C.ar      1 BZT400      0.0000 
      4 C4        -22.1640  -31.2090   22.1440 C.ar      1 BZT400      0.0000 
      5 C5        -21.8720  -30.1510   23.0670 C.ar      1 BZT400      0.0000 
      6 C6        -22.7970  -29.7740   24.1230 C.ar      1 BZT400      0.0000 
      7 S1        -23.5320  -33.1090   21.0650 S.3       1 BZT400      0.0000 
      8 C8        -22.0620  -32.7980   20.3770 C.2       1 BZT400      0.0000 
      9 C9        -21.3850  -31.7250   21.0720 C.2       1 BZT400      0.0000 
     10 C7        -19.9710  -31.4780   20.7020 C.3       1 BZT400      0.0000 
     11 C10       -21.5630  -33.5970   19.2000 C.ar      1 BZT400      0.0000 
     12 C12       -20.9090  -33.0210   18.0190 C.ar      1 BZT400      0.0000 
     13 C14       -20.4460  -33.8360   16.9690 C.ar      1 BZT400      0.0000 
     14 C16       -20.5930  -35.2450   17.0130 C.ar      1 BZT400      0.0000 
     15 C18       -21.2520  -35.8150   18.1900 C.ar      1 BZT400      0.0000 
     16 C20       -21.7360  -35.0190   19.2830 C.ar      1 BZT400      0.0000 
     17 O2        -20.0690  -35.9550   15.8820 O.3       1 BZT400      0.0000 
     18 C24       -20.1990  -37.4370   15.8820 C.3       1 BZT400      0.0000 
     19 C11       -19.0980  -33.6610   21.9920 C.ar      1 BZT400      0.0000 
     20 C13       -18.8100  -32.5210   21.1830 C.ar      1 BZT400      0.0000 
     21 C15       -17.4520  -32.3350   20.7780 C.ar      1 BZT400      0.0000 
     22 C32       -16.4170  -33.2730   21.1780 C.ar      1 BZT400      0.0000 
     23 C19       -16.7000  -34.4010   21.9880 C.ar      1 BZT400      0.0000 
     24 C21       -18.0690  -34.5420   22.3680 C.ar      1 BZT400      0.0000 
     25 BR1       -14.7860  -32.8190   20.5240 Br        1 BZT400      0.0000 
     26 C31       -15.6910  -35.4540   22.4810 C.3       1 BZT400      0.0000 
     27 C17       -14.2590  -35.6570   25.9730 C.3       1 BZT400      0.0000 
     28 C23       -14.4620  -34.1290   25.8850 C.3       1 BZT400      0.0000 
     29 C26       -14.6010  -34.0250   24.3150 C.3       1 BZT400      0.0000 
     30 N2        -15.2820  -35.3250   23.8710 N.4       1 BZT400      0.0000 
     31 C27       -14.3020  -36.2570   24.5330 C.3       1 BZT400      0.0000 
     32 C22       -17.3350  -38.2190   13.5550 C.3       1 BZT400      0.0000 
     33 N3        -18.1380  -38.5400   14.7330 N.4       1 BZT400      0.0000 
     34 C28       -17.8940  -39.9830   14.8510 C.3       1 BZT400      0.0000 
     35 C29       -16.3620  -39.9680   14.9020 C.3       1 BZT400      0.0000 
     36 C30       -15.9450  -38.7570   14.0180 C.3       1 BZT400      0.0000 
     37 C34       -19.6010  -38.1560   14.6320 C.3       1 BZT400      0.0000 
     38 O1        -24.8940  -30.0890   25.2580 O.3       1 BZT400      0.0000 
     39 H         -25.2168  -32.0206   23.4106 H         1 BZT400      0.0000 
     40 H         -20.9869  -29.6405   22.9865 H         1 BZT400      0.0000 
     41 H         -22.5407  -29.0211   24.7544 H         1 BZT400      0.0000 
     42 H         -19.6310  -30.4714   21.0721 H         1 BZT400      0.0000 
     43 H         -19.8565  -31.4082   19.5850 H         1 BZT400      0.0000 
     44 H         -20.7998  -32.0051   17.9827 H         1 BZT400      0.0000 
     45 H         -19.9915  -33.4047   16.1519 H         1 BZT400      0.0000 
     46 H         -21.3688  -36.8398   18.2249 H         1 BZT400      0.0000 
     47 H         -22.1766  -35.4402   20.0715 H         1 BZT400      0.0000 
     48 H         -21.2667  -37.7283   15.9517 H         1 BZT400      0.0000 
     49 H         -19.7050  -37.8653   16.7777 H         1 BZT400      0.0000 
     50 H         -20.0594  -33.8293   22.2944 H         1 BZT400      0.0000 
     51 H         -17.1956  -31.5362   20.2003 H         1 BZT400      0.0000 
     52 H         -18.3168  -35.3677   22.9732 H         1 BZT400      0.0000 
     53 H         -14.8044  -35.4055   21.8047 H         1 BZT400      0.0000 
     54 H         -16.1427  -36.4578   22.2962 H         1 BZT400      0.0000 
     55 H         -15.0510  -36.0926   26.5556 H         1 BZT400      0.0000 
     56 H         -13.2993  -35.8683   26.4098 H         1 BZT400      0.0000 
     57 H         -13.6057  -33.6363   26.1774 H         1 BZT400      0.0000 
     58 H         -15.3578  -33.8610   26.3176 H         1 BZT400      0.0000 
     59 H         -13.6285  -33.9555   23.8950 H         1 BZT400      0.0000 
     60 H         -15.2150  -33.1897   24.0862 H         1 BZT400      0.0000 
     61 H         -16.1908  -35.3596   24.5684 H         1 BZT400      0.0000 
     62 H         -14.6855  -37.2306   24.5848 H         1 BZT400      0.0000 
     63 H         -13.3507  -36.1695   24.1028 H         1 BZT400      0.0000 
     64 H         -17.2499  -37.1826   13.4025 H         1 BZT400      0.0000 
     65 H         -17.6327  -38.7679   12.7095 H         1 BZT400      0.0000 
     66 H         -17.6829  -38.0536   15.5957 H         1 BZT400      0.0000 
     67 H         -18.2020  -40.4998   13.9907 H         1 BZT400      0.0000 
     68 H         -18.2621  -40.3655   15.7566 H         1 BZT400      0.0000 
     69 H         -15.9751  -40.8588   14.4755 H         1 BZT400      0.0000 
     70 H         -16.0327  -39.8016   15.8965 H         1 BZT400      0.0000 
     71 H         -15.4716  -38.0371   14.6083 H         1 BZT400      0.0000 
     72 H         -15.4082  -39.0954   13.1884 H         1 BZT400      0.0000 
     73 H         -19.7500  -37.4927   13.7573 H         1 BZT400      0.0000 
     74 H         -20.2091  -39.0620   14.4403 H         1 BZT400      0.0000 
     75 H         -25.7761  -30.4774   24.9913 H         1 BZT400      0.0000 
@<TRIPOS>BOND
     1    2    1 ar   
     2    6    1 ar   
     3   38    1 1    
     4    3    2 ar   
     5   39    2 1    
     6    4    3 ar   
     7    7    3 1    
     8    5    4 ar   
     9    9    4 1    
    10    6    5 ar   
    11   40    5 1    
    12   41    6 1    
    13    8    7 1    
    14    9    8 2    
    15   11    8 1    
    16   10    9 1    
    17   20   10 1    
    18   42   10 1    
    19   43   10 1    
    20   12   11 ar   
    21   16   11 ar   
    22   13   12 ar   
    23   44   12 1    
    24   14   13 ar   
    25   45   13 1    
    26   15   14 ar   
    27   17   14 1    
    28   16   15 ar   
    29   46   15 1    
    30   47   16 1    
    31   18   17 1    
    32   37   18 1    
    33   48   18 1    
    34   49   18 1    
    35   20   19 ar   
    36   24   19 ar   
    37   50   19 1    
    38   21   20 ar   
    39   22   21 ar   
    40   51   21 1    
    41   23   22 ar   
    42   25   22 1    
    43   24   23 ar   
    44   26   23 1    
    45   52   24 1    
    46   30   26 1    
    47   53   26 1    
    48   54   26 1    
    49   28   27 1    
    50   31   27 1    
    51   55   27 1    
    52   56   27 1    
    53   29   28 1    
    54   57   28 1    
    55   58   28 1    
    56   30   29 1    
    57   59   29 1    
    58   60   29 1    
    59   31   30 1    
    60   61   30 1    
    61   62   31 1    
    62   63   31 1    
    63   33   32 1    
    64   36   32 1    
    65   64   32 1    
    66   65   32 1    
    67   34   33 1    
    68   37   33 1    
    69   66   33 1    
    70   35   34 1    
    71   67   34 1    
    72   68   34 1    
    73   36   35 1    
    74   69   35 1    
    75   70   35 1    
    76   71   36 1    
    77   72   36 1    
    78   73   37 1    
    79   74   37 1    
    80   75   38 1    
@<TRIPOS>SUBSTRUCTURE
     1 BZT400      1 GROUP   
@<TRIPOS>SET

