#    Name: 4feh_FAD_1_INTS_M
#    Modification time : Mon Mar 24 19:27:49 2014

@<TRIPOS>MOLECULE
4feh_FAD_1_INTS_M
  128     0     9     0     0
SMALL
NO_CHARGES


@<TRIPOS>ATOM
      1 N          36.7990    0.9835    6.7950 N.am      2 SEC2        0.0000 
      2 N          37.1630    0.0170    5.8040 N.am      8 SEL2        0.0000 
      3 N          36.4350    1.9500    7.7860 N.am      5 SEP2        0.0000 
      4 N          39.0310   -3.1940    4.6335 N.am      2 SEC2        0.0000 
      5 N          38.2940   -2.2670    5.2300 N.am      8 SEL2        0.0000 
      6 N          39.7680   -4.1210    4.0370 N.am      5 SEP2        0.0000 
      7 N          38.5285   -2.3355    6.6800 N.am      2 SEC2        0.0000 
      8 N          38.7630   -2.4040    8.1300 N.am      5 SEP2        0.0000 
      9 CA         36.0785    1.4400    4.3310 C.3       3 GLC5        0.0000 
     10 CA         36.9700    0.5650    2.9430 C.3       9 GLL5        0.0000 
     11 CA         35.1870    2.3150    5.7190 C.3       6 GLP5        0.0000 
     12 CA         35.9160   -1.1905    3.4395 C.3       3 GLC5        0.0000 
     13 CA         34.8620   -2.9460    3.9360 C.3       6 GLP5        0.0000 
     14 CA         37.9860    1.0985   -0.2580 C.3       3 GLC5        0.0000 
     15 CA         36.7820    0.5520    1.4300 C.3       9 GLL5        0.0000 
     16 CA         39.1900    1.6450   -1.9460 C.3       6 GLP5        0.0000 
     17 CA         33.9820    0.1430    1.0985 C.3       3 GLC5        0.0000 
     18 CA         35.8310   -0.5570    0.9790 C.3       9 GLL5        0.0000 
     19 CA         32.1330    0.8430    1.2180 C.3       6 GLP5        0.0000 
     20 O          34.7595   -0.3000   -1.5350 O.2       1 ALC1        0.0000 
     21 O          35.0730   -0.1050   -0.1540 O.2       7 ALL1        0.0000 
     22 O          34.4460   -0.4950   -2.9160 O.2       4 ALP1        0.0000 
     23 O          36.4225   -3.6490    0.0635 O.2       1 ALC1        0.0000 
     24 O          36.1700   -2.4140   -0.5310 O.2       7 ALL1        0.0000 
     25 O          36.6750   -4.8840    0.6580 O.2       4 ALP1        0.0000 
     26 CA         39.6895    0.1855    0.8845 C.3       3 GLC5        0.0000 
     27 CA         37.9540   -0.8590   -0.0300 C.3       9 GLL5        0.0000 
     28 CA         41.4250    1.2300    1.7990 C.3       6 GLP5        0.0000 
     29 CA         38.5720    0.3930   -0.9880 C.3       3 GLC5        0.0000 
     30 CA         37.3075   -1.1825   -2.1240 C.3       3 GLC5        0.0000 
     31 CA         36.6610   -1.5060   -4.2180 C.3       6 GLP5        0.0000 
     32 CA         42.0885   -5.2930   -0.7590 C.3       3 GLC5        0.0000 
     33 CA         41.7500   -3.3510   -1.7390 C.3       9 GLL5        0.0000 
     34 CA         42.4270   -7.2350    0.2210 C.3       6 GLP5        0.0000 
     35 CA         42.9355   -2.7610   -3.2925 C.3       3 GLC5        0.0000 
     36 CA         44.1210   -2.1710   -4.8460 C.3       6 GLP5        0.0000 
     37 O          43.8155   -4.3950   -2.4780 O.2       1 ALC1        0.0000 
     38 O          42.8980   -3.9860   -1.3930 O.2       7 ALL1        0.0000 
     39 O          44.7330   -4.8040   -3.5630 O.2       4 ALP1        0.0000 
     40 N          42.0245   -3.7140   -4.2080 N.am      2 SEC2        0.0000 
     41 N          41.3570   -3.3000   -3.0310 N.am      8 SEL2        0.0000 
     42 N          42.6920   -4.1280   -5.3850 N.am      5 SEP2        0.0000 
     43 CA         39.6640   -4.1620   -2.3720 C.3       3 GLC5        0.0000 
     44 CA         40.2210   -2.6600   -3.3810 C.3       9 GLL5        0.0000 
     45 CA         39.1070   -5.6640   -1.3630 C.3       6 GLP5        0.0000 
     46 CA         38.4410   -2.0830   -3.7995 C.3       3 GLC5        0.0000 
     47 CA         40.6015   -4.2210   -4.6290 C.3       3 GLC5        0.0000 
     48 CA         40.9820   -5.7820   -5.8770 C.3       6 GLP5        0.0000 
     49 CA         41.6245   -1.9575   -4.4035 C.3       3 GLC5        0.0000 
     50 CA         43.0280   -1.2550   -5.4260 C.3       6 GLP5        0.0000 
     51 CA         39.4985   -0.2290   -1.5440 C.3       3 GLC5        0.0000 
     52 CA         39.8070   -2.1030   -1.1420 C.3       9 GLL5        0.0000 
     53 CA         38.2340   -1.8045   -2.6800 C.3       3 GLC5        0.0000 
     54 N          38.6335    9.0700    4.7655 N.am      2 SEC2        0.0000 
     55 N          39.2010    9.0950    6.4030 N.am      8 SEL2        0.0000 
     56 N          38.0660    9.0450    3.1280 N.am      5 SEP2        0.0000 
     57 N          40.6880   11.0320    3.7715 N.am      2 SEC2        0.0000 
     58 N          39.7010   10.4350    4.5630 N.am      8 SEL2        0.0000 
     59 N          41.6750   11.6290    2.9800 N.am      5 SEP2        0.0000 
     60 N          38.8835    9.7400    3.8455 N.am      2 SEC2        0.0000 
     61 O          41.3675   11.7805    6.0655 O.2       1 ALC1        0.0000 
     62 O          40.3100   11.1640    6.6790 O.2       7 ALL1        0.0000 
     63 O          42.4250   12.3970    5.4520 O.2       4 ALP1        0.0000 
     64 N          41.9420   11.1610    9.6165 N.am      2 SEC2        0.0000 
     65 N          40.9560   11.8980    8.8120 N.am      8 SEL2        0.0000 
     66 N          42.9280   10.4240   10.4210 N.am      5 SEP2        0.0000 
     67 N          41.3905    9.9985   10.1785 N.am      2 SEC2        0.0000 
     68 N          39.8530    9.5730    9.9360 N.am      8 SEL2        0.0000 
     69 CA         36.4315    4.0925   13.2010 C.3       3 GLC5        0.0000 
     70 CA         37.6800    4.8500   12.2360 C.3       9 GLL5        0.0000 
     71 CA         35.1830    3.3350   14.1660 C.3       6 GLP5        0.0000 
     72 CA         38.8250    3.4050   11.6705 C.3       3 GLC5        0.0000 
     73 CA         39.9700    1.9600   11.1050 C.3       6 GLP5        0.0000 
     74 CA         36.2035    5.6450   11.8270 C.3       3 GLC5        0.0000 
     75 CA         34.7270    6.4400   11.4180 C.3       6 GLP5        0.0000 
     76 CA         38.7355    4.2020    9.9820 C.3       3 GLC5        0.0000 
     77 CA         38.1870    6.2770   10.2240 C.3       9 GLL5        0.0000 
     78 CA         39.2840    2.1270    9.7400 C.3       6 GLP5        0.0000 
     79 CA         36.6575    6.7165    5.8850 C.3       3 GLC5        0.0000 
     80 CA         38.0740    6.7060    7.3150 C.3       9 GLL5        0.0000 
     81 CA         35.2410    6.7270    4.4550 C.3       6 GLP5        0.0000 
     82 CA         40.8770    4.8165    7.4610 C.3       3 GLC5        0.0000 
     83 CA         39.1740    5.7580    6.8200 C.3       9 GLL5        0.0000 
     84 CA         42.5800    3.8750    8.1020 C.3       6 GLP5        0.0000 
     85 CA         37.0480    3.9350    6.3435 C.3       3 GLC5        0.0000 
     86 CA         38.7390    5.1540    5.4990 C.3       9 GLL5        0.0000 
     87 CA         35.3570    2.7160    7.1880 C.3       6 GLP5        0.0000 
     88 CA         36.9900    5.9405    4.9770 C.3       3 GLC5        0.0000 
     89 O          39.9820    3.6070    2.6015 O.2       1 ALC1        0.0000 
     90 O          39.1680    3.6590    3.7070 O.2       7 ALL1        0.0000 
     91 O          40.7960    3.5550    1.4960 O.2       4 ALP1        0.0000 
     92 CA         39.5405    2.5010    7.8325 C.3       3 GLC5        0.0000 
     93 CA         39.7970    2.8750    5.9250 C.3       9 GLL5        0.0000 
     94 N          41.4595   -1.6655    6.1070 N.am      2 SEC2        0.0000 
     95 N          41.7930   -0.4240    5.2750 N.am      8 SEL2        0.0000 
     96 N          41.1260   -2.9070    6.9390 N.am      5 SEP2        0.0000 
     97 N          43.1445   -0.0345    5.4895 N.am      2 SEC2        0.0000 
     98 N          44.4960    0.3550    5.7040 N.am      5 SEP2        0.0000 
     99 N          42.6750   -0.8720    4.3830 N.am      2 SEC2        0.0000 
    100 N          43.5570   -1.3200    3.4910 N.am      5 SEP2        0.0000 
    101 N          40.5810   -1.3795    7.0405 N.am      2 SEC2        0.0000 
    102 N          40.0360    0.1480    7.1420 N.am      8 SEL2        0.0000 
    103 N          39.0370    0.1335    8.0650 N.am      2 SEC2        0.0000 
    104 N          38.0380    0.1190    8.9880 N.am      5 SEP2        0.0000 
    105 CA         36.8330    2.4777    1.9533 C.3       3 GLC5        0.0000 
    106 CA         36.7900    4.3970    1.7200 C.3       6 GLP5        0.0000 
    107 CA         35.5815   -2.0270    2.3418 C.3       3 GLC5        0.0000 
    108 CA         42.6983   -1.7900   -0.7973 C.3       3 GLC5        0.0000 
    109 CA         40.9670   -2.7470   -0.7660 C.3       9 GLL5        0.0000 
    110 CA         44.0380   -0.5310   -0.3420 C.3       6 GLP5        0.0000 
    111 CA         39.8449   -4.1200   -1.2801 C.3       3 GLC5        0.0000 
    112 CA         41.1193    9.4260   11.5288 C.3       3 GLC5        0.0000 
    113 CA         39.3530    8.4620   10.5020 C.3       9 GLL5        0.0000 
    114 CA         42.8530   10.4780   11.8680 C.3       6 GLP5        0.0000 
    115 CA         40.6822    6.9460   11.4678 C.3       3 GLC5        0.0000 
    116 CA         39.4180    8.2860   11.8770 C.3       9 GLL5        0.0000 
    117 CA         41.9790    5.5180   11.7460 C.3       6 GLP5        0.0000 
    118 CA         40.4592    6.2835   12.4793 C.3       3 GLC5        0.0000 
    119 CA         38.9010    7.1360   12.4620 C.3       9 GLL5        0.0000 
    120 CA         39.9740    5.4952   11.8340 C.3       3 GLC5        0.0000 
    121 CA         38.2580    6.0950   11.6080 C.3       9 GLL5        0.0000 
    122 CA         40.2150    6.1870   10.8400 C.3       3 GLC5        0.0000 
    123 CA         38.6212    5.1425    3.2610 C.3       3 GLC5        0.0000 
    124 CA         38.0280    5.6670    1.2860 C.3       6 GLP5        0.0000 
    125 CA         41.1617    3.6768    6.7755 C.3       3 GLC5        0.0000 
    126 CA         39.6900    4.0820    4.9730 C.3       9 GLL5        0.0000 
    127 CA         40.2531    6.0150    4.4241 C.3       3 GLC5        0.0000 
    128 CA         41.1830    7.2610    3.2820 C.3       6 GLP5        0.0000 
@<TRIPOS>BOND
@<TRIPOS>SUBSTRUCTURE
     1 ALC1       20 GROUP        1 X    ALC  0     ROOT ALC X 1
     2 SEC2        1 GROUP        1 X    SEC  0     **** SEC X 2
     3 GLC5        9 GROUP        1 X    GLC  0     **** GLC X 6
     4 ALP1       22 GROUP        1 Y    ALP  0     ROOT ALP Y 8
     5 SEP2        3 GROUP        1 Y    SEP  0     **** SEP Y 9
     6 GLP5       11 GROUP        1 Y    GLP  0     **** GLP Y 13
     7 ALL1       21 GROUP        1 Z    ALL  0     ROOT ALL Z 15
     8 SEL2        2 GROUP        1 Z    SEL  0     **** SEL Z 16
     9 GLL5       10 GROUP        1 Z    GLL  0     **** GLL Z 20
@<TRIPOS>SET

