#    Name: 4feh_FAD_1_ligand
#    Modification time : Mon Mar 24 19:27:49 2014

@<TRIPOS>MOLECULE
4feh_FAD_1_ligand
   84    89     1     0     0
SMALL
NO_CHARGES


@<TRIPOS>ATOM
      1 PA         38.0160   -0.8230    4.9090 P.3       1 FAD900      0.0000 
      2 O1A        37.1630    0.0170    5.8040 O.co2     1 FAD900      0.0000 
      3 O2A        38.2940   -2.2670    5.2300 O.co2     1 FAD900      0.0000 
      4 O5B        37.4120   -0.7160    3.4200 O.3       1 FAD900      0.0000 
      5 C5B        36.9700    0.5650    2.9430 C.3       1 FAD900      0.0000 
      6 C4B        36.7820    0.5520    1.4300 C.3       1 FAD900      0.0000 
      7 O4B        38.0600    0.2820    0.8140 O.3       1 FAD900      0.0000 
      8 C3B        35.8310   -0.5570    0.9790 C.3       1 FAD900      0.0000 
      9 O3B        35.0730   -0.1050   -0.1540 O.3       1 FAD900      0.0000 
     10 C2B        36.7710   -1.6590    0.5160 C.3       1 FAD900      0.0000 
     11 O2B        36.1700   -2.4140   -0.5310 O.3       1 FAD900      0.0000 
     12 C1B        37.9540   -0.8590   -0.0300 C.3       1 FAD900      0.0000 
     13 N9A        39.2330   -1.6160   -0.0340 N.pl3     1 FAD900      0.0000 
     14 C8A        39.9990   -1.9400    1.0200 C.2       1 FAD900      0.0000 
     15 N7A        41.0760   -2.6310    0.5760 N.2       1 FAD900      0.0000 
     16 C5A        40.9670   -2.7470   -0.7660 C.ar      1 FAD900      0.0000 
     17 C6A        41.7500   -3.3510   -1.7390 C.ar      1 FAD900      0.0000 
     18 N6A        42.8980   -3.9860   -1.3930 N.pl3     1 FAD900      0.0000 
     19 N1A        41.3570   -3.3000   -3.0310 N.ar      1 FAD900      0.0000 
     20 C2A        40.2210   -2.6600   -3.3810 C.ar      1 FAD900      0.0000 
     21 N3A        39.4480   -2.0680   -2.4500 N.ar      1 FAD900      0.0000 
     22 C4A        39.8070   -2.1030   -1.1420 C.ar      1 FAD900      0.0000 
     23 N1         39.2010    9.0950    6.4030 N.2       1 FAD900      0.0000 
     24 C2         39.7380   10.2270    5.8940 C.2       1 FAD900      0.0000 
     25 O2         39.7010   10.4350    4.5630 O.2       1 FAD900      0.0000 
     26 N3         40.3100   11.1640    6.6790 N.am      1 FAD900      0.0000 
     27 C4         40.3740   10.9880    8.0090 C.2       1 FAD900      0.0000 
     28 O4         40.9560   11.8980    8.8120 O.2       1 FAD900      0.0000 
     29 C4X        39.8090    9.7590    8.6000 C.2       1 FAD900      0.0000 
     30 N5         39.8530    9.5730    9.9360 N.2       1 FAD900      0.0000 
     31 C5X        39.3530    8.4620   10.5020 C.ar      1 FAD900      0.0000 
     32 C6         39.4180    8.2860   11.8770 C.ar      1 FAD900      0.0000 
     33 C7         38.9010    7.1360   12.4620 C.ar      1 FAD900      0.0000 
     34 C7M        38.9780    6.9620   13.9630 C.3       1 FAD900      0.0000 
     35 C8         38.2580    6.0950   11.6080 C.ar      1 FAD900      0.0000 
     36 C8M        37.6800    4.8500   12.2360 C.3       1 FAD900      0.0000 
     37 C9         38.1870    6.2770   10.2240 C.ar      1 FAD900      0.0000 
     38 C9A        38.7150    7.4350    9.6440 C.ar      1 FAD900      0.0000 
     39 N10        38.6620    7.6670    8.2490 N.pl3     1 FAD900      0.0000 
     40 C10        39.2230    8.8480    7.7380 C.2       1 FAD900      0.0000 
     41 C1'        38.0740    6.7060    7.3150 C.3       1 FAD900      0.0000 
     42 C2'        39.1740    5.7580    6.8200 C.3       1 FAD900      0.0000 
     43 O2'        40.4290    6.4240    6.6380 O.3       1 FAD900      0.0000 
     44 C3'        38.7390    5.1540    5.4990 C.3       1 FAD900      0.0000 
     45 O3'        37.4780    4.5650    5.7750 O.3       1 FAD900      0.0000 
     46 C4'        39.6900    4.0820    4.9730 C.3       1 FAD900      0.0000 
     47 O4'        39.1680    3.6590    3.7070 O.3       1 FAD900      0.0000 
     48 C5'        39.7970    2.8750    5.9250 C.3       1 FAD900      0.0000 
     49 O5'        40.7490    1.9020    5.4480 O.3       1 FAD900      0.0000 
     50 P          40.5540    0.3200    5.7230 P.3       1 FAD900      0.0000 
     51 O1P        41.7930   -0.4240    5.2750 O.co2     1 FAD900      0.0000 
     52 O2P        40.0360    0.1480    7.1420 O.co2     1 FAD900      0.0000 
     53 O3P        39.4360   -0.0860    4.6330 O.3       1 FAD900      0.0000 
     54 H          37.6965    1.3558    3.1856 H         1 FAD900      0.0000 
     55 H          36.0106    0.8537    3.3994 H         1 FAD900      0.0000 
     56 H          36.3981    1.4918    1.1086 H         1 FAD900      0.0000 
     57 H          35.2667   -0.8859    1.7775 H         1 FAD900      0.0000 
     58 H          37.0866   -2.2123    1.3391 H         1 FAD900      0.0000 
     59 H          37.7008   -0.5502   -1.0361 H         1 FAD900      0.0000 
     60 H          39.8180   -1.7200    1.9445 H         1 FAD900      0.0000 
     61 H          43.1024   -4.0236   -0.4148 H         1 FAD900      0.0000 
     62 H          43.4382   -4.3603   -2.1467 H         1 FAD900      0.0000 
     63 H          39.9383   -2.6240   -4.3892 H         1 FAD900      0.0000 
     64 H          40.7045   12.0303    6.2469 H         1 FAD900      0.0000 
     65 H          39.8515    9.0109   12.4681 H         1 FAD900      0.0000 
     66 H          37.7482    5.5623    9.6340 H         1 FAD900      0.0000 
     67 H          37.6452    7.2103    6.4522 H         1 FAD900      0.0000 
     68 H          37.3034    6.1105    7.7989 H         1 FAD900      0.0000 
     69 H          39.2608    4.9475    7.5362 H         1 FAD900      0.0000 
     70 H          38.6416    5.9367    4.7771 H         1 FAD900      0.0000 
     71 H          40.6638    4.5195    4.8557 H         1 FAD900      0.0000 
     72 H          38.7903    2.4390    6.0206 H         1 FAD900      0.0000 
     73 H          40.0791    3.2605    6.9173 H         1 FAD900      0.0000 
     74 H          39.9231    6.9701   14.2898 H         1 FAD900      0.0000 
     75 H          38.4943    7.6914   14.4467 H         1 FAD900      0.0000 
     76 H          38.5733    6.0964   14.2578 H         1 FAD900      0.0000 
     77 H          38.3750    4.3248   12.7271 H         1 FAD900      0.0000 
     78 H          36.9577    5.0664   12.8928 H         1 FAD900      0.0000 
     79 H          37.2807    4.2399   11.5516 H         1 FAD900      0.0000 
     80 H          35.3387   -0.7130   -0.9022 H         1 FAD900      0.0000 
     81 H          35.8171   -3.2374   -0.0866 H         1 FAD900      0.0000 
     82 H          41.1043    5.8257    7.0694 H         1 FAD900      0.0000 
     83 H          37.6748    3.5989    5.9423 H         1 FAD900      0.0000 
     84 H          39.9406    3.7203    3.0751 H         1 FAD900      0.0000 
@<TRIPOS>BOND
     1    2    1 ar   
     2    3    1 ar   
     3    4    1 1    
     4   53    1 1    
     5    5    4 1    
     6    6    5 1    
     7   54    5 1    
     8   55    5 1    
     9    7    6 1    
    10    8    6 1    
    11   56    6 1    
    12   12    7 1    
    13    9    8 1    
    14   10    8 1    
    15   57    8 1    
    16   80    9 1    
    17   11   10 1    
    18   12   10 1    
    19   58   10 1    
    20   81   11 1    
    21   13   12 1    
    22   59   12 1    
    23   14   13 1    
    24   22   13 1    
    25   15   14 2    
    26   60   14 1    
    27   16   15 1    
    28   17   16 ar   
    29   22   16 ar   
    30   18   17 1    
    31   19   17 ar   
    32   61   18 1    
    33   62   18 1    
    34   20   19 ar   
    35   21   20 ar   
    36   63   20 1    
    37   22   21 ar   
    38   24   23 1    
    39   40   23 2    
    40   25   24 2    
    41   26   24 am   
    42   27   26 am   
    43   64   26 1    
    44   28   27 2    
    45   29   27 1    
    46   30   29 2    
    47   40   29 1    
    48   31   30 1    
    49   32   31 ar   
    50   38   31 ar   
    51   33   32 ar   
    52   65   32 1    
    53   34   33 1    
    54   35   33 ar   
    55   74   34 1    
    56   75   34 1    
    57   76   34 1    
    58   36   35 1    
    59   37   35 ar   
    60   77   36 1    
    61   78   36 1    
    62   79   36 1    
    63   38   37 ar   
    64   66   37 1    
    65   39   38 1    
    66   40   39 1    
    67   41   39 1    
    68   42   41 1    
    69   67   41 1    
    70   68   41 1    
    71   43   42 1    
    72   44   42 1    
    73   69   42 1    
    74   82   43 1    
    75   45   44 1    
    76   46   44 1    
    77   70   44 1    
    78   83   45 1    
    79   47   46 1    
    80   48   46 1    
    81   71   46 1    
    82   84   47 1    
    83   49   48 1    
    84   72   48 1    
    85   73   48 1    
    86   50   49 1    
    87   51   50 ar   
    88   52   50 ar   
    89   53   50 1    
@<TRIPOS>SUBSTRUCTURE
     1 FAD900      1 GROUP   
@<TRIPOS>SET

