#    Name: 1qxl_FR8_1_INTS_M
#    Modification time : Tue Mar 25 00:02:26 2014

@<TRIPOS>MOLECULE
1qxl_FR8_1_INTS_M
   73     0     9     0     0
SMALL
NO_CHARGES


@<TRIPOS>ATOM
      1 CA         53.2765   54.0580   22.2770 C.3       3 GLC5        0.0000 
      2 CA         51.6200   54.4570   20.8610 C.3       9 GLL5        0.0000 
      3 CA         54.9330   53.6590   23.6930 C.3       6 GLP5        0.0000 
      4 N          51.6390   52.7495   24.0410 N.am      2 SEC2        0.0000 
      5 N          51.7180   53.4410   22.8880 N.am      8 SEL2        0.0000 
      6 N          51.5600   52.0580   25.1940 N.am      5 SEP2        0.0000 
      7 CA         53.3010   52.8035   22.3345 C.3       3 GLC5        0.0000 
      8 CA         51.5590   53.2580   21.4380 C.3       9 GLL5        0.0000 
      9 CA         55.0430   52.3490   23.2310 C.3       6 GLP5        0.0000 
     10 O          51.5635   50.4345   22.8850 O.2       1 ALC1        0.0000 
     11 O          51.4620   50.8560   21.4520 O.2       7 ALL1        0.0000 
     12 O          51.6650   50.0130   24.3180 O.2       4 ALP1        0.0000 
     13 O          51.2740   49.4290   21.1395 O.2       1 ALC1        0.0000 
     14 O          51.0860   48.0020   20.8270 O.2       4 ALP1        0.0000 
     15 N          54.5445   55.6270   22.6940 N.am      2 SEC2        0.0000 
     16 N          54.0170   56.8090   22.7800 N.am      8 SEL2        0.0000 
     17 N          55.0720   54.4450   22.6080 N.am      5 SEP2        0.0000 
     18 O          53.5610   57.0475   24.0240 O.2       1 ALC1        0.0000 
     19 O          54.0170   56.8090   22.7800 O.2       7 ALL1        0.0000 
     20 O          53.1050   57.2860   25.2680 O.2       4 ALP1        0.0000 
     21 O          52.9625   57.8180   23.5695 O.2       1 ALC1        0.0000 
     22 O          51.9080   58.8270   24.3590 O.2       4 ALP1        0.0000 
     23 CA         51.1000   58.0645   18.7560 C.3       3 GLC5        0.0000 
     24 CA         50.8830   57.2580   20.5730 C.3       9 GLL5        0.0000 
     25 CA         51.3170   58.8710   16.9390 C.3       6 GLP5        0.0000 
     26 CA         48.2560   55.8060   21.8660 C.3       3 GLC5        0.0000 
     27 CA         49.3530   57.1200   20.8080 C.3       9 GLL5        0.0000 
     28 CA         47.1590   54.4920   22.9240 C.3       6 GLP5        0.0000 
     29 CA         49.3670   59.8445   19.8790 C.3       3 GLC5        0.0000 
     30 CA         48.0790   58.5510   19.1000 C.3       9 GLL5        0.0000 
     31 CA         50.6550   61.1380   20.6580 C.3       6 GLP5        0.0000 
     32 CA         48.3185   54.3630   14.2615 C.3       3 GLC5        0.0000 
     33 CA         48.1520   55.0500   16.1290 C.3       9 GLL5        0.0000 
     34 CA         48.4850   53.6760   12.3940 C.3       6 GLP5        0.0000 
     35 CA         46.6060   50.7665   16.5450 C.3       3 GLC5        0.0000 
     36 CA         48.4510   49.8730   16.8750 C.3       9 GLL5        0.0000 
     37 CA         44.7610   51.6600   16.2150 C.3       6 GLP5        0.0000 
     38 CA         41.9870   47.1690   17.1160 C.3       3 GLC5        0.0000 
     39 CA         44.1590   46.9370   17.0080 C.3       9 GLL5        0.0000 
     40 CA         39.8150   47.4010   17.2240 C.3       6 GLP5        0.0000 
     41 CA         44.6300   48.9335   15.4740 C.3       3 GLC5        0.0000 
     42 CA         45.0680   46.8990   15.9670 C.3       9 GLL5        0.0000 
     43 CA         44.1920   50.9680   14.9810 C.3       6 GLP5        0.0000 
     44 CA         48.5530   47.2705   19.5255 C.3       3 GLC5        0.0000 
     45 CA         48.6290   49.0290   18.1250 C.3       9 GLL5        0.0000 
     46 CA         48.4770   45.5120   20.9260 C.3       6 GLP5        0.0000 
     47 CA         50.3865   59.1635   20.6743 C.3       3 GLC5        0.0000 
     48 CA         49.5777   58.6728   17.6945 C.3       3 GLC5        0.0000 
     49 CA         46.5287   56.2272   18.1225 C.3       3 GLC5        0.0000 
     50 CA         47.5980   58.3980   17.8000 C.3       9 GLL5        0.0000 
     51 CA         45.2990   54.7240   18.6530 C.3       6 GLP5        0.0000 
     52 CA         49.6480   57.7160   17.0121 C.3       3 GLC5        0.0000 
     53 CA         47.7070   56.3650   16.2330 C.3       9 GLL5        0.0000 
     54 CA         49.7272   55.4232   15.7505 C.3       3 GLC5        0.0000 
     55 CA         51.5250   55.1390   15.3200 C.3       6 GLP5        0.0000 
     56 CA         50.2163   54.9700   16.5673 C.3       3 GLC5        0.0000 
     57 CA         49.0050   55.1640   18.3980 C.3       9 GLL5        0.0000 
     58 CA         47.8515   50.4385   19.1850 C.3       3 GLC5        0.0000 
     59 CA         47.1630   51.4260   20.8700 C.3       6 GLP5        0.0000 
     60 CA         47.1268   45.9935   14.9805 C.3       3 GLC5        0.0000 
     61 CA         46.3970   47.1670   16.2550 C.3       9 GLL5        0.0000 
     62 CA         48.5210   44.9540   13.8500 C.3       6 GLP5        0.0000 
     63 CA         44.3485   48.9190   19.4765 C.3       3 GLC5        0.0000 
     64 CA         45.8770   47.5770   18.5710 C.3       9 GLL5        0.0000 
     65 CA         43.4810   50.4050   20.5200 C.3       6 GLP5        0.0000 
     66 CA         43.1975   48.7085   17.0382 C.3       3 GLC5        0.0000 
     67 CA         44.5550   47.2890   18.2950 C.3       9 GLL5        0.0000 
     68 CA         42.0380   50.3040   16.4250 C.3       6 GLP5        0.0000 
     69 CA         47.5735   46.0576   18.9186 C.3       3 GLC5        0.0000 
     70 CA         46.8070   47.4600   17.5560 C.3       9 GLL5        0.0000 
     71 CA         47.8540   44.5610   19.8720 C.3       6 GLP5        0.0000 
     72 CA         46.8324   55.0696   17.8312 C.3       3 GLC5        0.0000 
     73 CA         48.8100   54.4380   17.2310 C.3       9 GLL5        0.0000 
@<TRIPOS>BOND
@<TRIPOS>SUBSTRUCTURE
     1 ALC1       10 GROUP        1 X    ALC  0     ROOT ALC X 1
     2 SEC2        4 GROUP        1 X    SEC  0     **** SEC X 2
     3 GLC5        1 GROUP        1 X    GLC  0     **** GLC X 6
     4 ALP1       12 GROUP        1 Y    ALP  0     ROOT ALP Y 8
     5 SEP2        6 GROUP        1 Y    SEP  0     **** SEP Y 9
     6 GLP5        3 GROUP        1 Y    GLP  0     **** GLP Y 13
     7 ALL1       11 GROUP        1 Z    ALL  0     ROOT ALL Z 15
     8 SEL2        5 GROUP        1 Z    SEL  0     **** SEL Z 16
     9 GLL5        2 GROUP        1 Z    GLL  0     **** GLL Z 20
@<TRIPOS>SET

