#    Name: 1qxl_FR8_1_ligand
#    Modification time : Tue Mar 25 00:02:26 2014

@<TRIPOS>MOLECULE
1qxl_FR8_1_ligand
   66    69     1     0     0
SMALL
NO_CHARGES


@<TRIPOS>ATOM
      1 C1         51.6200   54.4570   20.8610 C.2       1 FR81001     0.0000 
      2 N2         51.7420   55.4290   21.9490 N.pl3     1 FR81001     0.0000 
      3 C3         51.7530   54.7620   23.0990 C.2       1 FR81001     0.0000 
      4 N4         51.7180   53.4410   22.8880 N.2       1 FR81001     0.0000 
      5 C5         51.5590   53.2580   21.4380 C.2       1 FR81001     0.0000 
      6 C8         51.3510   51.9560   20.7490 C.2       1 FR81001     0.0000 
      7 O9         51.1170   51.9070   19.5500 O.2       1 FR81001     0.0000 
      8 N10        51.4620   50.8560   21.4520 N.am      1 FR81001     0.0000 
      9 C13        51.7290   56.8740   21.8040 C.3       1 FR81001     0.0000 
     10 C14        53.1720   57.4710   21.7480 C.3       1 FR81001     0.0000 
     11 O15        54.0170   56.8090   22.7800 O.3       1 FR81001     0.0000 
     12 C18        50.8830   57.2580   20.5730 C.3       1 FR81001     0.0000 
     13 C19        49.3530   57.1200   20.8080 C.3       1 FR81001     0.0000 
     14 N22        48.6800   57.3870   19.5050 N.pl3     1 FR81001     0.0000 
     15 C27        48.0790   58.5510   19.1000 C.2       1 FR81001     0.0000 
     16 C28        47.5980   58.3980   17.8000 C.2       1 FR81001     0.0000 
     17 C29        47.9190   57.0630   17.3840 C.ar      1 FR81001     0.0000 
     18 C30        48.5830   56.4510   18.4910 C.ar      1 FR81001     0.0000 
     19 C31        47.7070   56.3650   16.2330 C.ar      1 FR81001     0.0000 
     20 C32        48.1520   55.0500   16.1290 C.ar      1 FR81001     0.0000 
     21 C33        48.8100   54.4380   17.2310 C.ar      1 FR81001     0.0000 
     22 C34        49.0050   55.1640   18.3980 C.ar      1 FR81001     0.0000 
     23 N1         49.3280   53.1940   17.2310 N.am      1 FR81001     0.0000 
     24 C2         49.0430   52.2480   16.3380 C.2       1 FR81001     0.0000 
     25 O1         48.4270   52.3840   15.3020 O.2       1 FR81001     0.0000 
     26 C4         49.5660   50.9080   16.7700 C.3       1 FR81001     0.0000 
     27 C6         48.4510   49.8730   16.8750 C.3       1 FR81001     0.0000 
     28 C7         46.3970   47.1670   16.2550 C.ar      1 FR81001     0.0000 
     29 C11        46.8070   47.4600   17.5560 C.ar      1 FR81001     0.0000 
     30 C9         45.8770   47.5770   18.5710 C.ar      1 FR81001     0.0000 
     31 C12        44.5550   47.2890   18.2950 C.ar      1 FR81001     0.0000 
     32 C10        44.1590   46.9370   17.0080 C.ar      1 FR81001     0.0000 
     33 C15        45.0680   46.8990   15.9670 C.ar      1 FR81001     0.0000 
     34 C16        48.6290   49.0290   18.1250 C.3       1 FR81001     0.0000 
     35 C17        48.2440   47.5900   17.8670 C.3       1 FR81001     0.0000 
     36 H          51.5965   54.7084   19.9612 H         1 FR81001     0.0000 
     37 H          51.7830   55.1815   23.9933 H         1 FR81001     0.0000 
     38 H          51.6255   50.9744   22.4314 H         1 FR81001     0.0000 
     39 H          51.3730   49.9988   20.9448 H         1 FR81001     0.0000 
     40 H          51.2330   57.3227   22.6815 H         1 FR81001     0.0000 
     41 H          53.1001   58.5357   21.9323 H         1 FR81001     0.0000 
     42 H          53.5671   57.2964   20.7550 H         1 FR81001     0.0000 
     43 H          51.1663   56.6180   19.7302 H         1 FR81001     0.0000 
     44 H          51.1021   58.2954   20.2976 H         1 FR81001     0.0000 
     45 H          49.0577   57.8426   21.5477 H         1 FR81001     0.0000 
     46 H          49.1514   56.1192   21.1462 H         1 FR81001     0.0000 
     47 H          47.9956   59.3531   19.6201 H         1 FR81001     0.0000 
     48 H          47.1501   59.0288   17.2800 H         1 FR81001     0.0000 
     49 H          47.2196   56.7978   15.4336 H         1 FR81001     0.0000 
     50 H          48.0128   54.5155   15.2700 H         1 FR81001     0.0000 
     51 H          49.4798   54.7059   19.2003 H         1 FR81001     0.0000 
     52 H          50.0266   52.9520   18.0174 H         1 FR81001     0.0000 
     53 H          50.0566   50.9992   17.7457 H         1 FR81001     0.0000 
     54 H          50.3119   50.5522   16.0501 H         1 FR81001     0.0000 
     55 H          48.4744   49.2306   15.9970 H         1 FR81001     0.0000 
     56 H          47.4908   50.3834   16.9155 H         1 FR81001     0.0000 
     57 H          47.1003   47.1505   15.4947 H         1 FR81001     0.0000 
     58 H          46.1622   47.8710   19.5076 H         1 FR81001     0.0000 
     59 H          43.8483   47.3340   19.0489 H         1 FR81001     0.0000 
     60 H          43.1651   46.7001   16.8311 H         1 FR81001     0.0000 
     61 H          44.7725   46.6815   15.0194 H         1 FR81001     0.0000 
     62 H          48.0054   49.4352   18.9246 H         1 FR81001     0.0000 
     63 H          49.6726   49.0752   18.4442 H         1 FR81001     0.0000 
     64 H          48.8485   47.2070   17.0322 H         1 FR81001     0.0000 
     65 H          48.4950   46.9927   18.7553 H         1 FR81001     0.0000 
     66 H          53.6168   57.0807   23.6552 H         1 FR81001     0.0000 
@<TRIPOS>BOND
     1    2    1 1    
     2    5    1 2    
     3   36    1 1    
     4    3    2 1    
     5    9    2 1    
     6    4    3 2    
     7   37    3 1    
     8    5    4 1    
     9    6    5 1    
    10    7    6 2    
    11    8    6 am   
    12   38    8 1    
    13   39    8 1    
    14   10    9 1    
    15   12    9 1    
    16   40    9 1    
    17   11   10 1    
    18   41   10 1    
    19   42   10 1    
    20   66   11 1    
    21   13   12 1    
    22   43   12 1    
    23   44   12 1    
    24   14   13 1    
    25   45   13 1    
    26   46   13 1    
    27   15   14 1    
    28   18   14 1    
    29   16   15 2    
    30   47   15 1    
    31   17   16 1    
    32   48   16 1    
    33   18   17 ar   
    34   19   17 ar   
    35   22   18 ar   
    36   20   19 ar   
    37   49   19 1    
    38   21   20 ar   
    39   50   20 1    
    40   22   21 ar   
    41   23   21 1    
    42   51   22 1    
    43   24   23 am   
    44   52   23 1    
    45   25   24 2    
    46   26   24 1    
    47   27   26 1    
    48   53   26 1    
    49   54   26 1    
    50   34   27 1    
    51   55   27 1    
    52   56   27 1    
    53   29   28 ar   
    54   33   28 ar   
    55   57   28 1    
    56   30   29 ar   
    57   35   29 1    
    58   31   30 ar   
    59   58   30 1    
    60   32   31 ar   
    61   59   31 1    
    62   33   32 ar   
    63   60   32 1    
    64   61   33 1    
    65   35   34 1    
    66   62   34 1    
    67   63   34 1    
    68   64   35 1    
    69   65   35 1    
@<TRIPOS>SUBSTRUCTURE
     1 FR81001     1 GROUP   
@<TRIPOS>SET

