#    Name: 2qhw_PZZ_1_INTS_M
#    Modification time : Mon Mar 24 22:09:39 2014

@<TRIPOS>MOLECULE
2qhw_PZZ_1_INTS_M
   34     0     6     0     0
SMALL
NO_CHARGES


@<TRIPOS>ATOM
      1 CA         19.0870    3.2300    8.8725 C.3       2 GLC5        0.0000 
      2 CA         20.0750    4.9340    9.3300 C.3       6 GLL5        0.0000 
      3 CA         18.0990    1.5260    8.4150 C.3       4 GLP5        0.0000 
      4 CA         20.6860    8.8065    8.8915 C.3       2 GLC5        0.0000 
      5 CA         22.2800    7.7940    9.9910 C.3       6 GLL5        0.0000 
      6 CA         19.0920    9.8190    7.7920 C.3       4 GLP5        0.0000 
      7 CA         20.4645    7.1085    7.1190 C.3       2 GLC5        0.0000 
      8 CA         21.8100    5.9760    8.3740 C.3       6 GLL5        0.0000 
      9 CA         19.1190    8.2410    5.8640 C.3       4 GLP5        0.0000 
     10 CA         18.2715    2.7745    9.8190 C.3       2 GLC5        0.0000 
     11 CA         18.4440    4.0230   11.2230 C.3       6 GLL5        0.0000 
     12 CA         23.8410    3.6920    6.4585 C.3       2 GLC5        0.0000 
     13 CA         23.2930    5.7970    6.2230 C.3       6 GLL5        0.0000 
     14 CA         24.3890    1.5870    6.6940 C.3       4 GLP5        0.0000 
     15 CA         23.1780    7.6245    3.6525 C.3       2 GLC5        0.0000 
     16 CA         24.0530    6.7850    5.3450 C.3       6 GLL5        0.0000 
     17 CA         22.3030    8.4640    1.9600 C.3       4 GLP5        0.0000 
     18 CA         26.9510    5.2920    4.9120 C.3       2 GLC5        0.0000 
     19 CA         25.3030    6.1160    4.7860 C.3       6 GLL5        0.0000 
     20 CA         28.5990    4.4680    5.0380 C.3       4 GLP5        0.0000 
     21 CA         26.0855    5.4225    6.5710 C.3       2 GLC5        0.0000 
     22 CA         26.8680    4.7290    8.3560 C.3       4 GLP5        0.0000 
     23 CA         26.8685    5.7720    3.2245 C.3       2 GLC5        0.0000 
     24 CA         28.4340    5.4280    1.6630 C.3       4 GLP5        0.0000 
     25 O          26.2140    7.5385    3.5175 O.2       1 ALC1        0.0000 
     26 O          25.2990    6.0900    3.3540 O.2       5 ALL1        0.0000 
     27 O          27.1290    8.9870    3.6810 O.2       3 ALP1        0.0000 
     28 CA         22.6088    9.6030   10.3635 C.3       2 GLC5        0.0000 
     29 CA         22.4140   11.1990   11.1520 C.3       4 GLP5        0.0000 
     30 CA         19.6750    7.3106    8.4679 C.3       2 GLC5        0.0000 
     31 CA         21.5120    6.6900    9.6410 C.3       6 GLL5        0.0000 
     32 CA         18.4890    8.5520    7.2230 C.3       4 GLP5        0.0000 
     33 CA         25.0796    5.5716    7.6685 C.3       2 GLC5        0.0000 
     34 CA         23.6480    7.5870    7.9520 C.3       6 GLL5        0.0000 
@<TRIPOS>BOND
@<TRIPOS>SUBSTRUCTURE
     1 ALC1       25 GROUP        1 X    ALC  0     ROOT ALC X 1
     2 GLC5        1 GROUP        1 X    GLC  0     **** GLC X 6
     3 ALP1       27 GROUP        1 Y    ALP  0     ROOT ALP Y 8
     4 GLP5        3 GROUP        1 Y    GLP  0     **** GLP Y 13
     5 ALL1       26 GROUP        1 Z    ALL  0     ROOT ALL Z 15
     6 GLL5        2 GROUP        1 Z    GLL  0     **** GLL Z 20
@<TRIPOS>SET

