#    Name: 2qhw_PZZ_1_ligand
#    Modification time : Mon Mar 24 22:09:39 2014

@<TRIPOS>MOLECULE
2qhw_PZZ_1_ligand
   38    39     1     0     0
SMALL
NO_CHARGES


@<TRIPOS>ATOM
      1 C2         20.0750    4.9340    9.3300 C.2       1 PZZ134      0.0000 
      2 C3         20.3450    5.9630   10.2390 C.2       1 PZZ134      0.0000 
      3 N1         20.9240    4.9570    8.2620 N.pl3     1 PZZ134      0.0000 
      4 C4         22.2800    7.7940    9.9910 C.ar      1 PZZ134      0.0000 
      5 C5         23.3270    8.2200    9.1590 C.ar      1 PZZ134      0.0000 
      6 C6         23.6480    7.5870    7.9520 C.ar      1 PZZ134      0.0000 
      7 C7         22.9310    6.4760    7.5260 C.ar      1 PZZ134      0.0000 
      8 C8         21.5120    6.6900    9.6410 C.ar      1 PZZ134      0.0000 
      9 C9         21.8100    5.9760    8.3740 C.ar      1 PZZ134      0.0000 
     10 C10        19.6150    6.2800   11.5370 C.3       1 PZZ134      0.0000 
     11 N11        18.7060    5.2250   12.0040 N.4       1 PZZ134      0.0000 
     12 C12        18.4440    4.0230   11.2230 C.3       1 PZZ134      0.0000 
     13 C13        18.0190    5.3700   13.2910 C.3       1 PZZ134      0.0000 
     14 C14        23.2930    5.7970    6.2230 C.3       1 PZZ134      0.0000 
     15 C15        24.0530    6.7850    5.3450 C.3       1 PZZ134      0.0000 
     16 C16        25.3030    6.1160    4.7860 C.3       1 PZZ134      0.0000 
     17 O17        25.2990    6.0900    3.3540 O.3       1 PZZ134      0.0000 
     18 H          19.3574    4.2836    9.4616 H         1 PZZ134      0.0000 
     19 H          20.8929    4.3224    7.5199 H         1 PZZ134      0.0000 
     20 H          22.0853    8.3050   10.8617 H         1 PZZ134      0.0000 
     21 H          23.8926    9.0484    9.4554 H         1 PZZ134      0.0000 
     22 H          24.4228    7.9517    7.3788 H         1 PZZ134      0.0000 
     23 H          19.0552    7.2310   11.3930 H         1 PZZ134      0.0000 
     24 H          20.3789    6.4992   12.3161 H         1 PZZ134      0.0000 
     25 H          19.8006    4.5609   12.6706 H         1 PZZ134      0.0000 
     26 H          22.3919    5.4835    5.7112 H         1 PZZ134      0.0000 
     27 H          23.9211    4.9375    6.4205 H         1 PZZ134      0.0000 
     28 H          24.3396    7.6468    5.9375 H         1 PZZ134      0.0000 
     29 H          23.4169    7.1022    4.5261 H         1 PZZ134      0.0000 
     30 H          25.3545    5.0957    5.2068 H         1 PZZ134      0.0000 
     31 H          26.1798    6.6635    5.1760 H         1 PZZ134      0.0000 
     32 H          19.2790    3.4982   11.0576 H         1 PZZ134      0.0000 
     33 H          17.8009    3.4125   11.6854 H         1 PZZ134      0.0000 
     34 H          18.0517    4.2392   10.3289 H         1 PZZ134      0.0000 
     35 H          18.6652    5.4547   14.0495 H         1 PZZ134      0.0000 
     36 H          17.4354    6.1818   13.3111 H         1 PZZ134      0.0000 
     37 H          17.4343    4.5837   13.4905 H         1 PZZ134      0.0000 
     38 H          25.8437    6.8824    3.0794 H         1 PZZ134      0.0000 
@<TRIPOS>BOND
     1    2    1 2    
     2    3    1 1    
     3   18    1 1    
     4    8    2 1    
     5   10    2 1    
     6    9    3 1    
     7   19    3 1    
     8    5    4 ar   
     9    8    4 ar   
    10   20    4 1    
    11    6    5 ar   
    12   21    5 1    
    13    7    6 ar   
    14   22    6 1    
    15    9    7 ar   
    16   14    7 1    
    17    9    8 ar   
    18   11   10 1    
    19   23   10 1    
    20   24   10 1    
    21   12   11 1    
    22   13   11 1    
    23   25   11 1    
    24   32   12 1    
    25   33   12 1    
    26   34   12 1    
    27   35   13 1    
    28   36   13 1    
    29   37   13 1    
    30   15   14 1    
    31   26   14 1    
    32   27   14 1    
    33   16   15 1    
    34   28   15 1    
    35   29   15 1    
    36   17   16 1    
    37   30   16 1    
    38   31   16 1    
    39   38   17 1    
@<TRIPOS>SUBSTRUCTURE
     1 PZZ134      1 GROUP   
@<TRIPOS>SET

