#    Name: 3qz1_3QZ_2_INTS_M
#    Modification time : Mon Apr  7 19:54:37 2014

@<TRIPOS>MOLECULE
3qz1_3QZ_2_INTS_M
   36     0     3     0     0
SMALL
NO_CHARGES


@<TRIPOS>ATOM
      1 CA         26.8200   -0.7565   52.2900 C.3       1 GLC5        0.0000 
      2 CA         27.3750   -1.0620   53.1700 C.3       3 GLL5        0.0000 
      3 CA         26.2650   -0.4510   51.4100 C.3       2 GLP5        0.0000 
      4 CA         27.5885    0.8225   53.4500 C.3       1 GLC5        0.0000 
      5 CA         27.8020    2.7070   53.7300 C.3       2 GLP5        0.0000 
      6 CA         25.9220   -1.1255   54.1500 C.3       1 GLC5        0.0000 
      7 CA         24.4690   -1.1890   55.1300 C.3       2 GLP5        0.0000 
      8 CA         30.8375   -2.4875   56.5285 C.3       1 GLC5        0.0000 
      9 CA         29.2040   -3.2730   55.9150 C.3       3 GLL5        0.0000 
     10 CA         32.4710   -1.7020   57.1420 C.3       2 GLP5        0.0000 
     11 CA         30.3865  -11.2185   57.6230 C.3       1 GLC5        0.0000 
     12 CA         29.3430  -10.2950   55.9470 C.3       3 GLL5        0.0000 
     13 CA         31.4300  -12.1420   59.2990 C.3       2 GLP5        0.0000 
     14 CA         32.6530   -6.4645   54.5380 C.3       1 GLC5        0.0000 
     15 CA         30.8170   -7.2070   54.6440 C.3       3 GLL5        0.0000 
     16 CA         34.4890   -5.7220   54.4320 C.3       2 GLP5        0.0000 
     17 CA         32.8140   -4.9655   54.2760 C.3       1 GLC5        0.0000 
     18 CA         31.1390   -4.2090   54.1200 C.3       3 GLL5        0.0000 
     19 CA         25.2415   -7.4015   55.6050 C.3       1 GLC5        0.0000 
     20 CA         27.0070   -8.6870   55.7950 C.3       3 GLL5        0.0000 
     21 CA         23.4760   -6.1160   55.4150 C.3       2 GLP5        0.0000 
     22 CA         25.9530   -2.8310   54.8355 C.3       1 GLC5        0.0000 
     23 CA         27.4370   -4.4730   54.5410 C.3       3 GLL5        0.0000 
     24 CA         27.7255   -1.7005   52.4015 C.3       1 GLC5        0.0000 
     25 CA         29.1860   -2.9500   53.3930 C.3       3 GLL5        0.0000 
     26 CA         27.9125   -7.3290   58.6328 C.3       1 GLC5        0.0000 
     27 CA         28.3150   -7.9610   56.1220 C.3       3 GLL5        0.0000 
     28 CA         27.5040   -6.9130   60.4090 C.3       2 GLP5        0.0000 
     29 CA         31.7990   -8.8670   56.8277 C.3       1 GLC5        0.0000 
     30 CA         29.4990   -8.9190   55.9180 C.3       3 GLL5        0.0000 
     31 CA         33.3990   -9.0890   57.8820 C.3       2 GLP5        0.0000 
     32 CA         26.1872  -10.8735   55.4318 C.3       1 GLC5        0.0000 
     33 CA         25.4230  -12.3930   54.6990 C.3       2 GLP5        0.0000 
     34 CA         25.4392   -5.5925   55.2185 C.3       1 GLC5        0.0000 
     35 CA         27.3680   -5.6650   55.5030 C.3       3 GLL5        0.0000 
     36 CA         31.6975   -2.6580   55.4155 C.3       1 GLC5        0.0000 
@<TRIPOS>BOND
@<TRIPOS>SUBSTRUCTURE
     1 GLC5        1 GROUP        1 X    GLC  0     ROOT GLC X 6
     2 GLP5        3 GROUP        1 Y    GLP  0     ROOT GLP Y 13
     3 GLL5        2 GROUP        1 Z    GLL  0     ROOT GLL Z 20
@<TRIPOS>SET

