#    Name: 3qz1_3QZ_2_ligand
#    Modification time : Mon Apr  7 19:54:37 2014

@<TRIPOS>MOLECULE
3qz1_3QZ_2_ligand
   54    57     1     0     0
SMALL
NO_CHARGES


@<TRIPOS>ATOM
      1 CAA        27.3750   -1.0620   53.1700 C.3       1 3QZ501      0.0000 
      2 CAB        28.3270   -7.5290   57.5910 C.3       1 3QZ501      0.0000 
      3 CAC        29.2040   -3.2730   55.9150 C.3       1 3QZ501      0.0000 
      4 OAD        29.5230   -0.6780   54.1590 O.2       1 3QZ501      0.0000 
      5 OAE        28.0190  -12.1180   56.2040 O.2       1 3QZ501      0.0000 
      6 OAF        28.5760   -3.4690   52.2100 O.3       1 3QZ501      0.0000 
      7 CAG        29.3430  -10.2950   55.9470 C.2       1 3QZ501      0.0000 
      8 CAH        30.8990   -8.3710   55.6290 C.3       1 3QZ501      0.0000 
      9 CAI        26.8960  -10.0210   56.5340 C.3       1 3QZ501      0.0000 
     10 CAJ        30.8170   -7.2070   54.6440 C.3       1 3QZ501      0.0000 
     11 CAK        27.3680   -5.6650   55.5030 C.3       1 3QZ501      0.0000 
     12 CAL        31.1390   -4.2090   54.1200 C.3       1 3QZ501      0.0000 
     13 CAM        27.0070   -8.6870   55.7950 C.3       1 3QZ501      0.0000 
     14 CAN        27.4370   -4.4730   54.5410 C.3       1 3QZ501      0.0000 
     15 CAO        30.7090   -3.0190   53.2580 C.3       1 3QZ501      0.0000 
     16 CAP        28.7630   -1.5020   53.6340 C.2       1 3QZ501      0.0000 
     17 CAQ        28.1150  -10.8900   56.2270 C.2       1 3QZ501      0.0000 
     18 CAR        29.4990   -8.9190   55.9180 C.2       1 3QZ501      0.0000 
     19 CAS        29.8240   -6.1610   55.1560 C.3       1 3QZ501      0.0000 
     20 CAT        28.4100   -6.7470   55.1910 C.3       1 3QZ501      0.0000 
     21 CAU        29.8280   -4.9890   54.1760 C.3       1 3QZ501      0.0000 
     22 CAV        28.3150   -7.9610   56.1220 C.3       1 3QZ501      0.0000 
     23 CAW        28.8490   -3.8830   54.5570 C.3       1 3QZ501      0.0000 
     24 CAX        29.1860   -2.9500   53.3930 C.3       1 3QZ501      0.0000 
     25 H          30.1653  -10.9051   55.7544 H         1 3QZ501      0.0000 
     26 H          31.3472   -8.0276   56.5565 H         1 3QZ501      0.0000 
     27 H          31.5115   -9.1605   55.2040 H         1 3QZ501      0.0000 
     28 H          25.9970  -10.5360   56.2122 H         1 3QZ501      0.0000 
     29 H          26.8455   -9.8367   57.6019 H         1 3QZ501      0.0000 
     30 H          30.4847   -7.5740   53.6791 H         1 3QZ501      0.0000 
     31 H          31.7959   -6.7515   54.5418 H         1 3QZ501      0.0000 
     32 H          26.3665   -6.1088   55.4506 H         1 3QZ501      0.0000 
     33 H          27.5223   -5.3064   56.5278 H         1 3QZ501      0.0000 
     34 H          31.4011   -3.8783   55.0777 H         1 3QZ501      0.0000 
     35 H          31.8677   -4.7674   53.6176 H         1 3QZ501      0.0000 
     36 H          26.1648   -8.0499   56.0757 H         1 3QZ501      0.0000 
     37 H          26.9580   -8.8677   54.7185 H         1 3QZ501      0.0000 
     38 H          26.7280   -3.7179   54.8557 H         1 3QZ501      0.0000 
     39 H          27.1982   -4.8073   53.5395 H         1 3QZ501      0.0000 
     40 H          30.9717   -3.1990   52.2410 H         1 3QZ501      0.0000 
     41 H          31.1443   -2.1240   53.6390 H         1 3QZ501      0.0000 
     42 H          30.1054   -5.8273   56.1116 H         1 3QZ501      0.0000 
     43 H          28.1933   -7.1119   54.1583 H         1 3QZ501      0.0000 
     44 H          29.5888   -5.3063   53.1820 H         1 3QZ501      0.0000 
     45 H          27.4257   -0.3414   52.4786 H         1 3QZ501      0.0000 
     46 H          26.8608   -1.8191   52.7671 H         1 3QZ501      0.0000 
     47 H          26.8266   -0.7047   53.9261 H         1 3QZ501      0.0000 
     48 H          29.1741   -7.0554   57.8319 H         1 3QZ501      0.0000 
     49 H          27.5732   -6.9064   57.8012 H         1 3QZ501      0.0000 
     50 H          28.2424   -8.3108   58.2087 H         1 3QZ501      0.0000 
     51 H          30.1258   -2.8852   55.9184 H         1 3QZ501      0.0000 
     52 H          28.5756   -2.5372   56.1673 H         1 3QZ501      0.0000 
     53 H          29.1691   -3.9525   56.6479 H         1 3QZ501      0.0000 
     54 H          29.3072   -3.4860   51.5280 H         1 3QZ501      0.0000 
@<TRIPOS>BOND
     1   16    1 1    
     2   45    1 1    
     3   46    1 1    
     4   47    1 1    
     5   22    2 1    
     6   48    2 1    
     7   49    2 1    
     8   50    2 1    
     9   23    3 1    
    10   51    3 1    
    11   52    3 1    
    12   53    3 1    
    13   16    4 2    
    14   17    5 2    
    15   24    6 1    
    16   54    6 1    
    17   17    7 1    
    18   18    7 2    
    19   25    7 1    
    20   10    8 1    
    21   18    8 1    
    22   26    8 1    
    23   27    8 1    
    24   13    9 1    
    25   17    9 1    
    26   28    9 1    
    27   29    9 1    
    28   19   10 1    
    29   30   10 1    
    30   31   10 1    
    31   14   11 1    
    32   20   11 1    
    33   32   11 1    
    34   33   11 1    
    35   15   12 1    
    36   21   12 1    
    37   34   12 1    
    38   35   12 1    
    39   22   13 1    
    40   36   13 1    
    41   37   13 1    
    42   23   14 1    
    43   38   14 1    
    44   39   14 1    
    45   24   15 1    
    46   40   15 1    
    47   41   15 1    
    48   24   16 1    
    49   22   18 1    
    50   20   19 1    
    51   21   19 1    
    52   42   19 1    
    53   22   20 1    
    54   43   20 1    
    55   23   21 1    
    56   44   21 1    
    57   24   23 1    
@<TRIPOS>SUBSTRUCTURE
     1 3QZ501      1 GROUP   
@<TRIPOS>SET

