#    Name: 3M49_2_CAVITY_N1_6.mol2
#    Modification time : Tue Mar 11 12:53:44 2014

@<TRIPOS>MOLECULE
3M49_2_CAVITY_N1_6.mol2
   66     0     5     0     0
SMALL
NO_CHARGES


@<TRIPOS>ATOM
      1 N          31.3453   44.4495  116.9544 N.2       1 ALA2        0.0000 
      2 CA         30.0469   44.5668  116.2125 C.3       4 GLY6        0.0000 
      3 NZ         32.9747   43.0915  116.9208 N.2       2 LYS4        0.0000 
      4 N          32.3005   42.2566  117.9688 N.2       1 ALA2        0.0000 
      5 N          31.6263   41.4217  119.0169 N.2       1 ALA2        0.0000 
      6 CZ         32.3505   44.0438  115.1309 C.ar      3 PHE5        0.0000 
      7 CA         31.6763   43.2088  116.1789 C.3       4 GLY6        0.0000 
      8 N          31.0021   42.3739  117.2270 N.2       1 ALA2        0.0000 
      9 N          30.3279   41.5390  118.2750 N.2       1 ALA2        0.0000 
     10 CA         29.6536   40.7041  119.3230 C.3       4 GLY6        0.0000 
     11 CZ         31.0521   44.1611  114.3891 C.ar      3 PHE5        0.0000 
     12 CA         29.0294   41.6563  117.5332 C.3       4 GLY6        0.0000 
     13 N          28.3552   40.8214  118.5812 N.2       1 ALA2        0.0000 
     14 O          27.6810   39.9865  119.6292 O.2       1 ALA2        0.0000 
     15 N          27.0568   40.9387  117.8394 N.2       1 ALA2        0.0000 
     16 N          32.6314   41.0160  117.1934 N.2       1 ALA2        0.0000 
     17 N          31.9572   40.1811  118.2414 N.2       1 ALA2        0.0000 
     18 N          31.2830   39.3462  119.2895 N.2       1 ALA2        0.0000 
     19 O          30.6088   38.5113  120.3375 O.2       1 ALA2        0.0000 
     20 CZ         32.6814   42.8031  114.3555 C.ar      3 PHE5        0.0000 
     21 CZ         32.0072   41.9682  115.4035 C.ar      3 PHE5        0.0000 
     22 N          31.3330   41.1333  116.4515 N.2       1 ALA2        0.0000 
     23 N          30.6588   40.2984  117.4996 N.2       1 ALA2        0.0000 
     24 DU         29.9846   39.4635  118.5476 H         5 CUB7        0.0000 
     25 O          29.3104   38.6286  119.5956 O.2       1 ALA2        0.0000 
     26 CZ         30.7088   42.0855  114.6617 C.ar      3 PHE5        0.0000 
     27 CA         30.0346   41.2506  115.7097 C.3       4 GLY6        0.0000 
     28 CA         29.3604   40.4157  116.7577 C.3       4 GLY6        0.0000 
     29 CA         28.6862   39.5808  117.8058 C.3       4 GLY6        0.0000 
     30 CA         28.0120   38.7459  118.8538 C.3       4 GLY6        0.0000 
     31 CA         28.0620   40.5330  116.0159 C.3       4 GLY6        0.0000 
     32 CA         27.3877   39.6981  117.0639 C.3       4 GLY6        0.0000 
     33 CA         26.7635   40.6503  115.2741 C.3       4 GLY6        0.0000 
     34 NZ         26.0893   39.8154  116.3221 N.2       2 LYS4        0.0000 
     35 N          31.6140   38.1056  118.5140 N.2       1 ALA2        0.0000 
     36 N          31.6640   39.8927  115.6761 N.2       1 ALA2        0.0000 
     37 N          30.9898   39.0578  116.7241 N.2       1 ALA2        0.0000 
     38 N          30.3156   38.2229  117.7722 N.2       1 ALA2        0.0000 
     39 CA         29.6413   37.3880  118.8202 C.3       4 GLY6        0.0000 
     40 CZ         30.3655   40.0100  114.9343 C.ar      3 PHE5        0.0000 
     41 DU         29.6913   39.1751  115.9823 H         5 CUB7        0.0000 
     42 CA         29.0171   38.3402  117.0303 C.3       4 GLY6        0.0000 
     43 CA         29.0671   40.1273  114.1924 C.3       4 GLY6        0.0000 
     44 CA         28.3929   39.2924  115.2405 C.3       4 GLY6        0.0000 
     45 CA         27.7187   38.4575  116.2885 C.3       4 GLY6        0.0000 
     46 CA         27.0945   39.4097  114.4986 C.3       4 GLY6        0.0000 
     47 CA         26.4203   38.5748  115.5467 C.3       4 GLY6        0.0000 
     48 N          31.3207   37.8171  115.9487 N.2       1 ALA2        0.0000 
     49 N          30.6465   36.9822  116.9967 N.2       1 ALA2        0.0000 
     50 CZ         30.6965   38.7693  114.1588 C.ar      3 PHE5        0.0000 
     51 CZ         30.0223   37.9344  115.2069 C.ar      3 PHE5        0.0000 
     52 CA         29.3481   37.0995  116.2549 C.3       4 GLY6        0.0000 
     53 CA         29.3981   38.8866  113.4170 C.3       4 GLY6        0.0000 
     54 DU         28.7239   38.0517  114.4650 H         5 CUB7        0.0000 
     55 CA         28.0497   37.2168  115.5131 C.3       4 GLY6        0.0000 
     56 CA         27.4254   38.1690  113.7232 C.3       4 GLY6        0.0000 
     57 CA         26.7512   37.3341  114.7712 C.3       4 GLY6        0.0000 
     58 CZ         29.6790   35.8589  115.4795 C.ar      3 PHE5        0.0000 
     59 CZ         29.0548   36.8111  113.6896 C.ar      3 PHE5        0.0000 
     60 CA         28.3806   35.9762  114.7376 C.3       4 GLY6        0.0000 
     61 CA         27.7064   35.1413  115.7857 C.3       4 GLY6        0.0000 
     62 NZ         27.7564   36.9284  112.9478 N.2       2 LYS4        0.0000 
     63 CA         27.0822   36.0935  113.9958 C.3       4 GLY6        0.0000 
     64 CZ         30.0100   34.6183  114.7040 C.ar      3 PHE5        0.0000 
     65 NZ         29.3858   35.5705  112.9142 N.2       2 LYS4        0.0000 
     66 NZ         28.7116   34.7356  113.9622 N.2       2 LYS4        0.0000 
@<TRIPOS>BOND
@<TRIPOS>SUBSTRUCTURE
     1 ALA2        1 GROUP   
     2 LYS4        3 GROUP   
     3 PHE5        6 GROUP   
     4 GLY6        2 GROUP   
     5 CUB7       24 GROUP   
@<TRIPOS>SET

