#    Name: 3m49_TDP_2_INTS_M
#    Modification time : Mon Mar 24 22:44:28 2014

@<TRIPOS>MOLECULE
3m49_TDP_2_INTS_M
   69     0     9     0     0
SMALL
NO_CHARGES


@<TRIPOS>ATOM
      1 CA         31.0975   33.4065  113.6920 C.3       3 GLC5        0.0000 
      2 CA         29.3440   33.2320  114.4940 C.3       9 GLL5        0.0000 
      3 CA         32.8510   33.5810  112.8900 C.3       6 GLP5        0.0000 
      4 CA         29.7920   31.6330  114.5220 C.3       3 GLC5        0.0000 
      5 CA         30.2400   30.0340  114.5500 C.3       6 GLP5        0.0000 
      6 CA         30.7990   33.0850  116.1190 C.3       3 GLC5        0.0000 
      7 CA         32.2540   32.9380  117.7440 C.3       6 GLP5        0.0000 
      8 N          29.9205   34.2300  116.8740 N.am      2 SEC2        0.0000 
      9 N          29.9810   35.2700  115.7350 N.am      8 SEL2        0.0000 
     10 N          29.8600   33.1900  118.0130 N.am      5 SEP2        0.0000 
     11 O          31.3095   36.2230  117.9185 O.2       1 ALC1        0.0000 
     12 O          30.6760   37.0630  116.9850 O.2       7 ALL1        0.0000 
     13 O          31.9430   35.3830  118.8520 O.2       4 ALP1        0.0000 
     14 CA         28.9680   38.4165  112.3695 C.3       3 GLC5        0.0000 
     15 CA         28.6750   36.8590  113.8850 C.3       9 GLL5        0.0000 
     16 CA         29.2610   39.9740  110.8540 C.3       6 GLP5        0.0000 
     17 CA         26.7655   36.0890  114.3895 C.3       3 GLC5        0.0000 
     18 CA         24.8560   35.3190  114.8940 C.3       6 GLP5        0.0000 
     19 CA         28.8360   40.4160  113.6925 C.3       3 GLC5        0.0000 
     20 CA         29.2970   39.0120  115.0370 C.3       9 GLL5        0.0000 
     21 CA         28.3750   41.8200  112.3480 C.3       6 GLP5        0.0000 
     22 CA         30.7990   39.9905  113.8545 C.3       3 GLC5        0.0000 
     23 CA         32.3010   40.9690  112.6720 C.3       6 GLP5        0.0000 
     24 CA         30.8585   37.6060  114.3615 C.3       3 GLC5        0.0000 
     25 CA         32.4200   36.2000  113.6860 C.3       6 GLP5        0.0000 
     26 CA         28.1400   37.7690  116.4380 C.3       3 GLC5        0.0000 
     27 CA         26.9830   36.5260  117.8390 C.3       6 GLP5        0.0000 
     28 CA         28.2845   41.3875  116.4445 C.3       3 GLC5        0.0000 
     29 CA         28.6620   39.4440  117.3420 C.3       9 GLL5        0.0000 
     30 CA         27.9070   43.3310  115.5470 C.3       6 GLP5        0.0000 
     31 CA         24.7810   39.7570  113.5135 C.3       3 GLC5        0.0000 
     32 CA         26.4060   39.5770  114.4230 C.3       9 GLL5        0.0000 
     33 CA         23.1560   39.9370  112.6040 C.3       6 GLP5        0.0000 
     34 CA         24.8610   38.4130  114.7950 C.3       3 GLC5        0.0000 
     35 CA         23.3160   37.2490  115.1670 C.3       6 GLP5        0.0000 
     36 CA         23.7500   37.7800  118.8190 C.3       3 GLC5        0.0000 
     37 CA         24.5110   39.4360  118.6800 C.3       9 GLL5        0.0000 
     38 CA         22.9890   36.1240  118.9580 C.3       6 GLP5        0.0000 
     39 N          22.3195   38.0925  120.8400 N.am      2 SEC2        0.0000 
     40 N          22.4500   39.5030  121.6410 N.am      8 SEL2        0.0000 
     41 N          22.1890   36.6820  120.0390 N.am      5 SEP2        0.0000 
     42 N          26.3620   41.9110  123.4820 N.am      2 SEC2        0.0000 
     43 N          25.2560   42.8190  123.5210 N.am      8 SEL2        0.0000 
     44 N          27.4680   41.0030  123.4430 N.am      5 SEP2        0.0000 
     45 N          22.0310   42.7030  124.3295 N.am      2 SEC2        0.0000 
     46 N          22.7980   42.5100  123.1320 N.am      8 SEL2        0.0000 
     47 N          21.2640   42.8960  125.5270 N.am      5 SEP2        0.0000 
     48 N          25.8115   40.8415  123.8790 N.am      2 SEC2        0.0000 
     49 N          24.1550   40.6800  124.3150 N.am      8 SEL2        0.0000 
     50 N          22.8075   40.1890  124.2615 N.am      2 SEC2        0.0000 
     51 N          21.4600   39.6980  124.2080 N.am      5 SEP2        0.0000 
     52 CA         28.4605   34.0087  116.3700 C.3       3 GLC5        0.0000 
     53 CA         29.3500   34.7270  114.6740 C.3       9 GLL5        0.0000 
     54 CA         27.5740   34.0380  118.1560 C.3       6 GLP5        0.0000 
     55 CA         28.0750   36.7388  116.2475 C.3       3 GLC5        0.0000 
     56 CA         30.0050   36.6000  115.9150 C.3       9 GLL5        0.0000 
     57 CA         24.9660   38.5165  115.7970 C.3       3 GLC5        0.0000 
     58 CA         26.2390   39.9430  117.0570 C.3       9 GLL5        0.0000 
     59 CA         25.4585   41.8017  116.5528 C.3       3 GLC5        0.0000 
     60 CA         25.3860   43.4820  115.8480 C.3       6 GLP5        0.0000 
     61 CA         27.5373   40.7105  113.7290 C.3       3 GLC5        0.0000 
     62 CA         26.9930   39.6250  115.7970 C.3       9 GLL5        0.0000 
     63 CA         27.3032   41.4660  115.3285 C.3       3 GLC5        0.0000 
     64 CA         23.9915   38.5585  116.6180 C.3       3 GLC5        0.0000 
     65 CA         24.8230   40.3000  117.4580 C.3       9 GLL5        0.0000 
     66 CA         25.8250   38.1970  117.9540 C.3       3 GLC5        0.0000 
     67 CA         22.7695   40.7040  117.6205 C.3       3 GLC5        0.0000 
     68 CA         20.8720   41.5400  117.1720 C.3       6 GLP5        0.0000 
     69 CA         27.1456   38.1232  117.4916 C.3       3 GLC5        0.0000 
@<TRIPOS>BOND
@<TRIPOS>SUBSTRUCTURE
     1 ALC1       11 GROUP        1 X    ALC  0     ROOT ALC X 1
     2 SEC2        8 GROUP        1 X    SEC  0     **** SEC X 2
     3 GLC5        1 GROUP        1 X    GLC  0     **** GLC X 6
     4 ALP1       13 GROUP        1 Y    ALP  0     ROOT ALP Y 8
     5 SEP2       10 GROUP        1 Y    SEP  0     **** SEP Y 9
     6 GLP5        3 GROUP        1 Y    GLP  0     **** GLP Y 13
     7 ALL1       12 GROUP        1 Z    ALL  0     ROOT ALL Z 15
     8 SEL2        9 GROUP        1 Z    SEL  0     **** SEL Z 16
     9 GLL5        2 GROUP        1 Z    GLL  0     **** GLL Z 20
@<TRIPOS>SET

