#    Name: 3m49_TDP_2_ligand
#    Modification time : Mon Mar 24 22:44:28 2014

@<TRIPOS>MOLECULE
3m49_TDP_2_ligand
   42    43     1     0     0
SMALL
NO_CHARGES


@<TRIPOS>ATOM
      1 N1'        28.7130   35.5200  113.7910 N.ar      1 TDP701      0.0000 
      2 C2'        29.3500   34.7270  114.6740 C.ar      1 TDP701      0.0000 
      3 C2A        29.3440   33.2320  114.4940 C.3       1 TDP701      0.0000 
      4 N3'        29.9810   35.2700  115.7350 N.ar      1 TDP701      0.0000 
      5 C4'        30.0050   36.6000  115.9150 C.ar      1 TDP701      0.0000 
      6 N4'        30.6760   37.0630  116.9850 N.pl3     1 TDP701      0.0000 
      7 C5'        29.3130   37.4880  114.9390 C.ar      1 TDP701      0.0000 
      8 C6'        28.6750   36.8590  113.8850 C.ar      1 TDP701      0.0000 
      9 C35        29.2970   39.0120  115.0370 C.3       1 TDP701      0.0000 
     10 N3         28.3080   39.3650  116.0440 N.pl3     1 TDP701      0.0000 
     11 C2         28.6620   39.4440  117.3420 C.2       1 TDP701      0.0000 
     12 S1         27.3390   39.8700  118.3810 S.3       1 TDP701      0.0000 
     13 C5         26.2390   39.9430  117.0570 C.2       1 TDP701      0.0000 
     14 C4         26.9930   39.6250  115.7970 C.2       1 TDP701      0.0000 
     15 C4A        26.4060   39.5770  114.4230 C.3       1 TDP701      0.0000 
     16 C5A        24.8230   40.3000  117.4580 C.3       1 TDP701      0.0000 
     17 C5B        24.5110   39.4360  118.6800 C.3       1 TDP701      0.0000 
     18 O5G        23.8760   40.1980  119.7040 O.3       1 TDP701      0.0000 
     19 P1         23.8840   39.7580  121.2630 P.3       1 TDP701      0.0000 
     20 O11        24.4540   41.1510  121.8890 O.3       1 TDP701      0.0000 
     21 O12        22.4500   39.5030  121.6410 O.co2     1 TDP701      0.0000 
     22 O13        24.9120   38.6650  121.4830 O.co2     1 TDP701      0.0000 
     23 P2         24.1320   41.8280  123.3260 P.3       1 TDP701      0.0000 
     24 O21        25.2560   42.8190  123.5210 O.co2     1 TDP701      0.0000 
     25 O22        22.7980   42.5100  123.1320 O.co2     1 TDP701      0.0000 
     26 O23        24.1550   40.6800  124.3150 O.co2     1 TDP701      0.0000 
     27 H          31.0880   36.3719  117.5788 H         1 TDP701      0.0000 
     28 H          30.7029   38.0570  117.0912 H         1 TDP701      0.0000 
     29 H          28.1766   37.4330  113.1830 H         1 TDP701      0.0000 
     30 H          29.0344   39.4147  114.0678 H         1 TDP701      0.0000 
     31 H          30.2858   39.3473  115.3205 H         1 TDP701      0.0000 
     32 H          29.4631   39.3217  117.8205 H         1 TDP701      0.0000 
     33 H          24.1459   40.0568  116.6676 H         1 TDP701      0.0000 
     34 H          24.7680   41.3326  117.7284 H         1 TDP701      0.0000 
     35 H          25.4611   38.9979  119.0284 H         1 TDP701      0.0000 
     36 H          23.8766   38.5996  118.3423 H         1 TDP701      0.0000 
     37 H          29.7547   32.9611  113.6234 H         1 TDP701      0.0000 
     38 H          29.8569   32.7688  115.2168 H         1 TDP701      0.0000 
     39 H          28.4159   32.8599  114.5086 H         1 TDP701      0.0000 
     40 H          26.8484   40.2289  113.8071 H         1 TDP701      0.0000 
     41 H          26.5020   38.6716  114.0095 H         1 TDP701      0.0000 
     42 H          25.4300   39.7948  114.4283 H         1 TDP701      0.0000 
@<TRIPOS>BOND
     1    2    1 ar   
     2    8    1 ar   
     3    3    2 1    
     4    4    2 ar   
     5   37    3 1    
     6   38    3 1    
     7   39    3 1    
     8    5    4 ar   
     9    6    5 1    
    10    7    5 ar   
    11   27    6 1    
    12   28    6 1    
    13    8    7 ar   
    14    9    7 1    
    15   29    8 1    
    16   10    9 1    
    17   30    9 1    
    18   31    9 1    
    19   11   10 2    
    20   14   10 1    
    21   12   11 1    
    22   32   11 1    
    23   13   12 1    
    24   14   13 2    
    25   16   13 1    
    26   15   14 1    
    27   40   15 1    
    28   41   15 1    
    29   42   15 1    
    30   17   16 1    
    31   33   16 1    
    32   34   16 1    
    33   18   17 1    
    34   35   17 1    
    35   36   17 1    
    36   19   18 1    
    37   20   19 1    
    38   21   19 ar   
    39   22   19 ar   
    40   23   20 1    
    41   24   23 ar   
    42   25   23 ar   
    43   26   23 ar   
@<TRIPOS>SUBSTRUCTURE
     1 TDP701      1 GROUP   
@<TRIPOS>SET

