#    Name: 1tqp_ATP_1_INTS_M
#    Modification time : Tue Mar 25 05:35:23 2014

@<TRIPOS>MOLECULE
1tqp_ATP_1_INTS_M
   49     0    12     0     0
SMALL
NO_CHARGES


@<TRIPOS>ATOM
      1 N          46.7860   19.5395   22.8395 N.am      2 SEC2        0.0000 
      2 N          45.5130   19.3770   23.5280 N.am     10 SEL2        0.0000 
      3 N          48.0590   19.7020   22.1510 N.am      6 SEP2        0.0000 
      4 NZ         44.3145   21.7625   19.8290 N.4       3 LYC4        0.0000 
      5 NZ         44.2510   22.9470   20.4900 N.4      11 LYL4        0.0000 
      6 NZ         44.3780   20.5780   19.1680 N.4       7 LYP4        0.0000 
      7 N          44.3145   21.7625   19.8290 N.am      2 SEC2        0.0000 
      8 N          44.2510   22.9470   20.4900 N.am     10 SEL2        0.0000 
      9 N          44.3780   20.5780   19.1680 N.am      6 SEP2        0.0000 
     10 N          46.6105   20.5445   22.2555 N.am      2 SEC2        0.0000 
     11 N          45.1620   21.3870   22.3600 N.am     10 SEL2        0.0000 
     12 CA         48.1140   23.3750   22.1925 C.3       4 GLC5        0.0000 
     13 CA         46.6140   23.9150   23.5090 C.3      12 GLL5        0.0000 
     14 CA         49.6140   22.8350   20.8760 C.3       8 GLP5        0.0000 
     15 O          44.6010   26.6490   25.6185 O.2       1 ALC1        0.0000 
     16 O          44.5840   26.2180   24.4200 O.2       9 ALL1        0.0000 
     17 O          44.6180   27.0800   26.8170 O.2       5 ALP1        0.0000 
     18 CA         44.5365   28.9225   22.8050 C.3       4 GLC5        0.0000 
     19 CA         46.2930   27.5580   23.0730 C.3      12 GLL5        0.0000 
     20 CA         42.7800   30.2870   22.5370 C.3       8 GLP5        0.0000 
     21 CA         49.3155   27.9335   21.8105 C.3       4 GLC5        0.0000 
     22 CA         47.5600   27.1430   22.2690 C.3      12 GLL5        0.0000 
     23 CA         51.0710   28.7240   21.3520 C.3       8 GLP5        0.0000 
     24 CA         45.6525   30.0190   16.7470 C.3       4 GLC5        0.0000 
     25 CA         46.8990   28.4040   17.5730 C.3      12 GLL5        0.0000 
     26 CA         44.4060   31.6340   15.9210 C.3       8 GLP5        0.0000 
     27 O          46.9365   28.7400   15.1460 O.2       1 ALC1        0.0000 
     28 O          46.5230   28.1300   16.2870 O.2       9 ALL1        0.0000 
     29 O          47.3500   29.3500   14.0050 O.2       5 ALP1        0.0000 
     30 N          47.2455   30.9480   17.0330 N.am      2 SEC2        0.0000 
     31 N          47.1420   29.7160   17.8720 N.am     10 SEL2        0.0000 
     32 N          47.3490   32.1800   16.1940 N.am      6 SEP2        0.0000 
     33 CA         49.2615   29.4545   20.2485 C.3       4 GLC5        0.0000 
     34 CA         47.4520   30.1850   19.1450 C.3      12 GLL5        0.0000 
     35 CA         49.0020   31.0800   18.4465 C.3       4 GLC5        0.0000 
     36 CA         50.5520   31.9750   17.7480 C.3       8 GLP5        0.0000 
     37 CA         46.2625   31.3415   18.0645 C.3       4 GLC5        0.0000 
     38 CA         45.0730   32.4980   16.9840 C.3       8 GLP5        0.0000 
     39 CA         45.5675   30.4600   19.6700 C.3       4 GLC5        0.0000 
     40 CA         43.6830   30.7350   20.1950 C.3       8 GLP5        0.0000 
     41 CA         49.1585   28.3765   20.6350 C.3       4 GLC5        0.0000 
     42 CA         47.2460   28.0290   19.9180 C.3      12 GLL5        0.0000 
     43 CA         45.4645   29.3820   20.0565 C.3       4 GLC5        0.0000 
     44 CA         44.6455   26.7375   22.0075 C.3       4 GLC5        0.0000 
     45 CA         43.3090   26.5730   20.7580 C.3       8 GLP5        0.0000 
     46 CA         48.3400   26.9870   17.1510 C.3       4 GLC5        0.0000 
     47 CA         46.9330   27.5180   18.6450 C.3      12 GLL5        0.0000 
     48 CA         49.7640   26.0130   16.1930 C.3       8 GLP5        0.0000 
     49 CA         45.1992   27.1733   20.0198 C.3       4 GLC5        0.0000 
@<TRIPOS>BOND
@<TRIPOS>SUBSTRUCTURE
     1 ALC1       15 GROUP        1 X    ALC  0     ROOT ALC X 1
     2 SEC2        1 GROUP        1 X    SEC  0     **** SEC X 2
     3 LYC4        4 GROUP        1 X    LYC  0     **** LYC X 4
     4 GLC5       12 GROUP        1 X    GLC  0     **** GLC X 6
     5 ALP1       17 GROUP        1 Y    ALP  0     ROOT ALP Y 8
     6 SEP2        3 GROUP        1 Y    SEP  0     **** SEP Y 9
     7 LYP4        6 GROUP        1 Y    LYP  0     **** LYP Y 11
     8 GLP5       14 GROUP        1 Y    GLP  0     **** GLP Y 13
     9 ALL1       16 GROUP        1 Z    ALL  0     ROOT ALL Z 15
    10 SEL2        2 GROUP        1 Z    SEL  0     **** SEL Z 16
    11 LYL4        5 GROUP        1 Z    LYL  0     **** LYL Z 18
    12 GLL5       13 GROUP        1 Z    GLL  0     **** GLL Z 20
@<TRIPOS>SET

