#    Name: 1tqp_ATP_1_ligand
#    Modification time : Tue Mar 25 05:35:23 2014

@<TRIPOS>MOLECULE
1tqp_ATP_1_ligand
   42    44     1     0     0
SMALL
NO_CHARGES


@<TRIPOS>ATOM
      1 PG         43.2400   22.2530   25.6210 P.3       1 ATP283      0.0000 
      2 O1G        43.8100   23.4900   26.2000 O.co2     1 ATP283      0.0000 
      3 O2G        42.0480   22.5700   24.7180 O.co2     1 ATP283      0.0000 
      4 O3G        42.7130   21.3800   26.7670 O.co2     1 ATP283      0.0000 
      5 PB         44.4790   20.5060   23.5470 P.3       1 ATP283      0.0000 
      6 O1B        43.0950   20.0500   23.2110 O.co2     1 ATP283      0.0000 
      7 O2B        45.5130   19.3770   23.5280 O.co2     1 ATP283      0.0000 
      8 O3B        44.4560   21.4140   24.9070 O.3       1 ATP283      0.0000 
      9 PA         44.7490   22.8910   21.9650 P.3       1 ATP283      0.0000 
     10 O1A        44.2510   22.9470   20.4900 O.co2     1 ATP283      0.0000 
     11 O2A        43.6970   23.5110   22.9250 O.co2     1 ATP283      0.0000 
     12 O3A        45.1620   21.3870   22.3600 O.3       1 ATP283      0.0000 
     13 O5'        46.1410   23.6370   22.1670 O.3       1 ATP283      0.0000 
     14 C5'        46.6140   23.9150   23.5090 C.3       1 ATP283      0.0000 
     15 C4'        46.9290   25.4100   23.6890 C.3       1 ATP283      0.0000 
     16 O4'        47.9170   25.8790   22.7550 O.3       1 ATP283      0.0000 
     17 C3'        45.6710   26.2460   23.4410 C.3       1 ATP283      0.0000 
     18 O3'        44.5840   26.2180   24.4200 O.3       1 ATP283      0.0000 
     19 C2'        46.2930   27.5580   23.0730 C.3       1 ATP283      0.0000 
     20 O2'        46.6070   28.3460   24.2270 O.3       1 ATP283      0.0000 
     21 C1'        47.5600   27.1430   22.2690 C.3       1 ATP283      0.0000 
     22 N9         47.2660   27.0160   20.7850 N.pl3     1 ATP283      0.0000 
     23 C8         46.9650   25.8980   20.0490 C.2       1 ATP283      0.0000 
     24 N7         46.7120   26.1860   18.7860 N.2       1 ATP283      0.0000 
     25 C5         46.9330   27.5180   18.6450 C.ar      1 ATP283      0.0000 
     26 C6         46.8990   28.4040   17.5730 C.ar      1 ATP283      0.0000 
     27 N6         46.5230   28.1300   16.2870 N.pl3     1 ATP283      0.0000 
     28 N1         47.1420   29.7160   17.8720 N.ar      1 ATP283      0.0000 
     29 C2         47.4520   30.1850   19.1450 C.ar      1 ATP283      0.0000 
     30 N3         47.6530   29.2930   20.1670 N.ar      1 ATP283      0.0000 
     31 C4         47.2460   28.0290   19.9180 C.ar      1 ATP283      0.0000 
     32 H          47.5296   23.3513   23.7332 H         1 ATP283      0.0000 
     33 H          45.8627   23.6389   24.2612 H         1 ATP283      0.0000 
     34 H          47.2397   25.5824   24.7031 H         1 ATP283      0.0000 
     35 H          45.2921   25.8388   22.4353 H         1 ATP283      0.0000 
     36 H          45.6409   28.0585   22.3830 H         1 ATP283      0.0000 
     37 H          48.3111   27.8683   22.4341 H         1 ATP283      0.0000 
     38 H          46.9470   24.9898   20.4465 H         1 ATP283      0.0000 
     39 H          47.5280   31.1981   19.3093 H         1 ATP283      0.0000 
     40 H          44.9500   26.6828   25.2262 H         1 ATP283      0.0000 
     41 H          46.7029   29.2804   23.8839 H         1 ATP283      0.0000 
     42 H          47.0502   28.7651   15.7225 H         1 ATP283      0.0000 
@<TRIPOS>BOND
     1    2    1 ar   
     2    3    1 ar   
     3    4    1 ar   
     4    8    1 1    
     5    6    5 ar   
     6    7    5 ar   
     7    8    5 1    
     8   12    5 1    
     9   10    9 ar   
    10   11    9 ar   
    11   12    9 1    
    12   13    9 1    
    13   14   13 1    
    14   15   14 1    
    15   32   14 1    
    16   33   14 1    
    17   16   15 1    
    18   17   15 1    
    19   34   15 1    
    20   21   16 1    
    21   18   17 1    
    22   19   17 1    
    23   35   17 1    
    24   40   18 1    
    25   20   19 1    
    26   21   19 1    
    27   36   19 1    
    28   41   20 1    
    29   22   21 1    
    30   37   21 1    
    31   23   22 1    
    32   31   22 1    
    33   24   23 2    
    34   38   23 1    
    35   25   24 1    
    36   26   25 ar   
    37   31   25 ar   
    38   27   26 1    
    39   28   26 ar   
    40   42   27 1    
    41   29   28 ar   
    42   30   29 ar   
    43   39   29 1    
    44   31   30 ar   
@<TRIPOS>SUBSTRUCTURE
     1 ATP283      1 GROUP   
@<TRIPOS>SET

