#    Name: 3b2t_M33_1_INTS_M
#    Modification time : Mon Mar 24 18:49:56 2014

@<TRIPOS>MOLECULE
3b2t_M33_1_INTS_M
   31     0     9     0     0
SMALL
NO_CHARGES


@<TRIPOS>ATOM
      1 CA         20.8240  -25.5370  -32.6265 C.3       3 GLC5        0.0000 
      2 CA         22.8200  -25.8570  -31.7160 C.3       9 GLL5        0.0000 
      3 CA         18.8280  -25.2170  -33.5370 C.3       6 GLP5        0.0000 
      4 CA         22.0990  -27.7425  -28.7325 C.3       3 GLC5        0.0000 
      5 CA         22.1420  -26.5800  -30.5520 C.3       9 GLL5        0.0000 
      6 CA         22.0560  -28.9050  -26.9130 C.3       6 GLP5        0.0000 
      7 CA         19.8150  -25.2120  -27.5705 C.3       3 GLC5        0.0000 
      8 CA         18.9120  -25.3080  -29.4840 C.3       9 GLL5        0.0000 
      9 CA         20.7180  -25.1160  -25.6570 C.3       6 GLP5        0.0000 
     10 O          15.3015  -24.6695  -28.5485 O.2       1 ALC1        0.0000 
     11 O          16.7480  -24.6130  -28.8330 O.2       7 ALL1        0.0000 
     12 O          13.8550  -24.7260  -28.2640 O.2       4 ALP1        0.0000 
     13 N          15.7355  -27.3680  -29.8165 N.am      2 SEC2        0.0000 
     14 N          17.1090  -26.8130  -29.4710 N.am      8 SEL2        0.0000 
     15 N          14.3620  -27.9230  -30.1620 N.am      5 SEP2        0.0000 
     16 CA         18.7650  -28.0935  -28.2875 C.3       3 GLC5        0.0000 
     17 CA         17.9110  -27.7730  -29.8970 C.3       9 GLL5        0.0000 
     18 CA         19.6190  -28.4140  -26.6780 C.3       6 GLP5        0.0000 
     19 CA         16.0655  -28.0755  -30.7245 C.3       3 GLC5        0.0000 
     20 CA         14.2200  -28.3780  -31.5520 C.3       6 GLP5        0.0000 
     21 CA         19.2760  -25.7790  -31.7345 C.3       3 GLC5        0.0000 
     22 CA         19.7240  -26.3410  -29.9320 C.3       9 GLL5        0.0000 
     23 CA         25.6917  -27.0098  -28.7048 C.3       3 GLC5        0.0000 
     24 CA         24.4420  -26.5720  -30.1880 C.3       9 GLL5        0.0000 
     25 CA         26.6090  -28.1160  -27.3920 C.3       6 GLP5        0.0000 
     26 CA         17.5250  -25.5970  -27.5113 C.3       3 GLC5        0.0000 
     27 CA         16.8100  -25.7540  -25.6540 C.3       6 GLP5        0.0000 
     28 CA         17.7790  -24.5600  -30.8158 C.3       3 GLC5        0.0000 
     29 CA         17.5680  -25.5720  -29.2530 C.3       9 GLL5        0.0000 
     30 CA         17.3180  -23.6800  -32.2630 C.3       6 GLP5        0.0000 
     31 CA         19.3005  -27.1523  -28.1641 C.3       3 GLC5        0.0000 
@<TRIPOS>BOND
@<TRIPOS>SUBSTRUCTURE
     1 ALC1       10 GROUP        1 X    ALC  0     ROOT ALC X 1
     2 SEC2       13 GROUP        1 X    SEC  0     **** SEC X 2
     3 GLC5        1 GROUP        1 X    GLC  0     **** GLC X 6
     4 ALP1       12 GROUP        1 Y    ALP  0     ROOT ALP Y 8
     5 SEP2       15 GROUP        1 Y    SEP  0     **** SEP Y 9
     6 GLP5        3 GROUP        1 Y    GLP  0     **** GLP Y 13
     7 ALL1       11 GROUP        1 Z    ALL  0     ROOT ALL Z 15
     8 SEL2       14 GROUP        1 Z    SEL  0     **** SEL Z 16
     9 GLL5        2 GROUP        1 Z    GLL  0     **** GLL Z 20
@<TRIPOS>SET

