#    Name: 3b2t_M33_1_ligand
#    Modification time : Mon Mar 24 18:49:56 2014

@<TRIPOS>MOLECULE
3b2t_M33_1_ligand
   42    44     1     0     0
SMALL
NO_CHARGES


@<TRIPOS>ATOM
      1 PB         26.8760  -22.2150  -31.7810 P.3       1 M331996     0.0000 
      2 O1B        27.1880  -20.8710  -31.2450 O.co2     1 M331996     0.0000 
      3 O2B        27.2500  -23.4960  -31.1410 O.co2     1 M331996     0.0000 
      4 C3B        26.5580  -22.3560  -33.5580 C.3       1 M331996     0.0000 
      5 PA         24.7770  -22.6150  -29.9560 P.3       1 M331996     0.0000 
      6 O1A        23.6300  -21.7370  -29.6320 O.co2     1 M331996     0.0000 
      7 O2A        25.9420  -22.6180  -29.0410 O.co2     1 M331996     0.0000 
      8 O3A        25.3040  -22.2250  -31.4290 O.3       1 M331996     0.0000 
      9 O5'        24.2520  -24.1260  -30.1430 O.3       1 M331996     0.0000 
     10 C5'        25.1070  -25.2350  -29.8470 C.3       1 M331996     0.0000 
     11 C4'        24.4420  -26.5720  -30.1880 C.3       1 M331996     0.0000 
     12 O4'        23.1590  -26.6290  -29.5350 O.3       1 M331996     0.0000 
     13 C3'        24.1430  -26.6170  -31.6890 C.3       1 M331996     0.0000 
     14 O3'        23.9260  -27.9690  -32.1010 O.3       1 M331996     0.0000 
     15 C2'        22.8200  -25.8570  -31.7160 C.3       1 M331996     0.0000 
     16 O2'        22.1350  -26.1610  -32.9340 O.3       1 M331996     0.0000 
     17 C1'        22.1420  -26.5800  -30.5520 C.3       1 M331996     0.0000 
     18 N9         20.9480  -25.8420  -30.0810 N.pl3     1 M331996     0.0000 
     19 C8         20.9100  -24.5550  -29.7410 C.2       1 M331996     0.0000 
     20 N7         19.6740  -24.2220  -29.3770 N.2       1 M331996     0.0000 
     21 C5         18.9120  -25.3080  -29.4840 C.ar      1 M331996     0.0000 
     22 C6         17.5680  -25.5720  -29.2530 C.ar      1 M331996     0.0000 
     23 N6         16.7480  -24.6130  -28.8330 N.pl3     1 M331996     0.0000 
     24 N1         17.1090  -26.8130  -29.4710 N.ar      1 M331996     0.0000 
     25 C2         17.9110  -27.7730  -29.8970 C.ar      1 M331996     0.0000 
     26 N3         19.1940  -27.5560  -30.1270 N.ar      1 M331996     0.0000 
     27 C4         19.7240  -26.3410  -29.9320 C.ar      1 M331996     0.0000 
     28 H          25.3787  -25.2626  -28.7775 H         1 M331996     0.0000 
     29 H          26.0523  -25.1802  -30.4144 H         1 M331996     0.0000 
     30 H          25.0626  -27.3678  -29.9277 H         1 M331996     0.0000 
     31 H          24.8569  -26.0909  -32.2005 H         1 M331996     0.0000 
     32 H          22.9690  -24.8854  -31.4882 H         1 M331996     0.0000 
     33 H          21.8892  -27.5620  -30.8797 H         1 M331996     0.0000 
     34 H          21.6780  -23.9445  -29.7567 H         1 M331996     0.0000 
     35 H          15.7988  -24.8842  -28.6737 H         1 M331996     0.0000 
     36 H          17.1546  -23.7071  -28.7144 H         1 M331996     0.0000 
     37 H          17.5135  -28.7455  -30.0589 H         1 M331996     0.0000 
     38 H          27.3447  -22.0616  -34.1006 H         1 M331996     0.0000 
     39 H          26.3537  -23.2977  -33.8251 H         1 M331996     0.0000 
     40 H          25.7800  -21.7955  -33.8417 H         1 M331996     0.0000 
     41 H          23.5308  -28.4226  -31.3022 H         1 M331996     0.0000 
     42 H          22.6161  -26.9526  -33.3107 H         1 M331996     0.0000 
@<TRIPOS>BOND
     1    2    1 ar   
     2    3    1 ar   
     3    4    1 1    
     4    8    1 1    
     5   38    4 1    
     6   39    4 1    
     7   40    4 1    
     8    6    5 ar   
     9    7    5 ar   
    10    8    5 1    
    11    9    5 1    
    12   10    9 1    
    13   11   10 1    
    14   28   10 1    
    15   29   10 1    
    16   12   11 1    
    17   13   11 1    
    18   30   11 1    
    19   17   12 1    
    20   14   13 1    
    21   15   13 1    
    22   31   13 1    
    23   41   14 1    
    24   16   15 1    
    25   17   15 1    
    26   32   15 1    
    27   42   16 1    
    28   18   17 1    
    29   33   17 1    
    30   19   18 1    
    31   27   18 1    
    32   20   19 2    
    33   34   19 1    
    34   21   20 1    
    35   22   21 ar   
    36   27   21 ar   
    37   23   22 1    
    38   24   22 ar   
    39   35   23 1    
    40   36   23 1    
    41   25   24 ar   
    42   26   25 ar   
    43   37   25 1    
    44   27   26 ar   
@<TRIPOS>SUBSTRUCTURE
     1 M331996     1 GROUP   
@<TRIPOS>SET

