#    Name: 2rh6_AMP_1_INTS_M
#    Modification time : Mon Mar 24 23:57:18 2014

@<TRIPOS>MOLECULE
2rh6_AMP_1_INTS_M
   47     0    12     0     0
SMALL
NO_CHARGES


@<TRIPOS>ATOM
      1 Zn         26.7595   44.2395   24.7050 Zn        3 ZIC7        0.0000 
      2 Zn         27.6160   44.6900   23.9170 Zn       11 ZIL7        0.0000 
      3 Zn         25.9030   43.7890   25.4930 Zn        7 ZIP7        0.0000 
      4 Zn         28.1830   45.6950   23.9750 Zn        3 ZIC7        0.0000 
      5 Zn         28.7500   46.7000   24.0330 Zn        7 ZIP7        0.0000 
      6 N          29.0785   41.9560   24.4715 N.am      2 SEC2        0.0000 
      7 N          29.5790   43.1300   23.5410 N.am     10 SEL2        0.0000 
      8 N          28.5780   40.7820   25.4020 N.am      6 SEP2        0.0000 
      9 N          28.3935   42.9640   23.8230 N.am      2 SEC2        0.0000 
     10 N          27.2080   42.7980   24.1050 N.am      6 SEP2        0.0000 
     11 N          30.5515   42.0480   23.0340 N.am      2 SEC2        0.0000 
     12 N          31.5240   40.9660   22.5270 N.am      6 SEP2        0.0000 
     13 Zn         29.2045   46.1575   23.3970 Zn        3 ZIC7        0.0000 
     14 Zn         29.6590   45.6150   22.7610 Zn       11 ZIL7        0.0000 
     15 CA         26.9640   42.9240   22.4375 C.3       4 GLC5        0.0000 
     16 CA         26.9660   44.3890   21.1720 C.3      12 GLL5        0.0000 
     17 CA         26.9620   41.4590   23.7030 C.3       8 GLP5        0.0000 
     18 CA         28.0170   42.7225   19.2490 C.3       4 GLC5        0.0000 
     19 CA         26.9410   44.6050   19.6670 C.3      12 GLL5        0.0000 
     20 CA         29.0930   40.8400   18.8310 C.3       8 GLP5        0.0000 
     21 CA         25.4270   47.7405   19.1935 C.3       4 GLC5        0.0000 
     22 CA         25.8270   45.5700   19.2580 C.3      12 GLL5        0.0000 
     23 CA         25.0270   49.9110   19.1290 C.3       8 GLP5        0.0000 
     24 O          25.4265   47.6570   17.8420 O.2       1 ALC1        0.0000 
     25 O          26.3220   46.6820   18.4950 O.2       9 ALL1        0.0000 
     26 O          24.5310   48.6320   17.1890 O.2       5 ALP1        0.0000 
     27 CA         23.4735   44.2960   17.1700 C.3       4 GLC5        0.0000 
     28 CA         24.8590   44.7640   18.4230 C.3      12 GLL5        0.0000 
     29 CA         22.0880   43.8280   15.9170 C.3       8 GLP5        0.0000 
     30 O          24.5100   47.0575   17.2135 O.2       1 ALC1        0.0000 
     31 O          24.4890   45.4830   17.2380 O.2       9 ALL1        0.0000 
     32 CA         27.3405   42.1475   18.4685 C.3       4 GLC5        0.0000 
     33 CA         25.5880   43.4550   18.1060 C.3      12 GLL5        0.0000 
     34 CA         24.2985   43.4180   16.5450 C.3       4 GLC5        0.0000 
     35 CA         23.0090   43.3810   14.9840 C.3       8 GLP5        0.0000 
     36 N          24.0150   37.8455   15.2280 N.am      2 SEC2        0.0000 
     37 N          24.0730   38.8640   16.0140 N.am     10 SEL2        0.0000 
     38 N          23.9570   36.8270   14.4420 N.am      6 SEP2        0.0000 
     39 CA         27.1880   39.7255   16.0920 C.3       4 GLC5        0.0000 
     40 CA         25.0630   39.7000   15.6200 C.3      12 GLL5        0.0000 
     41 CA         29.3130   39.7510   16.5640 C.3       8 GLP5        0.0000 
     42 CA         23.2950   39.8480   14.8345 C.3       4 GLC5        0.0000 
     43 CA         21.5270   39.9960   14.0490 C.3       8 GLP5        0.0000 
     44 CA         23.5650   46.0530   19.1472 C.3       4 GLC5        0.0000 
     45 CA         21.7870   46.9390   19.4540 C.3       8 GLP5        0.0000 
     46 CA         22.4703   39.8720   15.7477 C.3       4 GLC5        0.0000 
     47 CA         23.5420   40.3730   17.8160 C.3      12 GLL5        0.0000 
@<TRIPOS>BOND
@<TRIPOS>SUBSTRUCTURE
     1 ALC1       24 GROUP        1 X    ALC  0     ROOT ALC X 1
     2 SEC2        6 GROUP        1 X    SEC  0     **** SEC X 2
     3 ZIC7        1 GROUP        1 X    ZIC  0     **** ZIC X 5
     4 GLC5       15 GROUP        1 X    GLC  0     **** GLC X 6
     5 ALP1       26 GROUP        1 Y    ALP  0     ROOT ALP Y 8
     6 SEP2        8 GROUP        1 Y    SEP  0     **** SEP Y 9
     7 ZIP7        3 GROUP        1 Y    ZIP  0     **** ZIP Y 12
     8 GLP5       17 GROUP        1 Y    GLP  0     **** GLP Y 13
     9 ALL1       25 GROUP        1 Z    ALL  0     ROOT ALL Z 15
    10 SEL2        7 GROUP        1 Z    SEL  0     **** SEL Z 16
    11 ZIL7        2 GROUP        1 Z    ZIL  0     **** ZIL Z 19
    12 GLL5       16 GROUP        1 Z    GLL  0     **** GLL Z 20
@<TRIPOS>SET

