#    Name: 2rh6_AMP_1_ligand
#    Modification time : Mon Mar 24 23:57:18 2014

@<TRIPOS>MOLECULE
2rh6_AMP_1_ligand
   35    37     1     0     0
SMALL
NO_CHARGES


@<TRIPOS>ATOM
      1 P          28.8330   44.3910   23.0590 P.3       1 AMP433      0.0000 
      2 O1P        27.6160   44.6900   23.9170 O.co2     1 AMP433      0.0000 
      3 O2P        29.5790   43.1300   23.5410 O.co2     1 AMP433      0.0000 
      4 O3P        29.6590   45.6150   22.7610 O.co2     1 AMP433      0.0000 
      5 O5'        28.2570   43.9550   21.6050 O.3       1 AMP433      0.0000 
      6 C5'        26.9660   44.3890   21.1720 C.3       1 AMP433      0.0000 
      7 C4'        26.9410   44.6050   19.6670 C.3       1 AMP433      0.0000 
      8 O4'        26.6710   43.3460   19.0410 O.3       1 AMP433      0.0000 
      9 C3'        25.8270   45.5700   19.2580 C.3       1 AMP433      0.0000 
     10 O3'        26.3220   46.6820   18.4950 O.3       1 AMP433      0.0000 
     11 C2'        24.8590   44.7640   18.4230 C.3       1 AMP433      0.0000 
     12 O2'        24.4890   45.4830   17.2380 O.3       1 AMP433      0.0000 
     13 C1'        25.5880   43.4550   18.1060 C.3       1 AMP433      0.0000 
     14 N9         24.6640   42.2860   18.1800 N.pl3     1 AMP433      0.0000 
     15 C8         23.6880   42.1110   19.0900 C.2       1 AMP433      0.0000 
     16 N7         23.0000   40.9600   18.8890 N.2       1 AMP433      0.0000 
     17 C5         23.5420   40.3730   17.8160 C.ar      1 AMP433      0.0000 
     18 C6         23.2850   39.1230   17.0770 C.ar      1 AMP433      0.0000 
     19 N6         22.2910   38.2890   17.4740 N.pl3     1 AMP433      0.0000 
     20 N1         24.0730   38.8640   16.0140 N.ar      1 AMP433      0.0000 
     21 C2         25.0630   39.7000   15.6200 C.ar      1 AMP433      0.0000 
     22 N3         25.3470   40.8570   16.2530 N.ar      1 AMP433      0.0000 
     23 C4         24.6380   41.2410   17.3460 C.ar      1 AMP433      0.0000 
     24 H          26.6763   45.3367   21.6535 H         1 AMP433      0.0000 
     25 H          26.1876   43.6496   21.4195 H         1 AMP433      0.0000 
     26 H          27.8773   45.0015   19.3496 H         1 AMP433      0.0000 
     27 H          25.3152   45.8843   20.1486 H         1 AMP433      0.0000 
     28 H          24.0106   44.5246   19.0393 H         1 AMP433      0.0000 
     29 H          25.9766   43.5468   17.0948 H         1 AMP433      0.0000 
     30 H          23.4909   42.7458   19.8232 H         1 AMP433      0.0000 
     31 H          21.7542   38.5883   18.2629 H         1 AMP433      0.0000 
     32 H          22.1831   37.4488   16.9426 H         1 AMP433      0.0000 
     33 H          25.6427   39.4296   14.7712 H         1 AMP433      0.0000 
     34 H          25.5044   47.1499   18.1594 H         1 AMP433      0.0000 
     35 H          24.6077   46.4477   17.4731 H         1 AMP433      0.0000 
@<TRIPOS>BOND
     1    2    1 ar   
     2    3    1 ar   
     3    4    1 ar   
     4    5    1 1    
     5    6    5 1    
     6    7    6 1    
     7   24    6 1    
     8   25    6 1    
     9    8    7 1    
    10    9    7 1    
    11   26    7 1    
    12   13    8 1    
    13   10    9 1    
    14   11    9 1    
    15   27    9 1    
    16   34   10 1    
    17   12   11 1    
    18   13   11 1    
    19   28   11 1    
    20   35   12 1    
    21   14   13 1    
    22   29   13 1    
    23   15   14 1    
    24   23   14 1    
    25   16   15 2    
    26   30   15 1    
    27   17   16 1    
    28   18   17 ar   
    29   23   17 ar   
    30   19   18 1    
    31   20   18 ar   
    32   31   19 1    
    33   32   19 1    
    34   21   20 ar   
    35   22   21 ar   
    36   33   21 1    
    37   23   22 ar   
@<TRIPOS>SUBSTRUCTURE
     1 AMP433      1 GROUP   
@<TRIPOS>SET

