#    Name: 1zly_DQB_1_INTS_M
#    Modification time : Tue Mar 25 11:51:11 2014

@<TRIPOS>MOLECULE
1zly_DQB_1_INTS_M
   46     0    12     0     0
SMALL
NO_CHARGES


@<TRIPOS>ATOM
      1 CA         35.8820   36.7185   31.2330 C.3       4 GLC5        0.0000 
      2 CA         34.8260   37.0590   33.0530 C.3      12 GLL5        0.0000 
      3 CA         36.9380   36.3780   29.4130 C.3       8 GLP5        0.0000 
      4 NZ         28.9440   38.4010   34.0820 N.4       3 LYC4        0.0000 
      5 NZ         30.4910   38.5430   34.2290 N.4      11 LYL4        0.0000 
      6 NZ         26.7570   37.1750   34.3490 N.4       7 LYP4        0.0000 
      7 N          28.9440   38.4010   34.0820 N.am      2 SEC2        0.0000 
      8 N          30.4910   38.5430   34.2290 N.am     10 SEL2        0.0000 
      9 N          27.3970   38.2590   33.9350 N.am      6 SEP2        0.0000 
     10 N          30.6705   37.6655   35.4250 N.am      2 SEC2        0.0000 
     11 N          30.8500   36.7880   36.6210 N.am      6 SEP2        0.0000 
     12 O          38.5030   34.2915   35.4805 O.2       1 ALC1        0.0000 
     13 O          37.2210   34.7220   35.8460 O.2       9 ALL1        0.0000 
     14 O          39.7850   33.8610   35.1150 O.2       5 ALP1        0.0000 
     15 N          32.6875   37.3870   40.3775 N.am      2 SEC2        0.0000 
     16 N          34.2870   37.5560   40.6950 N.am     10 SEL2        0.0000 
     17 N          31.0880   37.2180   40.0600 N.am      6 SEP2        0.0000 
     18 O          36.8810   38.8285   42.4645 O.2       1 ALC1        0.0000 
     19 O          36.5310   38.3870   41.2740 O.2       9 ALL1        0.0000 
     20 O          37.2310   39.2700   43.6550 O.2       5 ALP1        0.0000 
     21 CA         32.5980   35.3125   40.4090 C.3       4 GLC5        0.0000 
     22 CA         34.0710   35.8300   39.0750 C.3      12 GLL5        0.0000 
     23 CA         31.1250   34.7950   41.7430 C.3       8 GLP5        0.0000 
     24 N          39.4100   38.2885   39.5960 N.am      2 SEC2        0.0000 
     25 N          38.5170   37.6070   40.3480 N.am     10 SEL2        0.0000 
     26 N          40.3030   38.9700   38.8440 N.am      6 SEP2        0.0000 
     27 O          35.9190   39.2710   42.9735 O.2       1 ALC1        0.0000 
     28 O          34.6070   39.2720   42.2920 O.2       9 ALL1        0.0000 
     29 CA         33.3295   33.8307   33.3955 C.3       4 GLC5        0.0000 
     30 CA         35.2790   34.8100   34.1600 C.3      12 GLL5        0.0000 
     31 CA         31.7650   32.4430   33.0910 C.3       8 GLP5        0.0000 
     32 CA         34.1295   38.1462   34.7853 C.3       4 GLC5        0.0000 
     33 CA         32.8750   38.9490   36.1330 C.3       8 GLP5        0.0000 
     34 CA         37.2177   38.3778   35.5003 C.3       4 GLC5        0.0000 
     35 CA         35.9420   37.6280   33.8220 C.3      12 GLL5        0.0000 
     36 CA         38.1100   39.5360   36.7190 C.3       8 GLP5        0.0000 
     37 CA         37.4072   37.8317   37.9118 C.3       4 GLC5        0.0000 
     38 CA         36.9780   35.6510   38.6220 C.3      12 GLL5        0.0000 
     39 CA         34.9342   33.7782   39.7565 C.3       4 GLC5        0.0000 
     40 CA         35.5280   32.1980   40.9160 C.3       8 GLP5        0.0000 
     41 CA         36.2100   36.1882   41.5643 C.3       4 GLC5        0.0000 
     42 CA         34.9670   36.6930   39.8120 C.3      12 GLL5        0.0000 
     43 CA         36.7210   35.7280   43.4290 C.3       8 GLP5        0.0000 
     44 CA         33.0669   36.7874   38.4477 C.3       4 GLC5        0.0000 
     45 CA         31.4800   37.5490   37.6910 C.3       8 GLP5        0.0000 
     46 CA         36.0220   33.3756   39.2625 C.3       4 GLC5        0.0000 
@<TRIPOS>BOND
@<TRIPOS>SUBSTRUCTURE
     1 ALC1       12 GROUP        1 X    ALC  0     ROOT ALC X 1
     2 SEC2        7 GROUP        1 X    SEC  0     **** SEC X 2
     3 LYC4        4 GROUP        1 X    LYC  0     **** LYC X 4
     4 GLC5        1 GROUP        1 X    GLC  0     **** GLC X 6
     5 ALP1       14 GROUP        1 Y    ALP  0     ROOT ALP Y 8
     6 SEP2        9 GROUP        1 Y    SEP  0     **** SEP Y 9
     7 LYP4        6 GROUP        1 Y    LYP  0     **** LYP Y 11
     8 GLP5        3 GROUP        1 Y    GLP  0     **** GLP Y 13
     9 ALL1       13 GROUP        1 Z    ALL  0     ROOT ALL Z 15
    10 SEL2        8 GROUP        1 Z    SEL  0     **** SEL Z 16
    11 LYL4        5 GROUP        1 Z    LYL  0     **** LYL Z 18
    12 GLL5        2 GROUP        1 Z    GLL  0     **** GLL Z 20
@<TRIPOS>SET

