#    Name: 1zly_DQB_1_ligand
#    Modification time : Tue Mar 25 11:51:11 2014

@<TRIPOS>MOLECULE
1zly_DQB_1_ligand
   49    51     1     0     0
SMALL
NO_CHARGES


@<TRIPOS>ATOM
      1 C11        36.4000   35.3980   34.9280 C.ar      1 DQB1301     0.0000 
      2 C12        35.2790   34.8100   34.1600 C.ar      1 DQB1301     0.0000 
      3 C13        34.5090   35.6270   33.2400 C.ar      1 DQB1301     0.0000 
      4 C14        34.8260   37.0590   33.0530 C.ar      1 DQB1301     0.0000 
      5 C15        35.9420   37.6280   33.8220 C.ar      1 DQB1301     0.0000 
      6 C16        36.7090   36.8110   34.7410 C.ar      1 DQB1301     0.0000 
      7 C          34.0460   37.8990   32.1130 C.2       1 DQB1301     0.0000 
      8 O          34.3330   39.1190   31.9630 O.2       1 DQB1301     0.0000 
      9 N          33.0230   37.2790   31.4410 N.am      1 DQB1301     0.0000 
     10 CA         32.2090   37.7770   30.3150 C.3       1 DQB1301     0.0000 
     11 CB         31.1990   38.8480   30.7730 C.3       1 DQB1301     0.0000 
     12 CG         30.2000   38.4200   31.8610 C.3       1 DQB1301     0.0000 
     13 CD         30.3530   39.1910   33.1730 C.2       1 DQB1301     0.0000 
     14 OE1        30.4910   38.5430   34.2290 O.co2     1 DQB1301     0.0000 
     15 OE2        30.3270   40.4520   33.1530 O.co2     1 DQB1301     0.0000 
     16 N10        37.2210   34.7220   35.8460 N.pl3     1 DQB1301     0.0000 
     17 N1         34.2870   37.5560   40.6950 N.2       1 DQB1301     0.0000 
     18 C2         35.1120   38.4030   41.4220 C.2       1 DQB1301     0.0000 
     19 N3         36.5310   38.3870   41.2740 N.am      1 DQB1301     0.0000 
     20 C4         37.2830   37.5120   40.3720 C.2       1 DQB1301     0.0000 
     21 C5         36.9780   35.6510   38.6220 C.ar      1 DQB1301     0.0000 
     22 C6         36.0520   34.7800   37.8760 C.ar      1 DQB1301     0.0000 
     23 C7         34.6100   34.8870   38.1190 C.ar      1 DQB1301     0.0000 
     24 C8         34.0710   35.8300   39.0750 C.ar      1 DQB1301     0.0000 
     25 C4A        36.4310   36.6040   39.5870 C.ar      1 DQB1301     0.0000 
     26 C8A        34.9670   36.6930   39.8120 C.ar      1 DQB1301     0.0000 
     27 OA4        38.5170   37.6070   40.3480 O.2       1 DQB1301     0.0000 
     28 NA2        34.6070   39.2720   42.2920 N.pl3     1 DQB1301     0.0000 
     29 C9         36.5170   33.8910   36.9690 C.3       1 DQB1301     0.0000 
     30 H          35.0593   33.8358   34.2856 H         1 DQB1301     0.0000 
     31 H          33.7462   35.2239   32.7165 H         1 DQB1301     0.0000 
     32 H          36.1716   38.6071   33.7015 H         1 DQB1301     0.0000 
     33 H          37.4736   37.2248   35.2642 H         1 DQB1301     0.0000 
     34 H          32.7449   36.2776   31.7550 H         1 DQB1301     0.0000 
     35 H          31.6469   36.9568   29.8520 H         1 DQB1301     0.0000 
     36 H          32.8484   38.2221   29.5430 H         1 DQB1301     0.0000 
     37 H          30.6295   39.1967   29.8861 H         1 DQB1301     0.0000 
     38 H          31.7640   39.7312   31.1380 H         1 DQB1301     0.0000 
     39 H          30.3306   37.3458   32.0580 H         1 DQB1301     0.0000 
     40 H          29.1786   38.5610   31.4782 H         1 DQB1301     0.0000 
     41 H          38.2019   34.7246   35.8456 H         1 DQB1301     0.0000 
     42 H          37.0977   39.0544   41.8553 H         1 DQB1301     0.0000 
     43 H          37.9586   35.5876   38.4678 H         1 DQB1301     0.0000 
     44 H          33.9800   34.2800   37.5988 H         1 DQB1301     0.0000 
     45 H          33.0767   35.8847   39.2260 H         1 DQB1301     0.0000 
     46 H          35.1743   39.4760   43.0898 H         1 DQB1301     0.0000 
     47 H          33.7053   39.6432   42.0702 H         1 DQB1301     0.0000 
     48 H          37.2745   33.2059   37.3532 H         1 DQB1301     0.0000 
     49 H          35.7427   33.3076   36.4682 H         1 DQB1301     0.0000 
@<TRIPOS>BOND
     1    2    1 ar   
     2    6    1 ar   
     3   16    1 1    
     4    3    2 ar   
     5   30    2 1    
     6    4    3 ar   
     7   31    3 1    
     8    5    4 ar   
     9    7    4 1    
    10    6    5 ar   
    11   32    5 1    
    12   33    6 1    
    13    8    7 2    
    14    9    7 am   
    15   10    9 1    
    16   34    9 1    
    17   11   10 1    
    18   35   10 1    
    19   36   10 1    
    20   12   11 1    
    21   37   11 1    
    22   38   11 1    
    23   13   12 1    
    24   39   12 1    
    25   40   12 1    
    26   14   13 ar   
    27   15   13 ar   
    28   29   16 1    
    29   41   16 1    
    30   18   17 2    
    31   26   17 1    
    32   19   18 1    
    33   28   18 1    
    34   20   19 am   
    35   42   19 1    
    36   25   20 1    
    37   27   20 2    
    38   22   21 ar   
    39   25   21 ar   
    40   43   21 1    
    41   23   22 ar   
    42   29   22 1    
    43   24   23 ar   
    44   44   23 1    
    45   26   24 ar   
    46   45   24 1    
    47   26   25 ar   
    48   46   28 1    
    49   47   28 1    
    50   48   29 1    
    51   49   29 1    
@<TRIPOS>SUBSTRUCTURE
     1 DQB1301     1 GROUP   
@<TRIPOS>SET

