#    Name: 3tqh_NDP_1_INTS_M
#    Modification time : Mon Mar 24 20:49:39 2014

@<TRIPOS>MOLECULE
3tqh_NDP_1_INTS_M
   82     0     9     0     0
SMALL
NO_CHARGES


@<TRIPOS>ATOM
      1 N          16.4755   12.9160   70.7100 N.am      2 SEC2        0.0000 
      2 N          17.4260   13.4730   71.5790 N.am      8 SEL2        0.0000 
      3 N          15.5250   12.3590   69.8410 N.am      5 SEP2        0.0000 
      4 CA         13.1320   14.9105   74.6930 C.3       3 GLC5        0.0000 
      5 CA         14.4340   16.1240   73.5520 C.3       9 GLL5        0.0000 
      6 CA         11.8300   13.6970   75.8340 C.3       6 GLP5        0.0000 
      7 CA         15.3510   18.9495   73.0305 C.3       3 GLC5        0.0000 
      8 CA         14.0430   17.5010   73.0310 C.3       9 GLL5        0.0000 
      9 CA         16.6590   20.3980   73.0300 C.3       6 GLP5        0.0000 
     10 CA         13.9905   19.9625   74.7085 C.3       3 GLC5        0.0000 
     11 CA         13.2780   18.1610   74.1740 C.3       9 GLL5        0.0000 
     12 CA         14.7030   21.7640   75.2430 C.3       6 GLP5        0.0000 
     13 CA         12.4575   15.3600   75.4980 C.3       3 GLC5        0.0000 
     14 CA         13.0850   17.0230   75.1620 C.3       9 GLL5        0.0000 
     15 CA         10.2075   15.4940   76.8355 C.3       3 GLC5        0.0000 
     16 CA          9.9180   16.7810   78.3700 C.3       9 GLL5        0.0000 
     17 CA         10.4970   14.2070   75.3010 C.3       6 GLP5        0.0000 
     18 CA          7.9745   16.5755   78.0415 C.3       3 GLC5        0.0000 
     19 CA          6.0310   16.3700   77.7130 C.3       6 GLP5        0.0000 
     20 CA         11.0305   15.3655   79.0510 C.3       3 GLC5        0.0000 
     21 CA         12.1430   13.9500   79.7320 C.3       6 GLP5        0.0000 
     22 CA         11.9360   15.4875   76.6390 C.3       3 GLC5        0.0000 
     23 CA         12.0420   17.2780   77.4440 C.3       9 GLL5        0.0000 
     24 N          15.3740   10.1175   71.6220 N.am      2 SEC2        0.0000 
     25 N          15.8030   10.7510   72.8350 N.am      8 SEL2        0.0000 
     26 N          14.9450    9.4840   70.4090 N.am      5 SEP2        0.0000 
     27 CA         14.5395   10.0505   76.2670 C.3       3 GLC5        0.0000 
     28 CA         16.5790   10.3730   75.8270 C.3       9 GLL5        0.0000 
     29 CA         12.5000    9.7280   76.7070 C.3       6 GLP5        0.0000 
     30 CA         16.6985    9.2395   79.0295 C.3       3 GLC5        0.0000 
     31 CA         17.1930    9.7090   77.0550 C.3       9 GLL5        0.0000 
     32 CA         16.2040    8.7700   81.0040 C.3       6 GLP5        0.0000 
     33 N          20.0505   10.3140   79.2445 N.am      2 SEC2        0.0000 
     34 N          18.8830   10.4230   78.5920 N.am      8 SEL2        0.0000 
     35 N          21.2180   10.2050   79.8970 N.am      5 SEP2        0.0000 
     36 N          20.9495    9.4915   78.6730 N.am      2 SEC2        0.0000 
     37 N          20.6810    8.7780   77.4490 N.am      8 SEL2        0.0000 
     38 CA         16.9705    6.3865   77.2365 C.3       3 GLC5        0.0000 
     39 CA         18.4530    7.7590   77.1180 C.3       9 GLL5        0.0000 
     40 CA         15.4880    5.0140   77.3550 C.3       6 GLP5        0.0000 
     41 CA         18.0190    7.2880   79.1695 C.3       3 GLC5        0.0000 
     42 CA         17.5850    6.8170   81.2210 C.3       6 GLP5        0.0000 
     43 N          19.0675    0.3405   76.1070 N.am      2 SEC2        0.0000 
     44 N          19.2350    1.6430   76.3260 N.am      8 SEL2        0.0000 
     45 N          18.9000   -0.9620   75.8880 N.am      5 SEP2        0.0000 
     46 O          17.9690    3.6545   79.1765 O.2       1 ALC1        0.0000 
     47 O          18.8660    2.8140   78.3830 O.2       7 ALL1        0.0000 
     48 O          17.0720    4.4950   79.9700 O.2       4 ALP1        0.0000 
     49 O          18.1925    1.7895   78.9475 O.2       1 ALC1        0.0000 
     50 O          17.5190    0.7650   79.5120 O.2       4 ALP1        0.0000 
     51 CA         19.1635    2.0770   74.2380 C.3       3 GLC5        0.0000 
     52 CA         19.0650    4.1570   74.8180 C.3       9 GLL5        0.0000 
     53 CA         19.2620   -0.0030   73.6580 C.3       6 GLP5        0.0000 
     54 CA         17.1105    5.8145   76.1465 C.3       3 GLC5        0.0000 
     55 CA         18.7330    6.6150   74.9380 C.3       9 GLL5        0.0000 
     56 N           9.3390   20.9565   73.4350 N.am      2 SEC2        0.0000 
     57 N          10.4720   20.4940   72.9560 N.am      8 SEL2        0.0000 
     58 N           8.2060   21.4190   73.9140 N.am      5 SEP2        0.0000 
     59 N          10.4395   21.9130   73.5600 N.am      2 SEC2        0.0000 
     60 N          10.4070   23.3320   74.1640 N.am      5 SEP2        0.0000 
     61 N          10.5955   20.6315   71.6195 N.am      2 SEC2        0.0000 
     62 N          10.7190   20.7690   70.2830 N.am      5 SEP2        0.0000 
     63 N          11.0430   22.1115   74.6070 N.am      2 SEC2        0.0000 
     64 N          11.6790   20.8910   75.0500 N.am      8 SEL2        0.0000 
     65 N          11.6345   20.8160   76.3020 N.am      2 SEC2        0.0000 
     66 N          11.5900   20.7410   77.5540 N.am      5 SEP2        0.0000 
     67 CA         14.3021   15.4177   71.8455 C.3       3 GLC5        0.0000 
     68 CA         14.0000   14.1120   70.4530 C.3       6 GLP5        0.0000 
     69 CA         12.0909   15.7331   79.0316 C.3       3 GLC5        0.0000 
     70 CA         12.4680   17.7610   78.6760 C.3       9 GLL5        0.0000 
     71 CA         20.4390   10.5750   76.2050 C.3       3 GLC5        0.0000 
     72 CA         18.6490   10.1110   77.2380 C.3       9 GLL5        0.0000 
     73 CA         21.8380   11.6480   75.3940 C.3       6 GLP5        0.0000 
     74 CA         19.9093    4.7212   72.7167 C.3       3 GLC5        0.0000 
     75 CA         20.8080    4.6190   70.9500 C.3       6 GLP5        0.0000 
     76 CA         17.2124    4.7287   76.5431 C.3       3 GLC5        0.0000 
     77 CA         17.2816    4.1210   74.3956 C.3       3 GLC5        0.0000 
     78 CA         18.9160    4.1270   76.3130 C.3       9 GLL5        0.0000 
     79 CA         15.5900    3.4260   73.9340 C.3       6 GLP5        0.0000 
     80 CA         17.2963    6.6263   73.3588 C.3       3 GLC5        0.0000 
     81 CA         18.9560    5.4900   74.1490 C.3       9 GLL5        0.0000 
     82 CA         15.7480    7.2000   72.1740 C.3       6 GLP5        0.0000 
@<TRIPOS>BOND
@<TRIPOS>SUBSTRUCTURE
     1 ALC1       46 GROUP        1 X    ALC  0     ROOT ALC X 1
     2 SEC2        1 GROUP        1 X    SEC  0     **** SEC X 2
     3 GLC5        4 GROUP        1 X    GLC  0     **** GLC X 6
     4 ALP1       48 GROUP        1 Y    ALP  0     ROOT ALP Y 8
     5 SEP2        3 GROUP        1 Y    SEP  0     **** SEP Y 9
     6 GLP5        6 GROUP        1 Y    GLP  0     **** GLP Y 13
     7 ALL1       47 GROUP        1 Z    ALL  0     ROOT ALL Z 15
     8 SEL2        2 GROUP        1 Z    SEL  0     **** SEL Z 16
     9 GLL5        5 GROUP        1 Z    GLL  0     **** GLL Z 20
@<TRIPOS>SET

