#    Name: 3tqh_NDP_1_ligand
#    Modification time : Mon Mar 24 20:49:39 2014

@<TRIPOS>MOLECULE
3tqh_NDP_1_ligand
   74    78     1     0     0
SMALL
NO_CHARGES


@<TRIPOS>ATOM
      1 PA         17.4710   13.7140   73.0340 P.3       1 NDP500      0.0000 
      2 O1A        18.5980   14.5920   73.4030 O.co2     1 NDP500      0.0000 
      3 O2A        17.4260   13.4730   71.5790 O.co2     1 NDP500      0.0000 
      4 O5B        16.0800   14.3740   73.4940 O.3       1 NDP500      0.0000 
      5 C5B        15.8970   15.7680   73.3380 C.3       1 NDP500      0.0000 
      6 C4B        14.4340   16.1240   73.5520 C.3       1 NDP500      0.0000 
      7 O4B        14.1530   16.1330   74.9360 O.3       1 NDP500      0.0000 
      8 C3B        14.0430   17.5010   73.0310 C.3       1 NDP500      0.0000 
      9 O3B        13.2480   17.3620   71.8730 O.3       1 NDP500      0.0000 
     10 C2B        13.2780   18.1610   74.1740 C.3       1 NDP500      0.0000 
     11 O2B        12.0290   18.6790   73.7730 O.3       1 NDP500      0.0000 
     12 C1B        13.0850   17.0230   75.1620 C.3       1 NDP500      0.0000 
     13 N9A        13.0910   17.4280   76.5760 N.pl3     1 NDP500      0.0000 
     14 C8A        14.1360   17.9810   77.2740 C.2       1 NDP500      0.0000 
     15 N7A        13.7440   18.1790   78.5490 N.2       1 NDP500      0.0000 
     16 C5A        12.4680   17.7610   78.6760 C.ar      1 NDP500      0.0000 
     17 C6A        11.6030   17.7480   79.7610 C.ar      1 NDP500      0.0000 
     18 N6A        12.0120   18.2100   80.9310 N.pl3     1 NDP500      0.0000 
     19 N1A        10.3250   17.2600   79.6070 N.ar      1 NDP500      0.0000 
     20 C2A         9.9180   16.7810   78.3700 C.ar      1 NDP500      0.0000 
     21 N3A        10.7820   16.7870   77.2890 N.ar      1 NDP500      0.0000 
     22 C4A        12.0420   17.2780   77.4440 C.ar      1 NDP500      0.0000 
     23 O3         17.5380   12.3310   73.8570 O.3       1 NDP500      0.0000 
     24 PN         17.1930   10.8540   73.3030 P.3       1 NDP500      0.0000 
     25 O1N        18.2820   10.4090   72.4080 O.co2     1 NDP500      0.0000 
     26 O2N        15.8030   10.7510   72.8350 O.co2     1 NDP500      0.0000 
     27 O5D        17.3230   10.0270   74.6750 O.3       1 NDP500      0.0000 
     28 C5D        16.5790   10.3730   75.8270 C.3       1 NDP500      0.0000 
     29 C4D        17.1930    9.7090   77.0550 C.3       1 NDP500      0.0000 
     30 O4D        17.1560    8.3010   76.9190 O.3       1 NDP500      0.0000 
     31 C3D        18.6490   10.1110   77.2380 C.3       1 NDP500      0.0000 
     32 O3D        18.8830   10.4230   78.5920 O.3       1 NDP500      0.0000 
     33 C2D        19.4310    8.8930   76.7940 C.3       1 NDP500      0.0000 
     34 O2D        20.6810    8.7780   77.4490 O.3       1 NDP500      0.0000 
     35 C1D        18.4530    7.7590   77.1180 C.3       1 NDP500      0.0000 
     36 N1N        18.6200    6.5300   76.3080 N.pl3     1 NDP500      0.0000 
     37 C2N        18.7010    5.3330   76.9760 C.2       1 NDP500      0.0000 
     38 C3N        18.9160    4.1270   76.3130 C.2       1 NDP500      0.0000 
     39 C7N        19.0010    2.8270   77.0580 C.2       1 NDP500      0.0000 
     40 O7N        19.2350    1.6430   76.3260 O.2       1 NDP500      0.0000 
     41 N7N        18.8660    2.8140   78.3830 N.am      1 NDP500      0.0000 
     42 C4N        19.0650    4.1570   74.8180 C.3       1 NDP500      0.0000 
     43 C5N        18.9560    5.4900   74.1490 C.2       1 NDP500      0.0000 
     44 C6N        18.7330    6.6150   74.9380 C.2       1 NDP500      0.0000 
     45 P2B        11.7730   20.2670   73.6840 P.3       1 NDP500      0.0000 
     46 O1X        10.4720   20.4940   72.9560 O.co2     1 NDP500      0.0000 
     47 O2X        12.8880   20.9300   72.9120 O.co2     1 NDP500      0.0000 
     48 O3X        11.6790   20.8910   75.0500 O.co2     1 NDP500      0.0000 
     49 H          16.1804   16.1101   72.3328 H         1 NDP500      0.0000 
     50 H          16.4903   16.3443   74.0617 H         1 NDP500      0.0000 
     51 H          13.8164   15.3882   73.0504 H         1 NDP500      0.0000 
     52 H          14.9417   18.0541   72.8656 H         1 NDP500      0.0000 
     53 H          13.9212   18.8787   74.6310 H         1 NDP500      0.0000 
     54 H          12.1450   16.5327   74.9196 H         1 NDP500      0.0000 
     55 H          14.9993   18.1876   76.9023 H         1 NDP500      0.0000 
     56 H          11.3292   18.2246   81.6614 H         1 NDP500      0.0000 
     57 H          12.9670   18.5028   80.9790 H         1 NDP500      0.0000 
     58 H           8.9562   16.4151   78.2560 H         1 NDP500      0.0000 
     59 H          15.5342   10.0421   75.7581 H         1 NDP500      0.0000 
     60 H          16.5726   11.4568   76.0039 H         1 NDP500      0.0000 
     61 H          16.6460   10.0285   77.9294 H         1 NDP500      0.0000 
     62 H          18.8534   10.9111   76.5695 H         1 NDP500      0.0000 
     63 H          19.5062    8.9413   75.7187 H         1 NDP500      0.0000 
     64 H          18.5808    7.5213   78.1785 H         1 NDP500      0.0000 
     65 H          18.5990    5.3174   78.0169 H         1 NDP500      0.0000 
     66 H          18.7247    3.7025   78.8196 H         1 NDP500      0.0000 
     67 H          18.9181    1.9169   78.8218 H         1 NDP500      0.0000 
     68 H          18.3049    3.4632   74.3694 H         1 NDP500      0.0000 
     69 H          20.0524    3.6958   74.5482 H         1 NDP500      0.0000 
     70 H          19.0481    5.5232   73.1524 H         1 NDP500      0.0000 
     71 H          18.6502    7.5448   74.4729 H         1 NDP500      0.0000 
     72 H          12.3398   17.6819   72.1428 H         1 NDP500      0.0000 
     73 H          18.7536   11.4126   78.6555 H         1 NDP500      0.0000 
     74 H          21.3624    8.9545   76.7387 H         1 NDP500      0.0000 
@<TRIPOS>BOND
     1    2    1 ar   
     2    3    1 ar   
     3    4    1 1    
     4   23    1 1    
     5    5    4 1    
     6    6    5 1    
     7   49    5 1    
     8   50    5 1    
     9    7    6 1    
    10    8    6 1    
    11   51    6 1    
    12   12    7 1    
    13    9    8 1    
    14   10    8 1    
    15   52    8 1    
    16   72    9 1    
    17   11   10 1    
    18   12   10 1    
    19   53   10 1    
    20   45   11 1    
    21   13   12 1    
    22   54   12 1    
    23   14   13 1    
    24   22   13 1    
    25   15   14 2    
    26   55   14 1    
    27   16   15 1    
    28   17   16 ar   
    29   22   16 ar   
    30   18   17 1    
    31   19   17 ar   
    32   56   18 1    
    33   57   18 1    
    34   20   19 ar   
    35   21   20 ar   
    36   58   20 1    
    37   22   21 ar   
    38   24   23 1    
    39   25   24 ar   
    40   26   24 ar   
    41   27   24 1    
    42   28   27 1    
    43   29   28 1    
    44   59   28 1    
    45   60   28 1    
    46   30   29 1    
    47   31   29 1    
    48   61   29 1    
    49   35   30 1    
    50   32   31 1    
    51   33   31 1    
    52   62   31 1    
    53   73   32 1    
    54   34   33 1    
    55   35   33 1    
    56   63   33 1    
    57   74   34 1    
    58   36   35 1    
    59   64   35 1    
    60   37   36 1    
    61   44   36 1    
    62   38   37 2    
    63   65   37 1    
    64   39   38 1    
    65   42   38 1    
    66   40   39 2    
    67   41   39 am   
    68   66   41 1    
    69   67   41 1    
    70   43   42 1    
    71   68   42 1    
    72   69   42 1    
    73   44   43 2    
    74   70   43 1    
    75   71   44 1    
    76   46   45 ar   
    77   47   45 ar   
    78   48   45 ar   
@<TRIPOS>SUBSTRUCTURE
     1 NDP500      1 GROUP   
@<TRIPOS>SET

