#    Name: 3tm0_ANP_1_INTS_M
#    Modification time : Mon Mar 24 20:22:07 2014

@<TRIPOS>MOLECULE
3tm0_ANP_1_INTS_M
   63     0    15     0     0
SMALL
NO_CHARGES


@<TRIPOS>ATOM
      1 Zn         51.4430   40.7275   17.5925 Zn        4 ZIC7        0.0000 
      2 Zn         50.7410   40.1590   17.2340 Zn       14 ZIL7        0.0000 
      3 Zn         52.1450   41.2960   17.9510 Zn        9 ZIP7        0.0000 
      4 Zn         51.2350   41.5815   14.5580 Zn        4 ZIC7        0.0000 
      5 Zn         50.4570   41.1500   14.9140 Zn       14 ZIL7        0.0000 
      6 Zn         52.0130   42.0130   14.2020 Zn        9 ZIP7        0.0000 
      7 N          47.3645   39.3755   15.8630 N.am      2 SEC2        0.0000 
      8 N          48.8540   39.3940   15.7740 N.am     12 SEL2        0.0000 
      9 N          45.8750   39.3570   15.9520 N.am      7 SEP2        0.0000 
     10 NZ         50.1640   44.6980   18.6340 N.4       3 LYC4        0.0000 
     11 NZ         48.5290   43.7010   18.5450 N.4      13 LYL4        0.0000 
     12 NZ         51.7990   45.6950   18.7230 N.4       8 LYP4        0.0000 
     13 N          48.3300   42.7270   19.3790 N.am      2 SEC2        0.0000 
     14 N          48.5290   43.7010   18.5450 N.am     12 SEL2        0.0000 
     15 N          48.1310   41.7530   20.2130 N.am      7 SEP2        0.0000 
     16 NZ         51.3025   44.3045   18.2865 N.4       3 LYC4        0.0000 
     17 NZ         50.8060   42.9140   17.8500 N.4      13 LYL4        0.0000 
     18 Zn         51.4755   42.1050   17.9005 Zn        4 ZIC7        0.0000 
     19 Zn         50.8060   42.9140   17.8500 Zn       14 ZIL7        0.0000 
     20 N          51.3025   44.3045   18.2865 N.am      2 SEC2        0.0000 
     21 N          50.8060   42.9140   17.8500 N.am     12 SEL2        0.0000 
     22 N          51.7990   45.6950   18.7230 N.am      7 SEP2        0.0000 
     23 NZ         51.6045   45.7665   17.4105 N.4       3 LYC4        0.0000 
     24 NZ         51.4100   45.8380   16.0980 N.4      13 LYL4        0.0000 
     25 N          51.6045   45.7665   17.4105 N.am      2 SEC2        0.0000 
     26 N          51.4100   45.8380   16.0980 N.am     12 SEL2        0.0000 
     27 Zn         51.6480   42.9410   14.3825 Zn        4 ZIC7        0.0000 
     28 Zn         51.2830   43.8690   14.5630 Zn       14 ZIL7        0.0000 
     29 CA         47.7400   46.8345   14.5240 C.3       5 GLC5        0.0000 
     30 CA         48.7080   45.1070   13.5400 C.3      15 GLL5        0.0000 
     31 CA         46.7720   48.5620   15.5080 C.3      10 GLP5        0.0000 
     32 O          51.4330   43.8715   10.4670 O.2       1 ALC1        0.0000 
     33 O          50.0450   44.3180   10.7990 O.2      11 ALL1        0.0000 
     34 O          52.8210   43.4250   10.1350 O.2       6 ALP1        0.0000 
     35 CA         51.1950   45.9995    8.9920 C.3       5 GLC5        0.0000 
     36 CA         49.7190   46.6180   10.4710 C.3      15 GLL5        0.0000 
     37 CA         52.6710   45.3810    7.5130 C.3      10 GLP5        0.0000 
     38 CA         48.2130   49.4275   11.5495 C.3       5 GLC5        0.0000 
     39 CA         48.9970   47.6710   11.2600 C.3      15 GLL5        0.0000 
     40 CA         47.4290   51.1840   11.8390 C.3      10 GLP5        0.0000 
     41 CA         52.3550   53.3305   11.3500 C.3       5 GLC5        0.0000 
     42 CA         52.0740   51.3730   12.1340 C.3      15 GLL5        0.0000 
     43 CA         52.6360   55.2880   10.5660 C.3      10 GLP5        0.0000 
     44 CA         53.8395   51.4645   10.7745 C.3       5 GLC5        0.0000 
     45 CA         55.6050   51.5560    9.4150 C.3      10 GLP5        0.0000 
     46 CA         53.7080   50.1830   12.4160 C.3       5 GLC5        0.0000 
     47 CA         55.3420   48.9930   12.6980 C.3      10 GLP5        0.0000 
     48 O          53.1225   53.5650   13.2025 O.2       1 ALC1        0.0000 
     49 O          52.7870   52.0680   13.1830 O.2      11 ALL1        0.0000 
     50 O          53.4580   55.0620   13.2220 O.2       6 ALP1        0.0000 
     51 N          53.1885   52.6600   10.3830 N.am      2 SEC2        0.0000 
     52 N          52.1640   51.7850   10.8620 N.am     12 SEL2        0.0000 
     53 N          54.2130   53.5350    9.9040 N.am      7 SEP2        0.0000 
     54 CA         51.5105   52.9405    9.1215 C.3       5 GLC5        0.0000 
     55 CA         51.4890   51.1590    9.8840 C.3      15 GLL5        0.0000 
     56 CA         51.5320   54.7220    8.3590 C.3      10 GLP5        0.0000 
     57 CA         53.5470   51.3575    9.6495 C.3       5 GLC5        0.0000 
     58 CA         51.2651   46.8496   11.6604 C.3       5 GLC5        0.0000 
     59 CA         53.1380   46.8310   12.2150 C.3      10 GLP5        0.0000 
     60 CA         50.4205   51.9333   13.4650 C.3       5 GLC5        0.0000 
     61 CA         51.2660   50.2680   12.4260 C.3      15 GLL5        0.0000 
     62 CA         49.1710   53.0460   14.6500 C.3      10 GLP5        0.0000 
     63 CA         52.0270   48.3933   12.0615 C.3       5 GLC5        0.0000 
@<TRIPOS>BOND
@<TRIPOS>SUBSTRUCTURE
     1 ALC1       32 GROUP        1 X    ALC  0     ROOT ALC X 1
     2 SEC2        7 GROUP        1 X    SEC  0     **** SEC X 2
     3 LYC4       10 GROUP        1 X    LYC  0     **** LYC X 4
     4 ZIC7        1 GROUP        1 X    ZIC  0     **** ZIC X 5
     5 GLC5       29 GROUP        1 X    GLC  0     **** GLC X 6
     6 ALP1       34 GROUP        1 Y    ALP  0     ROOT ALP Y 8
     7 SEP2        9 GROUP        1 Y    SEP  0     **** SEP Y 9
     8 LYP4       12 GROUP        1 Y    LYP  0     **** LYP Y 11
     9 ZIP7        3 GROUP        1 Y    ZIP  0     **** ZIP Y 12
    10 GLP5       31 GROUP        1 Y    GLP  0     **** GLP Y 13
    11 ALL1       33 GROUP        1 Z    ALL  0     ROOT ALL Z 15
    12 SEL2        8 GROUP        1 Z    SEL  0     **** SEL Z 16
    13 LYL4       11 GROUP        1 Z    LYL  0     **** LYL Z 18
    14 ZIL7        2 GROUP        1 Z    ZIL  0     **** ZIL Z 19
    15 GLL5       30 GROUP        1 Z    GLL  0     **** GLL Z 20
@<TRIPOS>SET

