#    Name: 3tm0_ANP_1_ligand
#    Modification time : Mon Mar 24 20:22:07 2014

@<TRIPOS>MOLECULE
3tm0_ANP_1_ligand
   43    45     1     0     0
SMALL
NO_CHARGES


@<TRIPOS>ATOM
      1 PG         49.6880   40.5690   16.1790 P.3       1 ANP300      0.0000 
      2 O1G        50.7410   40.1590   17.2340 O.co2     1 ANP300      0.0000 
      3 O2G        50.4570   41.1500   14.9140 O.co2     1 ANP300      0.0000 
      4 O3G        48.8540   39.3940   15.7740 O.co2     1 ANP300      0.0000 
      5 PB         49.3880   43.1200   17.3930 P.3       1 ANP300      0.0000 
      6 O1B        48.5290   43.7010   18.5450 O.co2     1 ANP300      0.0000 
      7 O2B        50.8060   42.9140   17.8500 O.co2     1 ANP300      0.0000 
      8 N3B        48.6090   41.7560   16.8310 N.4       1 ANP300      0.0000 
      9 PA         50.4810   44.8930   15.3600 P.3       1 ANP300      0.0000 
     10 O1A        51.4100   45.8380   16.0980 O.co2     1 ANP300      0.0000 
     11 O2A        51.2830   43.8690   14.5630 O.co2     1 ANP300      0.0000 
     12 O3A        49.3630   44.1740   16.2300 O.3       1 ANP300      0.0000 
     13 O5'        49.6130   45.7860   14.3910 O.3       1 ANP300      0.0000 
     14 C5'        48.7080   45.1070   13.5400 C.3       1 ANP300      0.0000 
     15 C4'        48.5750   45.5670   12.1660 C.3       1 ANP300      0.0000 
     16 O4'        48.1870   46.9820   12.1810 O.3       1 ANP300      0.0000 
     17 C3'        49.8560   45.5130   11.4320 C.3       1 ANP300      0.0000 
     18 O3'        50.0450   44.3180   10.7990 O.3       1 ANP300      0.0000 
     19 C2'        49.7190   46.6180   10.4710 C.3       1 ANP300      0.0000 
     20 O2'        48.9740   46.2460    9.4030 O.3       1 ANP300      0.0000 
     21 C1'        48.9970   47.6710   11.2600 C.3       1 ANP300      0.0000 
     22 N9         49.8710   48.6270   11.9600 N.pl3     1 ANP300      0.0000 
     23 C8         50.1130   48.6150   13.2840 C.2       1 ANP300      0.0000 
     24 N7         50.9650   49.6170   13.5680 N.2       1 ANP300      0.0000 
     25 C5         51.2660   50.2680   12.4260 C.ar      1 ANP300      0.0000 
     26 C6         52.0740   51.3730   12.1340 C.ar      1 ANP300      0.0000 
     27 N6         52.7870   52.0680   13.1830 N.pl3     1 ANP300      0.0000 
     28 N1         52.1640   51.7850   10.8620 N.ar      1 ANP300      0.0000 
     29 C2         51.4890   51.1590    9.8840 C.ar      1 ANP300      0.0000 
     30 N3         50.7050   50.1120   10.1270 N.ar      1 ANP300      0.0000 
     31 C4         50.5660   49.6430   11.3900 C.ar      1 ANP300      0.0000 
     32 H          47.6688   45.0985   14.0136 H         1 ANP300      0.0000 
     33 H          48.9630   43.9940   13.5185 H         1 ANP300      0.0000 
     34 H          47.8331   45.0064   11.6386 H         1 ANP300      0.0000 
     35 H          50.6427   45.7746   12.1237 H         1 ANP300      0.0000 
     36 H          50.6883   46.9952   10.2365 H         1 ANP300      0.0000 
     37 H          48.3516   48.2187   10.5573 H         1 ANP300      0.0000 
     38 H          49.7385   47.9926   13.9218 H         1 ANP300      0.0000 
     39 H          52.9011   53.0537   13.0591 H         1 ANP300      0.0000 
     40 H          53.1067   51.5051   13.9452 H         1 ANP300      0.0000 
     41 H          51.5876   51.5141    8.8903 H         1 ANP300      0.0000 
     42 H          50.9821   44.3544   10.4521 H         1 ANP300      0.0000 
     43 H          49.0882   45.2545    9.3407 H         1 ANP300      0.0000 
@<TRIPOS>BOND
     1    2    1 ar   
     2    3    1 ar   
     3    4    1 ar   
     4    8    1 1    
     5    6    5 ar   
     6    7    5 ar   
     7    8    5 1    
     8   12    5 1    
     9   10    9 ar   
    10   11    9 ar   
    11   12    9 1    
    12   13    9 1    
    13   14   13 1    
    14   15   14 1    
    15   32   14 1    
    16   33   14 1    
    17   16   15 1    
    18   17   15 1    
    19   34   15 1    
    20   21   16 1    
    21   18   17 1    
    22   19   17 1    
    23   35   17 1    
    24   42   18 1    
    25   20   19 1    
    26   21   19 1    
    27   36   19 1    
    28   43   20 1    
    29   22   21 1    
    30   37   21 1    
    31   23   22 1    
    32   31   22 1    
    33   24   23 2    
    34   38   23 1    
    35   25   24 1    
    36   26   25 ar   
    37   31   25 ar   
    38   27   26 1    
    39   28   26 ar   
    40   39   27 1    
    41   40   27 1    
    42   29   28 ar   
    43   30   29 ar   
    44   41   29 1    
    45   31   30 ar   
@<TRIPOS>SUBSTRUCTURE
     1 ANP300      1 GROUP   
@<TRIPOS>SET

