#    Name: 2x6d_X6D_1_INTS_M
#    Modification time : Tue Mar 25 05:10:01 2014

@<TRIPOS>MOLECULE
2x6d_X6D_1_INTS_M
   77     0     6     0     0
SMALL
NO_CHARGES


@<TRIPOS>ATOM
      1 CA          0.6485   31.7110   81.3245 C.3       2 GLC5        0.0000 
      2 CA         -0.9050   33.3100   81.3010 C.3       6 GLL5        0.0000 
      3 CA          2.2020   30.1120   81.3480 C.3       4 GLP5        0.0000 
      4 O          -1.4130   33.9510   78.3630 O.2       1 ALC1        0.0000 
      5 O          -1.4030   32.6240   79.0030 O.2       5 ALL1        0.0000 
      6 O          -1.4230   35.2780   77.7230 O.2       3 ALP1        0.0000 
      7 CA         -2.9050   33.1600   77.2460 C.3       2 GLC5        0.0000 
      8 CA         -2.0680   31.6280   78.4390 C.3       6 GLL5        0.0000 
      9 CA         -3.7420   34.6920   76.0530 C.3       4 GLP5        0.0000 
     10 CA         -4.5970   29.9955   75.4175 C.3       2 GLC5        0.0000 
     11 CA         -2.9770   30.2450   76.8410 C.3       6 GLL5        0.0000 
     12 CA         -6.2170   29.7460   73.9940 C.3       4 GLP5        0.0000 
     13 CA         -1.8645   30.9875   75.4390 C.3       2 GLC5        0.0000 
     14 CA         -0.7520   31.7300   74.0370 C.3       4 GLP5        0.0000 
     15 CA         -2.6095   27.8705   76.3825 C.3       2 GLC5        0.0000 
     16 CA         -4.4550   27.8960   77.1200 C.3       6 GLL5        0.0000 
     17 CA         -0.7640   27.8450   75.6450 C.3       4 GLP5        0.0000 
     18 CA         -5.3360   28.8210   75.5570 C.3       2 GLC5        0.0000 
     19 CA         -4.5775   26.4370   75.7870 C.3       2 GLC5        0.0000 
     20 CA         -4.7000   24.9780   74.4540 C.3       4 GLP5        0.0000 
     21 CA         -2.3460   27.7915   79.1370 C.3       2 GLC5        0.0000 
     22 CA         -3.3240   29.6820   79.1680 C.3       6 GLL5        0.0000 
     23 CA         -1.3680   25.9010   79.1060 C.3       4 GLP5        0.0000 
     24 CA         -1.6675   28.9385   81.7780 C.3       2 GLC5        0.0000 
     25 CA         -3.5800   29.2630   81.7370 C.3       6 GLL5        0.0000 
     26 CA          0.2450   28.6140   81.8190 C.3       4 GLP5        0.0000 
     27 CA         -3.5360   27.9110   84.0200 C.3       2 GLC5        0.0000 
     28 CA         -4.8700   29.1780   82.7260 C.3       6 GLL5        0.0000 
     29 CA         -2.2020   26.6440   85.3140 C.3       4 GLP5        0.0000 
     30 CA         -5.8240   31.1840   82.7645 C.3       2 GLC5        0.0000 
     31 CA         -6.7780   33.1900   82.8030 C.3       4 GLP5        0.0000 
     32 CA         -4.5650   19.3940   82.3515 C.3       2 GLC5        0.0000 
     33 CA         -5.1970   21.0150   81.8100 C.3       6 GLL5        0.0000 
     34 CA         -3.9330   17.7730   82.8930 C.3       4 GLP5        0.0000 
     35 CA         -4.2230   22.6625   80.7100 C.3       2 GLC5        0.0000 
     36 CA         -3.2490   24.3100   79.6100 C.3       4 GLP5        0.0000 
     37 CA         -4.9310   21.1560   79.8520 C.3       2 GLC5        0.0000 
     38 CA         -4.6650   21.2970   77.8940 C.3       4 GLP5        0.0000 
     39 CA         -5.6850   19.4775   80.6720 C.3       2 GLC5        0.0000 
     40 CA         -6.1730   17.9400   79.5340 C.3       4 GLP5        0.0000 
     41 CA         -3.6070   25.6495   84.3760 C.3       2 GLC5        0.0000 
     42 CA         -5.0120   24.6550   83.4380 C.3       6 GLL5        0.0000 
     43 CA         -0.8925   37.3740   86.8270 C.3       2 GLC5        0.0000 
     44 CA          1.1480   37.1950   85.9770 C.3       6 GLL5        0.0000 
     45 CA         -2.6560   36.8650   87.5150 C.3       4 GLP5        0.0000 
     46 CA         -1.6558   35.0607   82.4573 C.3       2 GLC5        0.0000 
     47 CA          0.3440   34.6340   83.3450 C.3       6 GLL5        0.0000 
     48 CA         -3.2090   35.9840   81.4210 C.3       4 GLP5        0.0000 
     49 CA         -2.1215   34.5610   81.6890 C.3       2 GLC5        0.0000 
     50 CA         -1.1630   32.9660   82.6130 C.3       6 GLL5        0.0000 
     51 CA         -1.4283   35.2925   81.4658 C.3       2 GLC5        0.0000 
     52 CA          0.0480   34.2600   80.9960 C.3       6 GLL5        0.0000 
     53 CA         -2.0110   28.8335   76.4862 C.3       2 GLC5        0.0000 
     54 CA         -3.5390   29.3990   77.8140 C.3       6 GLL5        0.0000 
     55 CA         -4.9430   30.8655   77.2212 C.3       2 GLC5        0.0000 
     56 CA         -6.6280   31.9090   77.1150 C.3       4 GLP5        0.0000 
     57 CA         -2.6825   27.2742   78.2865 C.3       2 GLC5        0.0000 
     58 CA         -0.9345   29.8016   79.2460 C.3       2 GLC5        0.0000 
     59 CA          0.9500   29.1490   79.4320 C.3       4 GLP5        0.0000 
     60 CA         -4.4235   31.7676   79.1735 C.3       2 GLC5        0.0000 
     61 CA         -2.5600   30.8250   79.4650 C.3       6 GLL5        0.0000 
     62 CA         -6.0280   33.0810   79.2870 C.3       4 GLP5        0.0000 
     63 CA         -4.8607   24.6400   80.9620 C.3       2 GLC5        0.0000 
     64 CA         -6.0590   25.3090   82.7820 C.3       6 GLL5        0.0000 
     65 CA         -4.6540   23.6430   80.7498 C.3       2 GLC5        0.0000 
     66 CA         -6.5840   23.3040   81.5670 C.3       6 GLL5        0.0000 
     67 CA         -6.5465   22.5450   79.9532 C.3       2 GLC5        0.0000 
     68 CA         -5.5340   22.6480   82.2120 C.3       6 GLL5        0.0000 
     69 CA         -7.0340   22.1140   78.0170 C.3       4 GLP5        0.0000 
     70 CA         -3.9982   23.6740   85.1765 C.3       2 GLC5        0.0000 
     71 CA         -4.7450   23.3210   83.1420 C.3       6 GLL5        0.0000 
     72 CA         -3.1180   23.3600   87.0630 C.3       4 GLP5        0.0000 
     73 CA         -5.5191   21.8171   84.3278 C.3       2 GLC5        0.0000 
     74 CA         -5.9830   21.0580   86.0790 C.3       4 GLP5        0.0000 
     75 CA         -3.3846   21.7146   82.5803 C.3       2 GLC5        0.0000 
     76 CA         -1.7140   20.8530   82.5840 C.3       4 GLP5        0.0000 
     77 CA         -4.0637   24.1490   81.4500 C.3       2 GLC5        0.0000 
@<TRIPOS>BOND
@<TRIPOS>SUBSTRUCTURE
     1 ALC1        4 GROUP        1 X    ALC  0     ROOT ALC X 1
     2 GLC5        1 GROUP        1 X    GLC  0     **** GLC X 6
     3 ALP1        6 GROUP        1 Y    ALP  0     ROOT ALP Y 8
     4 GLP5        3 GROUP        1 Y    GLP  0     **** GLP Y 13
     5 ALL1        5 GROUP        1 Z    ALL  0     ROOT ALL Z 15
     6 GLL5        2 GROUP        1 Z    GLL  0     **** GLL Z 20
@<TRIPOS>SET

