#    Name: 2x6d_X6D_1_ligand
#    Modification time : Tue Mar 25 05:10:01 2014

@<TRIPOS>MOLECULE
2x6d_X6D_1_ligand
   70    75     1     0     0
SMALL
NO_CHARGES


@<TRIPOS>ATOM
      1 CAN         0.6340   37.5200   83.6740 C.3       1 X6D1391     0.0000 
      2 CAL         0.0700   38.8790   83.9810 C.3       1 X6D1391     0.0000 
      3 OAY         0.7720   39.3980   85.1580 O.3       1 X6D1391     0.0000 
      4 CAM         0.5940   38.5710   86.3010 C.3       1 X6D1391     0.0000 
      5 CAO         1.1480   37.1950   85.9770 C.3       1 X6D1391     0.0000 
      6 NBI         0.4230   36.6410   84.8320 N.4       1 X6D1391     0.0000 
      7 CAT         0.9830   35.3240   84.5400 C.3       1 X6D1391     0.0000 
      8 CBB         0.3440   34.6340   83.3450 C.ar      1 X6D1391     0.0000 
      9 CAG        -0.5490   33.6410   83.6420 C.ar      1 X6D1391     0.0000 
     10 CAI        -1.1630   32.9660   82.6130 C.ar      1 X6D1391     0.0000 
     11 CAH         0.6570   34.9420   82.0250 C.ar      1 X6D1391     0.0000 
     12 CAJ         0.0480   34.2600   80.9960 C.ar      1 X6D1391     0.0000 
     13 CBD        -0.9050   33.3100   81.3010 C.ar      1 X6D1391     0.0000 
     14 CBE        -1.4880   32.5150   80.3210 C.2       1 X6D1391     0.0000 
     15 NAX        -1.4030   32.6240   79.0030 N.pl3     1 X6D1391     0.0000 
     16 NAW        -2.1950   31.4210   80.5810 N.2       1 X6D1391     0.0000 
     17 CBH        -2.5600   30.8250   79.4650 C.ar      1 X6D1391     0.0000 
     18 CBG        -2.0680   31.6280   78.4390 C.ar      1 X6D1391     0.0000 
     19 NAV        -2.2810   31.3310   77.1490 N.pl3     1 X6D1391     0.0000 
     20 CAK        -2.9770   30.2450   76.8410 C.ar      1 X6D1391     0.0000 
     21 CBC        -3.5390   29.3990   77.8140 C.ar      1 X6D1391     0.0000 
     22 BR         -4.4550   27.8960   77.1200 Br        1 X6D1391     0.0000 
     23 CBF        -3.3240   29.6820   79.1680 C.ar      1 X6D1391     0.0000 
     24 NBK        -3.8650   28.9300   80.2910 N.3       1 X6D1391     0.0000 
     25 CAR        -5.2050   28.7610   80.4210 C.3       1 X6D1391     0.0000 
     26 CAP        -5.8400   27.6630   81.2610 C.3       1 X6D1391     0.0000 
     27 CAS        -3.5800   29.2630   81.7370 C.3       1 X6D1391     0.0000 
     28 CAQ        -4.8700   29.1780   82.7260 C.3       1 X6D1391     0.0000 
     29 NBJ        -5.3440   27.7840   82.6750 N.4       1 X6D1391     0.0000 
     30 CAU        -6.3090   26.7680   83.1740 C.3       1 X6D1391     0.0000 
     31 CBA        -6.0590   25.3090   82.7820 C.ar      1 X6D1391     0.0000 
     32 CAE        -6.8860   24.6310   81.8460 C.ar      1 X6D1391     0.0000 
     33 CAC        -6.5840   23.3040   81.5670 C.ar      1 X6D1391     0.0000 
     34 CAZ        -5.5340   22.6480   82.2120 C.ar      1 X6D1391     0.0000 
     35 CL         -5.1970   21.0150   81.8100 Cl        1 X6D1391     0.0000 
     36 CAD        -4.7450   23.3210   83.1420 C.ar      1 X6D1391     0.0000 
     37 CAF        -5.0120   24.6550   83.4380 C.ar      1 X6D1391     0.0000 
     38 H           1.6985   37.6162   83.4572 H         1 X6D1391     0.0000 
     39 H           0.1335   37.1167   82.7929 H         1 X6D1391     0.0000 
     40 H          -0.9937   38.7871   84.1784 H         1 X6D1391     0.0000 
     41 H           0.2227   39.5298   83.1254 H         1 X6D1391     0.0000 
     42 H          -0.4590   38.4583   86.5632 H         1 X6D1391     0.0000 
     43 H           1.1300   38.9552   87.1701 H         1 X6D1391     0.0000 
     44 H           1.0322   36.5576   86.8541 H         1 X6D1391     0.0000 
     45 H           2.2107   37.2914   85.7528 H         1 X6D1391     0.0000 
     46 H          -0.6141   36.5639   85.0550 H         1 X6D1391     0.0000 
     47 H           0.8765   34.6549   85.4198 H         1 X6D1391     0.0000 
     48 H           2.0740   35.4017   84.3483 H         1 X6D1391     0.0000 
     49 H          -0.7602   33.4005   84.6188 H         1 X6D1391     0.0000 
     50 H          -1.8223   32.1958   82.8207 H         1 X6D1391     0.0000 
     51 H           1.3457   35.6819   81.8243 H         1 X6D1391     0.0000 
     52 H           0.2966   34.4531   80.0216 H         1 X6D1391     0.0000 
     53 H          -0.9231   33.3311   78.5222 H         1 X6D1391     0.0000 
     54 H          -1.9012   31.9506   76.4021 H         1 X6D1391     0.0000 
     55 H          -3.1349   29.9749   75.8321 H         1 X6D1391     0.0000 
     56 H          -5.7177   28.6702   79.3753 H         1 X6D1391     0.0000 
     57 H          -5.7169   29.7466   80.7829 H         1 X6D1391     0.0000 
     58 H          -5.5636   26.6972   80.8537 H         1 X6D1391     0.0000 
     59 H          -6.9181   27.7736   81.2367 H         1 X6D1391     0.0000 
     60 H          -3.1870   30.2845   81.8320 H         1 X6D1391     0.0000 
     61 H          -2.8279   28.5794   82.1539 H         1 X6D1391     0.0000 
     62 H          -5.5879   29.8686   82.3417 H         1 X6D1391     0.0000 
     63 H          -4.5223   29.4567   83.6963 H         1 X6D1391     0.0000 
     64 H          -4.3453   27.1129   82.4698 H         1 X6D1391     0.0000 
     65 H          -7.3442   27.0396   82.8382 H         1 X6D1391     0.0000 
     66 H          -6.3579   26.8176   84.2935 H         1 X6D1391     0.0000 
     67 H          -7.6573   25.1072   81.4101 H         1 X6D1391     0.0000 
     68 H          -7.1478   22.7881   80.8664 H         1 X6D1391     0.0000 
     69 H          -3.9702   22.8353   83.6069 H         1 X6D1391     0.0000 
     70 H          -4.4478   25.1549   84.1298 H         1 X6D1391     0.0000 
@<TRIPOS>BOND
     1    2    1 1    
     2    6    1 1    
     3   38    1 1    
     4   39    1 1    
     5    3    2 1    
     6   40    2 1    
     7   41    2 1    
     8    4    3 1    
     9    5    4 1    
    10   42    4 1    
    11   43    4 1    
    12    6    5 1    
    13   44    5 1    
    14   45    5 1    
    15    7    6 1    
    16   46    6 1    
    17    8    7 1    
    18   47    7 1    
    19   48    7 1    
    20    9    8 ar   
    21   11    8 ar   
    22   10    9 ar   
    23   49    9 1    
    24   13   10 ar   
    25   50   10 1    
    26   12   11 ar   
    27   51   11 1    
    28   13   12 ar   
    29   52   12 1    
    30   14   13 1    
    31   15   14 1    
    32   16   14 2    
    33   18   15 1    
    34   53   15 1    
    35   17   16 1    
    36   18   17 ar   
    37   23   17 ar   
    38   19   18 ar   
    39   20   19 ar   
    40   54   19 1    
    41   21   20 ar   
    42   55   20 1    
    43   22   21 1    
    44   23   21 ar   
    45   24   23 1    
    46   25   24 1    
    47   27   24 1    
    48   26   25 1    
    49   56   25 1    
    50   57   25 1    
    51   29   26 1    
    52   58   26 1    
    53   59   26 1    
    54   28   27 1    
    55   60   27 1    
    56   61   27 1    
    57   29   28 1    
    58   62   28 1    
    59   63   28 1    
    60   30   29 1    
    61   64   29 1    
    62   31   30 1    
    63   65   30 1    
    64   66   30 1    
    65   32   31 ar   
    66   37   31 ar   
    67   33   32 ar   
    68   67   32 1    
    69   34   33 ar   
    70   68   33 1    
    71   35   34 1    
    72   36   34 ar   
    73   37   36 ar   
    74   69   36 1    
    75   70   37 1    
@<TRIPOS>SUBSTRUCTURE
     1 X6D1391     1 GROUP   
@<TRIPOS>SET

