#    Name: 2qhy_MZ1_1_INTS_M
#    Modification time : Mon Mar 24 22:09:56 2014

@<TRIPOS>MOLECULE
2qhy_MZ1_1_INTS_M
   93     0     9     0     0
SMALL
NO_CHARGES


@<TRIPOS>ATOM
      1 N          22.9475   24.3540   12.7270 N.am      2 SEC2        0.0000 
      2 N          22.2540   25.1830   11.8000 N.am      8 SEL2        0.0000 
      3 N          23.6410   23.5250   13.6540 N.am      5 SEP2        0.0000 
      4 O          21.9265   27.8865    9.7315 O.2       1 ALC1        0.0000 
      5 O          22.0820   27.2940   11.0520 O.2       7 ALL1        0.0000 
      6 O          21.7710   28.4790    8.4110 O.2       4 ALP1        0.0000 
      7 CA         26.1260   28.7565   12.1240 C.3       3 GLC5        0.0000 
      8 CA         23.9060   28.6100   12.0710 C.3       9 GLL5        0.0000 
      9 CA         28.3460   28.9030   12.1770 C.3       6 GLP5        0.0000 
     10 CA         24.8720   29.1560   13.6300 C.3       3 GLC5        0.0000 
     11 CA         25.8380   29.7020   15.1890 C.3       6 GLP5        0.0000 
     12 CA         24.5835   30.2775   11.7105 C.3       3 GLC5        0.0000 
     13 CA         25.2610   31.9450   11.3500 C.3       6 GLP5        0.0000 
     14 O          20.5490   27.1250   14.3510 O.2       1 ALC1        0.0000 
     15 O          20.7850   28.5600   13.8350 O.2       7 ALL1        0.0000 
     16 O          20.3130   25.6900   14.8670 O.2       4 ALP1        0.0000 
     17 CA         17.6050   26.5335   14.7985 C.3       3 GLC5        0.0000 
     18 CA         18.4320   28.5360   14.3140 C.3       9 GLL5        0.0000 
     19 CA         16.7780   24.5310   15.2830 C.3       6 GLP5        0.0000 
     20 CA         17.6060   25.7285   13.8150 C.3       3 GLC5        0.0000 
     21 CA         18.4340   26.9260   12.3470 C.3       9 GLL5        0.0000 
     22 N          19.5320   28.1535   17.9335 N.am      2 SEC2        0.0000 
     23 N          20.0760   28.6160   16.6920 N.am      8 SEL2        0.0000 
     24 N          18.9880   27.6910   19.1750 N.am      5 SEP2        0.0000 
     25 O          18.8625   28.4150   17.1145 O.2       1 ALC1        0.0000 
     26 O          20.0760   28.6160   16.6920 O.2       7 ALL1        0.0000 
     27 O          17.6490   28.2140   17.5370 O.2       4 ALP1        0.0000 
     28 CA         17.7165   30.9170   18.0220 C.3       3 GLC5        0.0000 
     29 CA         19.1170   30.8480   16.4200 C.3       9 GLL5        0.0000 
     30 CA         16.3160   30.9860   19.6240 C.3       6 GLP5        0.0000 
     31 CA         15.3955   31.4180   15.6155 C.3       3 GLC5        0.0000 
     32 CA         16.1810   33.1920   16.7060 C.3       9 GLL5        0.0000 
     33 CA         14.6100   29.6440   14.5250 C.3       6 GLP5        0.0000 
     34 CA         15.1020   30.4820   17.1890 C.3       3 GLC5        0.0000 
     35 CA         16.0370   31.8710   16.7730 C.3       9 GLL5        0.0000 
     36 CA         14.1670   29.0930   17.6050 C.3       6 GLP5        0.0000 
     37 CA         14.0855   35.8450   15.8585 C.3       3 GLC5        0.0000 
     38 CA         15.3900   35.3590   17.4490 C.3       9 GLL5        0.0000 
     39 CA         12.7810   36.3310   14.2680 C.3       6 GLP5        0.0000 
     40 CA         13.8160   37.6030   16.9765 C.3       3 GLC5        0.0000 
     41 CA         14.5580   36.1310   18.1840 C.3       9 GLL5        0.0000 
     42 CA         13.0740   39.0750   15.7690 C.3       6 GLP5        0.0000 
     43 CA         12.5225   36.5790   17.9405 C.3       3 GLC5        0.0000 
     44 CA         10.4870   37.0270   17.6970 C.3       6 GLP5        0.0000 
     45 CA         23.1950   32.8705   19.0185 C.3       3 GLC5        0.0000 
     46 CA         22.7040   33.2600   16.9470 C.3       9 GLL5        0.0000 
     47 CA         23.6860   32.4810   21.0900 C.3       6 GLP5        0.0000 
     48 CA         24.7495   31.3895   15.0265 C.3       3 GLC5        0.0000 
     49 CA         23.6610   33.0770   14.8640 C.3       9 GLL5        0.0000 
     50 CA         23.0280   34.9295   14.3645 C.3       3 GLC5        0.0000 
     51 CA         22.0490   32.9860   14.4800 C.3       9 GLL5        0.0000 
     52 CA         24.0070   36.8730   14.2490 C.3       6 GLP5        0.0000 
     53 CA         21.2735   34.5585   13.4570 C.3       3 GLC5        0.0000 
     54 CA         20.4980   36.1310   12.4340 C.3       6 GLP5        0.0000 
     55 CA         23.6820   27.2990   13.8332 C.3       3 GLC5        0.0000 
     56 CA         24.1320   26.3330   15.4900 C.3       6 GLP5        0.0000 
     57 CA         16.2310   27.5718   12.1327 C.3       3 GLC5        0.0000 
     58 CA         18.1280   28.1890   12.8530 C.3       9 GLL5        0.0000 
     59 CA         14.6160   26.4820   11.8390 C.3       6 GLP5        0.0000 
     60 CA         17.2400   30.7780   10.5063 C.3       3 GLC5        0.0000 
     61 CA         17.2960   28.8200   10.6690 C.3       9 GLL5        0.0000 
     62 CA         17.0500   32.5790    9.6780 C.3       6 GLP5        0.0000 
     63 CA         16.2660   29.1961   13.6584 C.3       3 GLC5        0.0000 
     64 CA         17.5640   29.1340   12.0000 C.3       9 GLL5        0.0000 
     65 CA         16.1902   28.4445    9.1923 C.3       3 GLC5        0.0000 
     66 CA         14.9320   28.6990    7.9630 C.3       6 GLP5        0.0000 
     67 CA         16.0322   27.3360   11.1303 C.3       3 GLC5        0.0000 
     68 CA         18.9023   29.5467    9.8456 C.3       3 GLC5        0.0000 
     69 CA         17.6010   27.5600   10.1740 C.3       9 GLL5        0.0000 
     70 CA         20.2890   30.8250    8.9370 C.3       6 GLP5        0.0000 
     71 CA         16.4595   26.6258   11.7595 C.3       3 GLC5        0.0000 
     72 CA         18.1720   26.6130   11.0130 C.3       9 GLL5        0.0000 
     73 CA         15.1777   37.5920   15.6535 C.3       3 GLC5        0.0000 
     74 CA         16.3550   35.9570   16.6510 C.3       9 GLL5        0.0000 
     75 CA         13.9650   38.5520   14.6560 C.3       6 GLP5        0.0000 
     76 CA         15.6729   33.6594   14.4603 C.3       3 GLC5        0.0000 
     77 CA         17.1670   33.7640   15.8930 C.3       9 GLL5        0.0000 
     78 CA         14.6570   33.4910   12.6240 C.3       6 GLP5        0.0000 
     79 CA         14.0890   32.8757   16.3863 C.3       3 GLC5        0.0000 
     80 CA         12.0690   33.2200   16.0330 C.3       6 GLP5        0.0000 
     81 CA         16.0107   32.1199   18.3651 C.3       3 GLC5        0.0000 
     82 CA         15.3020   33.9760   17.4730 C.3       9 GLL5        0.0000 
     83 CA         13.6705   35.6560   19.2447 C.3       3 GLC5        0.0000 
     84 CA         12.3670   35.5670   20.6730 C.3       6 GLP5        0.0000 
     85 CA         13.5105   34.3096   16.9277 C.3       3 GLC5        0.0000 
     86 CA         24.4870   34.1268   17.4992 C.3       3 GLC5        0.0000 
     87 CA         25.6730   35.0130   18.4370 C.3       6 GLP5        0.0000 
     88 CA         24.5995   32.1997   17.2598 C.3       3 GLC5        0.0000 
     89 CA         23.8980   33.2210   16.1760 C.3       9 GLL5        0.0000 
     90 CA         25.8980   31.1590   17.9580 C.3       6 GLP5        0.0000 
     91 CA         23.8933   35.0110   14.8845 C.3       3 GLC5        0.0000 
     92 CA         23.7365   33.1257   12.8290 C.3       3 GLC5        0.0000 
     93 CA         24.6180   33.2200   10.9860 C.3       6 GLP5        0.0000 
@<TRIPOS>BOND
@<TRIPOS>SUBSTRUCTURE
     1 ALC1        4 GROUP        1 X    ALC  0     ROOT ALC X 1
     2 SEC2        1 GROUP        1 X    SEC  0     **** SEC X 2
     3 GLC5        7 GROUP        1 X    GLC  0     **** GLC X 6
     4 ALP1        6 GROUP        1 Y    ALP  0     ROOT ALP Y 8
     5 SEP2        3 GROUP        1 Y    SEP  0     **** SEP Y 9
     6 GLP5        9 GROUP        1 Y    GLP  0     **** GLP Y 13
     7 ALL1        5 GROUP        1 Z    ALL  0     ROOT ALL Z 15
     8 SEL2        2 GROUP        1 Z    SEL  0     **** SEL Z 16
     9 GLL5        8 GROUP        1 Z    GLL  0     **** GLL Z 20
@<TRIPOS>SET

