#    Name: 2qhy_MZ1_1_ligand
#    Modification time : Mon Mar 24 22:09:56 2014

@<TRIPOS>MOLECULE
2qhy_MZ1_1_ligand
   67    69     1     0     0
SMALL
NO_CHARGES


@<TRIPOS>ATOM
      1 O26        22.2540   25.1830   11.8000 O.2       1 MZ1200      0.0000 
      2 C25        21.9560   25.9700   10.9070 C.2       1 MZ1200      0.0000 
      3 C27        21.4550   25.4120    9.5860 C.3       1 MZ1200      0.0000 
      4 N24        22.0820   27.2940   11.0520 N.am      1 MZ1200      0.0000 
      5 C22        22.5580   27.9200   12.2820 C.3       1 MZ1200      0.0000 
      6 C23        23.9060   28.6100   12.0710 C.3       1 MZ1200      0.0000 
      7 C21        21.4960   28.9050   12.7540 C.2       1 MZ1200      0.0000 
      8 O22        21.3210   29.9680   12.1470 O.2       1 MZ1200      0.0000 
      9 N20        20.7850   28.5600   13.8350 N.am      1 MZ1200      0.0000 
     10 C19        19.7080   29.3840   14.4030 C.3       1 MZ1200      0.0000 
     11 C32        18.4320   28.5360   14.3140 C.3       1 MZ1200      0.0000 
     12 C38        18.1280   28.1890   12.8530 C.ar      1 MZ1200      0.0000 
     13 C37        17.5640   29.1340   12.0000 C.ar      1 MZ1200      0.0000 
     14 C36        17.2960   28.8200   10.6690 C.ar      1 MZ1200      0.0000 
     15 C35        17.6010   27.5600   10.1740 C.ar      1 MZ1200      0.0000 
     16 C34        18.1720   26.6130   11.0130 C.ar      1 MZ1200      0.0000 
     17 C33        18.4340   26.9260   12.3470 C.ar      1 MZ1200      0.0000 
     18 C17        20.0740   29.7720   15.8450 C.3       1 MZ1200      0.0000 
     19 O18        20.0760   28.6160   16.6920 O.3       1 MZ1200      0.0000 
     20 C16        19.1170   30.8480   16.4200 C.3       1 MZ1200      0.0000 
     21 N11        19.4300   32.1510   15.7720 N.pl3     1 MZ1200      0.0000 
     22 S8         18.1900   32.8610   14.9870 S.o2      1 MZ1200      0.0000 
     23 O9         18.8410   33.6980   14.0410 O.2       1 MZ1200      0.0000 
     24 O10        17.4870   31.8250   14.3000 O.2       1 MZ1200      0.0000 
     25 C5         17.1670   33.7640   15.8930 C.ar      1 MZ1200      0.0000 
     26 C6         17.2260   35.1630   15.8810 C.ar      1 MZ1200      0.0000 
     27 C7         16.3550   35.9570   16.6510 C.ar      1 MZ1200      0.0000 
     28 F1         16.4260   37.3070   16.6510 F         1 MZ1200      0.0000 
     29 C4         16.1810   33.1920   16.7060 C.ar      1 MZ1200      0.0000 
     30 F3         16.0370   31.8710   16.7730 F         1 MZ1200      0.0000 
     31 C3         15.3020   33.9760   17.4730 C.ar      1 MZ1200      0.0000 
     32 C2         15.3900   35.3590   17.4490 C.ar      1 MZ1200      0.0000 
     33 F2         14.5580   36.1310   18.1840 F         1 MZ1200      0.0000 
     34 C12        20.2090   33.1080   16.6120 C.3       1 MZ1200      0.0000 
     35 C15        21.6480   33.1380   16.1060 C.2       1 MZ1200      0.0000 
     36 C18        22.7040   33.2600   16.9470 C.2       1 MZ1200      0.0000 
     37 C14        23.8980   33.2210   16.1760 C.2       1 MZ1200      0.0000 
     38 C13        23.6610   33.0770   14.8640 C.2       1 MZ1200      0.0000 
     39 S1         22.0490   32.9860   14.4800 S.3       1 MZ1200      0.0000 
     40 H          21.8405   27.9563   10.2751 H         1 MZ1200      0.0000 
     41 H          22.6759   27.1652   13.0548 H         1 MZ1200      0.0000 
     42 H          20.9668   27.6577   14.3452 H         1 MZ1200      0.0000 
     43 H          19.5782   30.2664   13.8153 H         1 MZ1200      0.0000 
     44 H          17.6012   29.0958   14.7305 H         1 MZ1200      0.0000 
     45 H          18.5714   27.6204   14.8790 H         1 MZ1200      0.0000 
     46 H          17.3420   30.0768   12.3566 H         1 MZ1200      0.0000 
     47 H          16.8703   29.5269   10.0531 H         1 MZ1200      0.0000 
     48 H          17.4055   27.3294    9.1930 H         1 MZ1200      0.0000 
     49 H          18.4037   25.6772   10.6532 H         1 MZ1200      0.0000 
     50 H          18.8577   26.2170   12.9642 H         1 MZ1200      0.0000 
     51 H          21.0754   30.2193   15.8192 H         1 MZ1200      0.0000 
     52 H          19.2715   30.9036   17.4884 H         1 MZ1200      0.0000 
     53 H          18.1009   30.5474   16.2066 H         1 MZ1200      0.0000 
     54 H          17.9353   35.6339   15.2848 H         1 MZ1200      0.0000 
     55 H          14.5901   33.5111   18.0545 H         1 MZ1200      0.0000 
     56 H          20.2063   32.7879   17.6471 H         1 MZ1200      0.0000 
     57 H          19.7882   34.1035   16.5360 H         1 MZ1200      0.0000 
     58 H          22.6892   33.3567   17.8926 H         1 MZ1200      0.0000 
     59 H          24.7810   33.2950   16.5990 H         1 MZ1200      0.0000 
     60 H          24.2430   33.0167   14.1070 H         1 MZ1200      0.0000 
     61 H          22.1331   24.8186    9.1524 H         1 MZ1200      0.0000 
     62 H          20.6232   24.8695    9.7036 H         1 MZ1200      0.0000 
     63 H          21.2412   26.1386    8.9331 H         1 MZ1200      0.0000 
     64 H          24.2378   29.0413   12.9100 H         1 MZ1200      0.0000 
     65 H          24.6107   27.9655   11.7742 H         1 MZ1200      0.0000 
     66 H          23.8518   29.3260   11.3750 H         1 MZ1200      0.0000 
     67 H          19.1568   28.2315   16.6070 H         1 MZ1200      0.0000 
@<TRIPOS>BOND
     1    2    1 2    
     2    3    2 1    
     3    4    2 am   
     4   61    3 1    
     5   62    3 1    
     6   63    3 1    
     7    5    4 1    
     8   40    4 1    
     9    6    5 1    
    10    7    5 1    
    11   41    5 1    
    12   64    6 1    
    13   65    6 1    
    14   66    6 1    
    15    8    7 2    
    16    9    7 am   
    17   10    9 1    
    18   42    9 1    
    19   11   10 1    
    20   18   10 1    
    21   43   10 1    
    22   12   11 1    
    23   44   11 1    
    24   45   11 1    
    25   13   12 ar   
    26   17   12 ar   
    27   14   13 ar   
    28   46   13 1    
    29   15   14 ar   
    30   47   14 1    
    31   16   15 ar   
    32   48   15 1    
    33   17   16 ar   
    34   49   16 1    
    35   50   17 1    
    36   19   18 1    
    37   20   18 1    
    38   51   18 1    
    39   67   19 1    
    40   21   20 1    
    41   52   20 1    
    42   53   20 1    
    43   22   21 1    
    44   34   21 1    
    45   23   22 2    
    46   24   22 2    
    47   25   22 1    
    48   26   25 ar   
    49   29   25 ar   
    50   27   26 ar   
    51   54   26 1    
    52   28   27 1    
    53   32   27 ar   
    54   30   29 1    
    55   31   29 ar   
    56   32   31 ar   
    57   55   31 1    
    58   33   32 1    
    59   35   34 1    
    60   56   34 1    
    61   57   34 1    
    62   36   35 2    
    63   39   35 1    
    64   37   36 1    
    65   58   36 1    
    66   38   37 2    
    67   59   37 1    
    68   39   38 1    
    69   60   38 1    
@<TRIPOS>SUBSTRUCTURE
     1 MZ1200      1 GROUP   
@<TRIPOS>SET

