#    Name: 2ZZU_1_CAVITY_N1_6.mol2
#    Modification time : Tue Mar 11 06:52:47 2014

@<TRIPOS>MOLECULE
2ZZU_1_CAVITY_N1_6.mol2
   60     0     4     0     0
SMALL
NO_CHARGES


@<TRIPOS>ATOM
      1 CA         29.0557    8.5370   13.8318 C.3       3 GLY6        0.0000 
      2 CA         38.6341    9.5906    8.4797 C.3       3 GLY6        0.0000 
      3 CA         37.5096    7.8935    9.0760 C.3       3 GLY6        0.0000 
      4 N          36.0136    5.5791   10.9879 N.2       1 ALA2        0.0000 
      5 N          34.8891    3.8820   11.5842 N.2       1 ALA2        0.0000 
      6 CA         34.1362    2.8024   10.8649 C.3       3 GLY6        0.0000 
      7 CA         35.8951    8.1147   10.4341 C.3       3 GLY6        0.0000 
      8 CA         36.2666    8.7321    9.1185 C.3       3 GLY6        0.0000 
      9 CA         36.6381    9.3495    7.8029 C.3       3 GLY6        0.0000 
     10 N          37.0096    9.9669    6.4874 N.2       1 ALA2        0.0000 
     11 N          34.7706    6.4176   11.0304 N.2       1 ALA2        0.0000 
     12 CA         35.1421    7.0350    9.7148 C.3       3 GLY6        0.0000 
     13 DU         35.5136    7.6524    8.3992 H         4 CUB7        0.0000 
     14 DU         35.8851    8.2699    7.0836 H         4 CUB7        0.0000 
     15 N          36.2567    8.8873    5.7680 N.2       1 ALA2        0.0000 
     16 CA         36.6282    9.5047    4.4525 C.3       3 GLY6        0.0000 
     17 N          33.6462    4.7206   11.6267 N.2       1 ALA2        0.0000 
     18 CA         34.0177    5.3380   10.3111 C.3       3 GLY6        0.0000 
     19 CA         34.3892    5.9554    8.9955 C.3       3 GLY6        0.0000 
     20 DU         34.7607    6.5728    7.6799 H         4 CUB7        0.0000 
     21 DU         35.1322    7.1902    6.3643 H         4 CUB7        0.0000 
     22 N          32.5217    3.0235   12.2230 N.2       1 ALA2        0.0000 
     23 CA         35.0236    9.5706    9.1611 C.3       3 GLY6        0.0000 
     24 N          35.3951   10.1881    7.8455 N.2       1 ALA2        0.0000 
     25 CA         33.5276    7.2562   11.0730 C.3       3 GLY6        0.0000 
     26 CA         33.8992    7.8736    9.7574 C.3       3 GLY6        0.0000 
     27 N          34.2707    8.4910    8.4418 N.2       1 ALA2        0.0000 
     28 CA         34.6422    9.1084    7.1262 C.3       3 GLY6        0.0000 
     29 CA         35.0137    9.7258    5.8106 C.3       3 GLY6        0.0000 
     30 N          32.0317    4.9417   12.9848 N.2       1 ALA2        0.0000 
     31 N          32.4032    5.5591   11.6692 N.2       1 ALA2        0.0000 
     32 CA         32.7747    6.1765   10.3537 C.3       3 GLY6        0.0000 
     33 DU         33.1462    6.7940    9.0381 H         4 CUB7        0.0000 
     34 DU         33.5177    7.4114    7.7225 H         4 CUB7        0.0000 
     35 CA         33.8892    8.0288    6.4069 C.3       3 GLY6        0.0000 
     36 CA         34.2607    8.6462    5.0913 C.3       3 GLY6        0.0000 
     37 NZ         34.6322    9.2636    3.7757 N.2       2 LYS4        0.0000 
     38 CA         32.3932    5.7143    8.3188 C.3       3 GLY6        0.0000 
     39 DU         32.7647    6.3317    7.0032 H         4 CUB7        0.0000 
     40 CA         32.0117    5.2521    6.2839 C.3       3 GLY6        0.0000 
     41 N          31.1702    6.2425   15.0623 N.2       1 ALA2        0.0000 
     42 O          31.5417    6.8599   13.7467 O.2       1 ALA2        0.0000 
     43 N          33.0277    9.3296    8.4843 N.2       1 ALA2        0.0000 
     44 CA         33.3992    9.9470    7.1687 C.3       3 GLY6        0.0000 
     45 N          30.4172    5.1629   14.3430 N.2       1 ALA2        0.0000 
     46 N          30.7887    5.7803   13.0274 N.2       1 ALA2        0.0000 
     47 CA         31.1602    6.3977   11.7118 C.3       3 GLY6        0.0000 
     48 CA         31.5317    7.0151   10.3962 C.3       3 GLY6        0.0000 
     49 N          31.9032    7.6325    9.0806 N.2       1 ALA2        0.0000 
     50 N          32.2747    8.2499    7.7650 N.2       1 ALA2        0.0000 
     51 CA         31.1502    6.5529    8.3613 C.3       3 GLY6        0.0000 
     52 N          31.5217    7.1703    7.0457 N.2       1 ALA2        0.0000 
     53 CA         31.8932    7.7877    5.7301 C.3       3 GLY6        0.0000 
     54 CA         30.7687    6.0906    6.3264 C.3       3 GLY6        0.0000 
     55 N          29.9272    7.0811   15.1048 N.2       1 ALA2        0.0000 
     56 N          30.2987    7.6985   13.7892 N.2       1 ALA2        0.0000 
     57 CA         30.6702    8.3159   12.4736 C.3       3 GLY6        0.0000 
     58 N          29.1742    6.0014   14.3855 N.2       1 ALA2        0.0000 
     59 CA         29.5457    6.6188   13.0699 C.3       3 GLY6        0.0000 
     60 O          29.9172    7.2362   11.7543 O.2       1 ALA2        0.0000 
@<TRIPOS>BOND
@<TRIPOS>SUBSTRUCTURE
     1 ALA2        4 GROUP   
     2 LYS4       37 GROUP   
     3 GLY6        1 GROUP   
     4 CUB7       13 GROUP   
@<TRIPOS>SET

