#    Name: 2zzu_359_1_INTS_M
#    Modification time : Tue Mar 25 11:25:19 2014

@<TRIPOS>MOLECULE
2zzu_359_1_INTS_M
   94     0     9     0     0
SMALL
NO_CHARGES


@<TRIPOS>ATOM
      1 N          34.3435    7.6395   12.5380 N.am      2 SEC2        0.0000 
      2 N          34.6730    7.2320   11.0260 N.am      8 SEL2        0.0000 
      3 N          34.0140    8.0470   14.0500 N.am      5 SEP2        0.0000 
      4 CA         34.4545    9.1235   10.2920 C.3       3 GLC5        0.0000 
      5 CA         34.5450    8.1630    8.4640 C.3       9 GLL5        0.0000 
      6 CA         34.3640   10.0840   12.1200 C.3       6 GLP5        0.0000 
      7 CA         32.9970    9.3960    6.2755 C.3       3 GLC5        0.0000 
      8 CA         34.6340    8.5000    6.9820 C.3       9 GLL5        0.0000 
      9 CA         31.3600   10.2920    5.5690 C.3       6 GLP5        0.0000 
     10 O          31.9915    9.4765    9.8735 O.2       1 ALC1        0.0000 
     11 O          32.3000    8.2480    9.2370 O.2       7 ALL1        0.0000 
     12 O          31.6830   10.7050   10.5100 O.2       4 ALP1        0.0000 
     13 CA         30.9310    5.1295   10.4770 C.3       3 GLC5        0.0000 
     14 CA         31.6110    6.4550   11.6610 C.3       9 GLL5        0.0000 
     15 CA         30.2510    3.8040    9.2930 C.3       6 GLP5        0.0000 
     16 CA         30.3025    4.3075   13.2630 C.3       3 GLC5        0.0000 
     17 CA         31.3500    6.1970   13.0110 C.3       9 GLL5        0.0000 
     18 CA         29.2550    2.4180   13.5150 C.3       6 GLP5        0.0000 
     19 CA         28.4995    5.7030   14.1160 C.3       3 GLC5        0.0000 
     20 CA         30.0800    6.6260   15.1230 C.3       9 GLL5        0.0000 
     21 CA         26.9190    4.7800   13.1090 C.3       6 GLP5        0.0000 
     22 CA         30.5920    7.7630   16.9440 C.3       3 GLC5        0.0000 
     23 CA         31.1040    8.9000   18.7650 C.3       6 GLP5        0.0000 
     24 O          30.1910    5.4030   16.9660 O.2       1 ALC1        0.0000 
     25 O          30.7350    5.6690   15.7560 O.2       7 ALL1        0.0000 
     26 O          29.6470    5.1370   18.1760 O.2       4 ALP1        0.0000 
     27 O          31.4695    4.5290   15.3515 O.2       1 ALC1        0.0000 
     28 O          32.2040    3.3890   14.9470 O.2       4 ALP1        0.0000 
     29 O          35.6970   11.0600    3.4860 O.2       1 ALC1        0.0000 
     30 O          36.0600   11.0330    4.9540 O.2       7 ALL1        0.0000 
     31 O          35.3340   11.0870    2.0180 O.2       4 ALP1        0.0000 
     32 O          36.5735   11.9110    5.8700 O.2       1 ALC1        0.0000 
     33 O          37.0870   12.7890    6.7860 O.2       4 ALP1        0.0000 
     34 CA         39.2440    8.2130   11.8260 C.3       3 GLC5        0.0000 
     35 CA         37.7500    6.9510   11.6390 C.3       9 GLL5        0.0000 
     36 CA         40.7380    9.4750   12.0130 C.3       6 GLP5        0.0000 
     37 CA         37.3050    8.2385   12.9350 C.3       3 GLC5        0.0000 
     38 CA         36.8600    9.5260   14.2310 C.3       6 GLP5        0.0000 
     39 O          35.6525    5.2970   12.7560 O.2       1 ALC1        0.0000 
     40 O          36.3240    5.0420   11.6560 O.2       7 ALL1        0.0000 
     41 O          34.9810    5.5520   13.8560 O.2       4 ALP1        0.0000 
     42 N          35.0885    2.6555   13.3200 N.am      2 SEC2        0.0000 
     43 N          35.4220    2.7870   11.9800 N.am      8 SEL2        0.0000 
     44 N          34.7550    2.5240   14.6600 N.am      5 SEP2        0.0000 
     45 CA         37.2005    3.2275   14.1385 C.3       3 GLC5        0.0000 
     46 CA         38.2570    2.3730   12.3580 C.3       9 GLL5        0.0000 
     47 CA         36.1440    4.0820   15.9190 C.3       6 GLP5        0.0000 
     48 O          28.7730    7.1030   17.1920 O.2       1 ALC1        0.0000 
     49 O          29.2460    7.3820   15.8280 O.2       7 ALL1        0.0000 
     50 O          28.3000    6.8240   18.5560 O.2       4 ALP1        0.0000 
     51 O          29.4465    6.2595   17.0020 O.2       1 ALC1        0.0000 
     52 CA         42.2365    6.0180   13.5255 C.3       3 GLC5        0.0000 
     53 CA         41.0740    5.2210   12.1740 C.3       9 GLL5        0.0000 
     54 CA         43.3990    6.8150   14.8770 C.3       6 GLP5        0.0000 
     55 O          40.1105    4.4955   14.7895 O.2       1 ALC1        0.0000 
     56 O          40.4840    5.1150   13.4220 O.2       7 ALL1        0.0000 
     57 O          39.7370    3.8760   16.1570 O.2       4 ALP1        0.0000 
     58 CA         37.6850    4.8865   14.6595 C.3       3 GLC5        0.0000 
     59 CA         39.2260    5.6910   13.4000 C.3       9 GLL5        0.0000 
     60 CA         43.1505    8.6670   11.2065 C.3       3 GLC5        0.0000 
     61 CA         44.6740    8.8090    9.6350 C.3       9 GLL5        0.0000 
     62 CA         41.6270    8.5250   12.7780 C.3       6 GLP5        0.0000 
     63 N          39.9070   12.5790   10.2205 N.am      2 SEC2        0.0000 
     64 N          40.8300   11.8470    9.3260 N.am      8 SEL2        0.0000 
     65 N          38.9840   13.3110   11.1150 N.am      5 SEP2        0.0000 
     66 CA         29.5050    6.3417    9.8697 C.3       3 GLC5        0.0000 
     67 CA         31.0230    7.6640    9.5170 C.3       9 GLL5        0.0000 
     68 CA         28.1090    5.1810    9.5010 C.3       6 GLP5        0.0000 
     69 CA         32.2268    8.0225   12.5010 C.3       3 GLC5        0.0000 
     70 CA         32.9730    9.7190   12.6660 C.3       6 GLP5        0.0000 
     71 CA         31.4210    8.4913   12.9965 C.3       3 GLC5        0.0000 
     72 CA         29.4510    7.6940   12.9690 C.3       9 GLL5        0.0000 
     73 CA         28.8413    6.5008   10.8970 C.3       3 GLC5        0.0000 
     74 CA         28.1103    8.9917   12.5165 C.3       3 GLC5        0.0000 
     75 CA         29.6960    7.9470   11.6170 C.3       9 GLL5        0.0000 
     76 CA         26.6470   10.1630   12.7400 C.3       6 GLP5        0.0000 
     77 CA         28.3508    6.1926   12.7905 C.3       3 GLC5        0.0000 
     78 CA         31.6357    8.7219   11.7969 C.3       3 GLC5        0.0000 
     79 CA         32.3571    6.9453   14.7557 C.3       3 GLC5        0.0000 
     80 CA         34.2650    7.3200   15.2760 C.3       6 GLP5        0.0000 
     81 CA         43.3522    6.3715   12.3900 C.3       3 GLC5        0.0000 
     82 CA         42.3470    4.9620   11.6550 C.3       9 GLL5        0.0000 
     83 CA         44.1600    7.5710   13.7890 C.3       6 GLP5        0.0000 
     84 CA         42.0858    6.8485   11.8845 C.3       3 GLC5        0.0000 
     85 CA         41.3768    7.3533   11.2845 C.3       3 GLC5        0.0000 
     86 CA         40.4700    6.2840   10.0630 C.3       9 GLL5        0.0000 
     87 CA         43.3595   10.6822   11.8090 C.3       3 GLC5        0.0000 
     88 CA         45.0120    9.9930   10.3140 C.3       9 GLL5        0.0000 
     89 CA         42.1330   10.8190   13.3400 C.3       6 GLP5        0.0000 
     90 CA         44.5015    8.4860   11.8818 C.3       3 GLC5        0.0000 
     91 CA         41.8888    9.8105   10.5799 C.3       3 GLC5        0.0000 
     92 CA         42.9870   11.0200    9.4760 C.3       9 GLL5        0.0000 
     93 CA         40.7345    7.1356   12.5192 C.3       3 GLC5        0.0000 
     94 CA         38.9540    6.1810   12.1190 C.3       9 GLL5        0.0000 
@<TRIPOS>BOND
@<TRIPOS>SUBSTRUCTURE
     1 ALC1       10 GROUP        1 X    ALC  0     ROOT ALC X 1
     2 SEC2        1 GROUP        1 X    SEC  0     **** SEC X 2
     3 GLC5        4 GROUP        1 X    GLC  0     **** GLC X 6
     4 ALP1       12 GROUP        1 Y    ALP  0     ROOT ALP Y 8
     5 SEP2        3 GROUP        1 Y    SEP  0     **** SEP Y 9
     6 GLP5        6 GROUP        1 Y    GLP  0     **** GLP Y 13
     7 ALL1       11 GROUP        1 Z    ALL  0     ROOT ALL Z 15
     8 SEL2        2 GROUP        1 Z    SEL  0     **** SEL Z 16
     9 GLL5        5 GROUP        1 Z    GLL  0     **** GLL Z 20
@<TRIPOS>SET

