#    Name: 2zzu_359_1_ligand
#    Modification time : Tue Mar 25 11:25:19 2014

@<TRIPOS>MOLECULE
2zzu_359_1_ligand
   89    92     1     0     0
SMALL
NO_CHARGES


@<TRIPOS>ATOM
      1 C14        35.6070    6.9670   10.2740 C.2       1 3591        0.0000 
      2 O1         34.6730    7.2320   11.0260 O.2       1 3591        0.0000 
      3 N5         35.6660    7.3770    8.9700 N.am      1 3591        0.0000 
      4 C15        34.5450    8.1630    8.4640 C.3       1 3591        0.0000 
      5 C18        34.6340    8.5000    6.9820 C.3       1 3591        0.0000 
      6 C19        35.9580    9.2630    6.6040 C.3       1 3591        0.0000 
      7 C20        33.2690    7.4270    8.7640 C.2       1 3591        0.0000 
      8 O5         33.1880    6.2170    8.5900 O.2       1 3591        0.0000 
      9 N6         32.3000    8.2480    9.2370 N.am      1 3591        0.0000 
     10 C21        31.0230    7.6640    9.5170 C.3       1 3591        0.0000 
     11 C16        31.6110    6.4550   11.6610 C.ar      1 3591        0.0000 
     12 C17        31.3500    6.1970   13.0110 C.ar      1 3591        0.0000 
     13 C22        30.2870    6.8330   13.6850 C.ar      1 3591        0.0000 
     14 C23        29.4510    7.6940   12.9690 C.ar      1 3591        0.0000 
     15 C24        29.6960    7.9470   11.6170 C.ar      1 3591        0.0000 
     16 C25        30.7790    7.3410   10.9600 C.ar      1 3591        0.0000 
     17 C26        30.0800    6.6260   15.1230 C.2       1 3591        0.0000 
     18 N1         30.7350    5.6690   15.7560 N.pl3     1 3591        0.0000 
     19 C2         35.9300    9.7200    5.1650 C.2       1 3591        0.0000 
     20 O2         35.7300    8.9300    4.2700 O.2       1 3591        0.0000 
     21 N3         36.0600   11.0330    4.9540 N.am      1 3591        0.0000 
     22 C1         37.7500    6.9510   11.6390 C.3       1 3591        0.0000 
     23 N4         36.3240    5.0420   11.6560 N.pl3     1 3591        0.0000 
     24 C5         36.8040    6.1100   10.7990 C.3       1 3591        0.0000 
     25 S1         36.2080    3.4640   11.0080 S.o2      1 3591        0.0000 
     26 O4         35.7290    3.6980    9.6870 O.2       1 3591        0.0000 
     27 O3         35.4220    2.7870   11.9800 O.2       1 3591        0.0000 
     28 C9         37.8360    2.8160   10.9480 C.3       1 3591        0.0000 
     29 C8         38.2570    2.3730   12.3580 C.3       1 3591        0.0000 
     30 N2         29.2460    7.3820   15.8280 N.pl3     1 3591        0.0000 
     31 C13        42.7420    5.3820   10.3270 C.ar      1 3591        0.0000 
     32 C12        42.3470    4.9620   11.6550 C.ar      1 3591        0.0000 
     33 C3         41.0740    5.2210   12.1740 C.ar      1 3591        0.0000 
     34 C4         40.1140    5.8920   11.3490 C.ar      1 3591        0.0000 
     35 C27        40.4700    6.2840   10.0630 C.ar      1 3591        0.0000 
     36 C6         41.7830    6.0790    9.5190 C.ar      1 3591        0.0000 
     37 N7         40.4840    5.1150   13.4220 N.pl3     1 3591        0.0000 
     38 C29        39.2260    5.6910   13.4000 C.2       1 3591        0.0000 
     39 C28        38.9540    6.1810   12.1190 C.2       1 3591        0.0000 
     40 O6         41.9960    6.7080    8.2810 O.3       1 3591        0.0000 
     41 C7         43.2180    7.4380    8.0820 C.3       1 3591        0.0000 
     42 C11        44.1600   11.0980   10.2420 C.ar      1 3591        0.0000 
     43 C10        45.0120    9.9930   10.3140 C.ar      1 3591        0.0000 
     44 C31        44.6740    8.8090    9.6350 C.ar      1 3591        0.0000 
     45 C32        43.5050    8.7070    8.8600 C.ar      1 3591        0.0000 
     46 C30        42.6790    9.8370    8.7750 C.ar      1 3591        0.0000 
     47 C33        42.9870   11.0200    9.4760 C.ar      1 3591        0.0000 
     48 C34        42.0410   12.1240    9.4580 C.2       1 3591        0.0000 
     49 O8         42.4610   13.2920    9.6010 O.co2     1 3591        0.0000 
     50 O7         40.8300   11.8470    9.3260 O.co2     1 3591        0.0000 
     51 H          36.4279    7.1688    8.3530 H         1 3591        0.0000 
     52 H          34.4975    9.1179    9.0200 H         1 3591        0.0000 
     53 H          33.7889    9.1309    6.6921 H         1 3591        0.0000 
     54 H          34.5946    7.5822    6.3884 H         1 3591        0.0000 
     55 H          36.7918    8.5857    6.7703 H         1 3591        0.0000 
     56 H          36.0526   10.1164    7.2708 H         1 3591        0.0000 
     57 H          32.4365    9.2349    9.3976 H         1 3591        0.0000 
     58 H          30.8829    6.7229    8.9250 H         1 3591        0.0000 
     59 H          30.1979    8.3386    9.1709 H         1 3591        0.0000 
     60 H          32.3956    6.0057   11.1907 H         1 3591        0.0000 
     61 H          31.9440    5.5292   13.5279 H         1 3591        0.0000 
     62 H          28.6544    8.1419   13.4380 H         1 3591        0.0000 
     63 H          29.0782    8.5836   11.0945 H         1 3591        0.0000 
     64 H          31.3270    5.0935   15.1918 H         1 3591        0.0000 
     65 H          30.5793    5.6070   16.7419 H         1 3591        0.0000 
     66 H          36.0061   11.3331    4.0016 H         1 3591        0.0000 
     67 H          36.1995   11.5977    5.7674 H         1 3591        0.0000 
     68 H          37.2001    7.3472   12.5070 H         1 3591        0.0000 
     69 H          38.0830    7.8156   11.0437 H         1 3591        0.0000 
     70 H          36.0514    5.1022   12.5746 H         1 3591        0.0000 
     71 H          37.3369    5.7190    9.9611 H         1 3591        0.0000 
     72 H          38.4206    3.6212   10.5811 H         1 3591        0.0000 
     73 H          37.7656    2.0046   10.2687 H         1 3591        0.0000 
     74 H          29.1426    7.1411   16.7930 H         1 3591        0.0000 
     75 H          28.7968    8.1238   15.3301 H         1 3591        0.0000 
     76 H          43.6618    5.1883    9.9868 H         1 3591        0.0000 
     77 H          43.0454    4.4538   12.2242 H         1 3591        0.0000 
     78 H          39.7654    6.7490    9.4519 H         1 3591        0.0000 
     79 H          40.8891    4.7018   14.1908 H         1 3591        0.0000 
     80 H          38.6264    5.7493   14.1449 H         1 3591        0.0000 
     81 H          43.3356    7.6987    6.9722 H         1 3591        0.0000 
     82 H          44.1141    6.7424    8.2448 H         1 3591        0.0000 
     83 H          44.3875   11.9593   10.7434 H         1 3591        0.0000 
     84 H          45.8771   10.0410   10.8561 H         1 3591        0.0000 
     85 H          45.3033    7.9894    9.7076 H         1 3591        0.0000 
     86 H          41.8302    9.8047    8.1897 H         1 3591        0.0000 
     87 H          39.1844    1.9990   12.3684 H         1 3591        0.0000 
     88 H          38.2405    3.1338   13.0067 H         1 3591        0.0000 
     89 H          37.6514    1.6650   12.7212 H         1 3591        0.0000 
@<TRIPOS>BOND
     1    2    1 2    
     2    3    1 am   
     3   24    1 1    
     4    4    3 1    
     5   51    3 1    
     6    5    4 1    
     7    7    4 1    
     8   52    4 1    
     9    6    5 1    
    10   53    5 1    
    11   54    5 1    
    12   19    6 1    
    13   55    6 1    
    14   56    6 1    
    15    8    7 2    
    16    9    7 am   
    17   10    9 1    
    18   57    9 1    
    19   16   10 1    
    20   58   10 1    
    21   59   10 1    
    22   12   11 ar   
    23   16   11 ar   
    24   60   11 1    
    25   13   12 ar   
    26   61   12 1    
    27   14   13 ar   
    28   17   13 1    
    29   15   14 ar   
    30   62   14 1    
    31   16   15 ar   
    32   63   15 1    
    33   18   17 2    
    34   30   17 1    
    35   64   18 1    
    36   65   18 1    
    37   20   19 2    
    38   21   19 am   
    39   66   21 1    
    40   67   21 1    
    41   24   22 1    
    42   39   22 1    
    43   68   22 1    
    44   69   22 1    
    45   24   23 1    
    46   25   23 1    
    47   70   23 1    
    48   71   24 1    
    49   26   25 2    
    50   27   25 2    
    51   28   25 1    
    52   29   28 1    
    53   72   28 1    
    54   73   28 1    
    55   87   29 1    
    56   88   29 1    
    57   89   29 1    
    58   74   30 1    
    59   75   30 1    
    60   32   31 ar   
    61   36   31 ar   
    62   76   31 1    
    63   33   32 ar   
    64   77   32 1    
    65   34   33 ar   
    66   37   33 1    
    67   35   34 ar   
    68   39   34 1    
    69   36   35 ar   
    70   78   35 1    
    71   40   36 1    
    72   38   37 1    
    73   79   37 1    
    74   39   38 2    
    75   80   38 1    
    76   41   40 1    
    77   45   41 1    
    78   81   41 1    
    79   82   41 1    
    80   43   42 ar   
    81   47   42 ar   
    82   83   42 1    
    83   44   43 ar   
    84   84   43 1    
    85   45   44 ar   
    86   85   44 1    
    87   46   45 ar   
    88   47   46 ar   
    89   86   46 1    
    90   48   47 1    
    91   49   48 ar   
    92   50   48 ar   
@<TRIPOS>SUBSTRUCTURE
     1 3591        1 GROUP   
@<TRIPOS>SET

