#    Name: 1oe6_HMU_2_ligand
#    Modification time : Mon Mar 24 20:00:30 2014

@<TRIPOS>MOLECULE
1oe6_HMU_2_ligand
   16    16     1     0     0
SMALL
NO_CHARGES


@<TRIPOS>ATOM
      1 N1          4.5150   13.1010   44.8880 N.am      1 HMU1283     0.0000 
      2 C2          4.6530   11.8390   45.2830 C.2       1 HMU1283     0.0000 
      3 O2          3.6940   11.4090   45.9270 O.2       1 HMU1283     0.0000 
      4 N3          5.7930   11.0810   45.0000 N.am      1 HMU1283     0.0000 
      5 C4          6.8570   11.5910   44.2800 C.2       1 HMU1283     0.0000 
      6 O3          8.2890   13.3860   41.9020 O.3       1 HMU1283     0.0000 
      7 O4          7.8730   10.8370   44.0510 O.2       1 HMU1283     0.0000 
      8 C5          6.6880   13.0510   43.8150 C.2       1 HMU1283     0.0000 
      9 CM5         7.6820   13.9500   43.0530 C.3       1 HMU1283     0.0000 
     10 C6          5.4910   13.7040   44.1700 C.2       1 HMU1283     0.0000 
     11 H           3.6503   13.6406   45.1284 H         1 HMU1283     0.0000 
     12 H           5.8358   10.0972   45.3471 H         1 HMU1283     0.0000 
     13 H           7.1282   14.8962   42.8010 H         1 HMU1283     0.0000 
     14 H           8.4537   14.2793   43.8023 H         1 HMU1283     0.0000 
     15 H           5.3736   14.6987   43.8535 H         1 HMU1283     0.0000 
     16 H           9.2409   13.6905   41.9361 H         1 HMU1283     0.0000 
@<TRIPOS>BOND
     1    2    1 am   
     2   10    1 1    
     3   11    1 1    
     4    3    2 2    
     5    4    2 am   
     6    5    4 am   
     7   12    4 1    
     8    7    5 2    
     9    8    5 1    
    10    9    6 1    
    11   16    6 1    
    12    9    8 1    
    13   10    8 2    
    14   13    9 1    
    15   14    9 1    
    16   15   10 1    
@<TRIPOS>SUBSTRUCTURE
     1 HMU1283     1 GROUP   
@<TRIPOS>SET

