#    Name: 4gkh_0J9_9_INTS_M
#    Modification time : Mon Mar 24 22:20:50 2014

@<TRIPOS>MOLECULE
4gkh_0J9_9_INTS_M
   49     0     9     0     0
SMALL
NO_CHARGES


@<TRIPOS>ATOM
      1 N          74.5145   39.9015   12.7205 N.am      2 SEC2        0.0000 
      2 N          75.9550   39.7840   13.1280 N.am      8 SEL2        0.0000 
      3 N          73.0740   40.0190   12.3130 N.am      5 SEP2        0.0000 
      4 CA         75.2960   38.2265   15.3355 C.3       3 GLC5        0.0000 
      5 CA         76.2620   38.6360   13.8510 C.3       9 GLL5        0.0000 
      6 CA         74.3300   37.8170   16.8200 C.3       6 GLP5        0.0000 
      7 CA         74.9380   38.3520   12.4145 C.3       3 GLC5        0.0000 
      8 CA         73.6140   38.0680   10.9780 C.3       6 GLP5        0.0000 
      9 CA         76.5280   39.7625   15.2790 C.3       3 GLC5        0.0000 
     10 CA         76.7940   40.8890   16.7070 C.3       6 GLP5        0.0000 
     11 CA         75.2685   39.3175   11.8080 C.3       3 GLC5        0.0000 
     12 CA         76.9230   40.5670   12.6380 C.3       9 GLL5        0.0000 
     13 CA         76.8585   40.7280   14.6725 C.3       3 GLC5        0.0000 
     14 CA         81.8755   35.9675   12.2925 C.3       3 GLC5        0.0000 
     15 CA         80.3790   36.6380   13.5840 C.3       9 GLL5        0.0000 
     16 CA         83.3720   35.2970   11.0010 C.3       6 GLP5        0.0000 
     17 CA         79.4925   36.4170   12.0135 C.3       3 GLC5        0.0000 
     18 CA         78.6060   36.1960   10.4430 C.3       6 GLP5        0.0000 
     19 CA         81.4665   35.5110   15.0960 C.3       3 GLC5        0.0000 
     20 CA         82.5540   34.3840   16.6080 C.3       6 GLP5        0.0000 
     21 CA         83.5475   37.1390   13.8280 C.3       3 GLC5        0.0000 
     22 CA         82.1660   38.2800   14.0990 C.3       9 GLL5        0.0000 
     23 CA         84.9290   35.9980   13.5570 C.3       6 GLP5        0.0000 
     24 CA         81.4370   36.1640   16.1690 C.3       3 GLC5        0.0000 
     25 CA         80.3200   37.9440   15.7300 C.3       9 GLL5        0.0000 
     26 CA         79.1535   39.2945   16.6860 C.3       3 GLC5        0.0000 
     27 CA         77.9870   40.6450   17.6420 C.3       6 GLP5        0.0000 
     28 O          75.1515   42.1150   11.6615 O.2       1 ALC1        0.0000 
     29 O          76.5240   41.6410   11.9600 O.2       7 ALL1        0.0000 
     30 O          73.7790   42.5890   11.3630 O.2       4 ALP1        0.0000 
     31 CA         84.5400   43.4930    9.2515 C.3       3 GLC5        0.0000 
     32 CA         82.9790   41.9590    8.9700 C.3       9 GLL5        0.0000 
     33 CA         86.1010   45.0270    9.5330 C.3       6 GLP5        0.0000 
     34 CA         84.1785   39.3985    9.0350 C.3       3 GLC5        0.0000 
     35 CA         82.8010   40.8630    9.7990 C.3       9 GLL5        0.0000 
     36 CA         85.5560   37.9340    8.2710 C.3       6 GLP5        0.0000 
     37 CA         84.6175   40.0720   10.8405 C.3       3 GLC5        0.0000 
     38 CA         86.4340   39.2810   11.8820 C.3       6 GLP5        0.0000 
     39 CA         79.6625   41.9420   13.9405 C.3       3 GLC5        0.0000 
     40 CA         79.7750   41.9090   11.7580 C.3       9 GLL5        0.0000 
     41 CA         79.5500   41.9750   16.1230 C.3       6 GLP5        0.0000 
     42 CA         78.9705   40.8518   14.6415 C.3       3 GLC5        0.0000 
     43 CA         78.2400   40.2830   12.8130 C.3       9 GLL5        0.0000 
     44 CA         78.1342   44.2070   13.0455 C.3       3 GLC5        0.0000 
     45 CA         79.1130   44.1020   10.8580 C.3       9 GLL5        0.0000 
     46 CA         77.2580   44.8680   14.8300 C.3       6 GLP5        0.0000 
     47 CA         80.1836   45.2025   12.1130 C.3       3 GLC5        0.0000 
     48 CA         78.9080   42.9900   11.6640 C.3       9 GLL5        0.0000 
     49 CA         80.7750   46.5840   13.6080 C.3       6 GLP5        0.0000 
@<TRIPOS>BOND
@<TRIPOS>SUBSTRUCTURE
     1 ALC1       28 GROUP        1 X    ALC  0     ROOT ALC X 1
     2 SEC2        1 GROUP        1 X    SEC  0     **** SEC X 2
     3 GLC5        4 GROUP        1 X    GLC  0     **** GLC X 6
     4 ALP1       30 GROUP        1 Y    ALP  0     ROOT ALP Y 8
     5 SEP2        3 GROUP        1 Y    SEP  0     **** SEP Y 9
     6 GLP5        6 GROUP        1 Y    GLP  0     **** GLP Y 13
     7 ALL1       29 GROUP        1 Z    ALL  0     ROOT ALL Z 15
     8 SEL2        2 GROUP        1 Z    SEL  0     **** SEL Z 16
     9 GLL5        5 GROUP        1 Z    GLL  0     **** GLL Z 20
@<TRIPOS>SET

