#    Name: 4gkh_0J9_9_ligand
#    Modification time : Mon Mar 24 22:20:51 2014

@<TRIPOS>MOLECULE
4gkh_0J9_9_ligand
   43    46     1     0     0
SMALL
NO_CHARGES


@<TRIPOS>ATOM
      1 N1         75.9550   39.7840   13.1280 N.ar      1 0J9302      0.0000 
      2 C2         76.2620   38.6360   13.8510 C.ar      1 0J9302      0.0000 
      3 N3         77.6040   38.3520   14.0190 N.ar      1 0J9302      0.0000 
      4 C4         78.5420   39.1740   13.5070 C.ar      1 0J9302      0.0000 
      5 C5         78.2400   40.2830   12.8130 C.ar      1 0J9302      0.0000 
      6 C6         76.9230   40.5670   12.6380 C.ar      1 0J9302      0.0000 
      7 CAA        80.3790   36.6380   13.5840 C.3       1 0J9302      0.0000 
      8 CAB        82.1660   38.2800   14.0990 C.3       1 0J9302      0.0000 
      9 CAC        80.3200   37.9440   15.7300 C.3       1 0J9302      0.0000 
     10 NAD        76.5240   41.6410   11.9600 N.pl3     1 0J9302      0.0000 
     11 CAE        82.9790   41.9590    8.9700 C.ar      1 0J9302      0.0000 
     12 CAF        82.8010   40.8630    9.7990 C.ar      1 0J9302      0.0000 
     13 CAI        78.9080   42.9900   11.6640 C.ar      1 0J9302      0.0000 
     14 CAJ        82.0850   43.0190    9.0560 C.ar      1 0J9302      0.0000 
     15 CAK        80.1740   44.0960    9.9750 C.ar      1 0J9302      0.0000 
     16 CAL        81.7310   40.8440   10.6890 C.ar      1 0J9302      0.0000 
     17 NAO        80.3530   39.9480   12.9520 N.2       1 0J9302      0.0000 
     18 CAQ        79.7750   41.9090   11.7580 C.ar      1 0J9302      0.0000 
     19 CAR        79.4630   40.8430   12.5510 C.2       1 0J9302      0.0000 
     20 CAS        81.0210   42.9970    9.9540 C.ar      1 0J9302      0.0000 
     21 CAT        80.8190   41.8970   10.7990 C.ar      1 0J9302      0.0000 
     22 NAW        79.8710   39.0670   13.5740 N.pl3     1 0J9302      0.0000 
     23 CAX        80.6670   37.9960   14.2380 C.3       1 0J9302      0.0000 
     24 CAG        79.1130   44.1020   10.8580 C.ar      1 0J9302      0.0000 
     25 H          75.5412   38.0458   14.2302 H         1 0J9302      0.0000 
     26 H          75.5360   41.7866   11.9080 H         1 0J9302      0.0000 
     27 H          77.2482   42.2054   11.5638 H         1 0J9302      0.0000 
     28 H          83.7548   41.9887    8.3056 H         1 0J9302      0.0000 
     29 H          83.4507   40.0710    9.7593 H         1 0J9302      0.0000 
     30 H          78.0231   42.9641   12.2519 H         1 0J9302      0.0000 
     31 H          82.2114   43.8437    8.4397 H         1 0J9302      0.0000 
     32 H          80.3358   44.8857    9.3462 H         1 0J9302      0.0000 
     33 H          81.6020   40.0062   11.3031 H         1 0J9302      0.0000 
     34 H          78.4880   44.9079   10.9202 H         1 0J9302      0.0000 
     35 H          80.6220   36.6339   12.6140 H         1 0J9302      0.0000 
     36 H          80.8949   35.8997   14.0185 H         1 0J9302      0.0000 
     37 H          79.4110   36.3944   13.6447 H         1 0J9302      0.0000 
     38 H          82.7201   37.5781   14.5466 H         1 0J9302      0.0000 
     39 H          82.4508   38.3114   13.1409 H         1 0J9302      0.0000 
     40 H          82.4174   39.1570   14.5084 H         1 0J9302      0.0000 
     41 H          80.8524   37.2475   16.2111 H         1 0J9302      0.0000 
     42 H          80.5008   38.8165   16.1840 H         1 0J9302      0.0000 
     43 H          79.3546   37.7302   15.8796 H         1 0J9302      0.0000 
@<TRIPOS>BOND
     1    2    1 ar   
     2    6    1 ar   
     3    3    2 ar   
     4   25    2 1    
     5    4    3 ar   
     6    5    4 ar   
     7   22    4 1    
     8    6    5 ar   
     9   19    5 1    
    10   10    6 1    
    11   23    7 1    
    12   35    7 1    
    13   36    7 1    
    14   37    7 1    
    15   23    8 1    
    16   38    8 1    
    17   39    8 1    
    18   40    8 1    
    19   23    9 1    
    20   41    9 1    
    21   42    9 1    
    22   43    9 1    
    23   26   10 1    
    24   27   10 1    
    25   12   11 ar   
    26   14   11 ar   
    27   28   11 1    
    28   16   12 ar   
    29   29   12 1    
    30   18   13 ar   
    31   24   13 ar   
    32   30   13 1    
    33   20   14 ar   
    34   31   14 1    
    35   20   15 ar   
    36   24   15 ar   
    37   32   15 1    
    38   21   16 ar   
    39   33   16 1    
    40   19   17 2    
    41   22   17 1    
    42   19   18 1    
    43   21   18 ar   
    44   21   20 ar   
    45   23   22 1    
    46   34   24 1    
@<TRIPOS>SUBSTRUCTURE
     1 0J9302      1 GROUP   
@<TRIPOS>SET

