#    Name: 3nx4_NAP_2_INTS_M
#    Modification time : Tue Mar 25 02:53:22 2014

@<TRIPOS>MOLECULE
3nx4_NAP_2_INTS_M
   86     0    12     0     0
SMALL
NO_CHARGES


@<TRIPOS>ATOM
      1 N           4.2050   15.3945   27.4180 N.am      2 SEC2        0.0000 
      2 N           4.1920   14.2150   26.6060 N.am     10 SEL2        0.0000 
      3 N           4.2180   16.5740   28.2300 N.am      6 SEP2        0.0000 
      4 CA          3.0675   17.8770   22.1020 C.3       4 GLC5        0.0000 
      5 CA          3.2210   16.1270   22.7420 C.3      12 GLL5        0.0000 
      6 CA          2.9140   19.6270   21.4620 C.3       8 GLP5        0.0000 
      7 CA          4.2865   15.3580   20.0585 C.3       4 GLC5        0.0000 
      8 CA          2.3090   16.0440   20.6430 C.3      12 GLL5        0.0000 
      9 CA          6.2640   14.6720   19.4740 C.3       8 GLP5        0.0000 
     10 CA          4.4565   14.3105   15.5605 C.3       4 GLC5        0.0000 
     11 CA          2.6350   14.0140   16.2020 C.3      12 GLL5        0.0000 
     12 CA          6.2780   14.6070   14.9190 C.3       8 GLP5        0.0000 
     13 CA          1.0265   16.9695   15.5585 C.3       4 GLC5        0.0000 
     14 CA          2.3940   16.3920   16.1520 C.3      12 GLL5        0.0000 
     15 CA         -0.3410   17.5470   14.9650 C.3       8 GLP5        0.0000 
     16 CA          4.0180   17.2920   15.9815 C.3       4 GLC5        0.0000 
     17 CA          5.6420   18.1920   15.8110 C.3       8 GLP5        0.0000 
     18 CA          4.3360   15.4995   15.5355 C.3       4 GLC5        0.0000 
     19 N           8.2780   12.3560   27.3830 N.am      2 SEC2        0.0000 
     20 N           7.9180   13.9900   27.2260 N.am     10 SEL2        0.0000 
     21 N           8.6380   10.7220   27.5400 N.am      6 SEP2        0.0000 
     22 N           6.6430   17.1985   27.3680 N.am      2 SEC2        0.0000 
     23 N           6.6360   16.1410   26.4610 N.am     10 SEL2        0.0000 
     24 N           6.6500   18.2560   28.2750 N.am      6 SEP2        0.0000 
     25 CA          8.7630   17.0455   25.5145 C.3       4 GLC5        0.0000 
     26 CA          8.1720   15.8760   23.9470 C.3      12 GLL5        0.0000 
     27 CA          9.3540   18.2150   27.0820 C.3       8 GLP5        0.0000 
     28 CA          9.2695   12.3625   22.7570 C.3       4 GLC5        0.0000 
     29 CA          9.5690   14.2370   22.6680 C.3      12 GLL5        0.0000 
     30 CA          8.9700   10.4880   22.8460 C.3       8 GLP5        0.0000 
     31 N          10.4705   14.9020   20.1180 N.am      2 SEC2        0.0000 
     32 N           9.9930   14.0660   21.3350 N.am     10 SEL2        0.0000 
     33 N          10.9480   15.7380   18.9010 N.am      6 SEP2        0.0000 
     34 CA          9.5400   12.5900   24.3705 C.3       4 GLC5        0.0000 
     35 CA         10.7370   13.9430   23.5800 C.3      12 GLL5        0.0000 
     36 CA          8.3430   11.2370   25.1610 C.3       8 GLP5        0.0000 
     37 CA         11.6165   16.3285   21.9630 C.3       4 GLC5        0.0000 
     38 CA         11.4850   15.2600   23.4720 C.3      12 GLL5        0.0000 
     39 CA         11.7480   17.3970   20.4540 C.3       8 GLP5        0.0000 
     40 O          16.9615   16.1970   27.1115 O.2       1 ALC1        0.0000 
     41 O          16.9510   16.2990   25.8260 O.2       9 ALL1        0.0000 
     42 O          16.9720   16.0950   28.3970 O.2       5 ALP1        0.0000 
     43 CA         15.6735   16.7380   27.7870 C.3       4 GLC5        0.0000 
     44 CA         14.0760   16.0670   26.7210 C.3      12 GLL5        0.0000 
     45 CA         17.2710   17.4090   28.8530 C.3       8 GLP5        0.0000 
     46 CA         13.0295   17.6800   27.6985 C.3       4 GLC5        0.0000 
     47 CA         12.7240   15.8160   26.9580 C.3      12 GLL5        0.0000 
     48 CA         13.3350   19.5440   28.4390 C.3       8 GLP5        0.0000 
     49 N          -1.4950   17.9275   23.4630 N.am      2 SEC2        0.0000 
     50 N          -1.4150   18.4180   22.1770 N.am     10 SEL2        0.0000 
     51 N          -1.5750   17.4370   24.7490 N.am      6 SEP2        0.0000 
     52 N          -2.5660   19.0230   21.8845 N.am      2 SEC2        0.0000 
     53 N          -3.7170   19.6280   21.5920 N.am      6 SEP2        0.0000 
     54 NZ         -0.8480   16.6210   18.9945 N.4       3 LYC4        0.0000 
     55 NZ         -0.7850   17.6190   19.9590 N.4      11 LYL4        0.0000 
     56 NZ         -0.6650   15.8900   16.7570 N.4       7 LYP4        0.0000 
     57 N          -1.8065   18.2250   19.3435 N.am      2 SEC2        0.0000 
     58 N          -0.7850   17.6190   19.9590 N.am     10 SEL2        0.0000 
     59 N          -2.8280   18.8310   18.7280 N.am      6 SEP2        0.0000 
     60 N          -0.8480   16.6210   18.9945 N.am      2 SEC2        0.0000 
     61 N          -0.9110   15.6230   18.0300 N.am      6 SEP2        0.0000 
     62 NZ         -2.7860   15.3245   22.3015 N.4       3 LYC4        0.0000 
     63 NZ         -1.7670   16.0170   21.5640 N.4      11 LYL4        0.0000 
     64 NZ         -3.4620   14.1990   24.2450 N.4       7 LYP4        0.0000 
     65 N          -1.6710   16.7270   23.1565 N.am      2 SEC2        0.0000 
     66 N          -1.7670   16.0170   21.5640 N.am     10 SEL2        0.0000 
     67 N          -2.7860   15.3245   22.3015 N.am      2 SEC2        0.0000 
     68 N          -3.8050   14.6320   23.0390 N.am      6 SEP2        0.0000 
     69 N          -1.6555   14.4900   21.1805 N.am      2 SEC2        0.0000 
     70 N          -1.5440   12.9630   20.7970 N.am      6 SEP2        0.0000 
     71 CA          2.6706   16.2726   24.8169 C.3       4 GLC5        0.0000 
     72 CA          2.4480   16.9780   26.6260 C.3       8 GLP5        0.0000 
     73 CA          2.3363   17.7455   21.3005 C.3       4 GLC5        0.0000 
     74 CA          1.2080   15.6840   21.6350 C.3      12 GLL5        0.0000 
     75 CA          4.3905   14.6672   18.6962 C.3       4 GLC5        0.0000 
     76 CA          2.4440   15.2730   18.2420 C.3      12 GLL5        0.0000 
     77 CA          8.1698   17.5710   22.7852 C.3       4 GLC5        0.0000 
     78 CA          9.2810   15.7120   22.9120 C.3      12 GLL5        0.0000 
     79 CA          7.6130   19.3480   22.1410 C.3       8 GLP5        0.0000 
     80 CA         10.5865   16.1857   21.6220 C.3       4 GLC5        0.0000 
     81 CA         13.9168   17.9985   26.5162 C.3       4 GLC5        0.0000 
     82 CA         14.5570   16.0430   25.4140 C.3      12 GLL5        0.0000 
     83 CA         13.5170   19.9420   26.9650 C.3       8 GLP5        0.0000 
     84 CA         13.6660   15.3868   28.4387 C.3       4 GLC5        0.0000 
     85 CA         13.9320   14.8320   30.0380 C.3       8 GLP5        0.0000 
     86 CA         10.8255   16.9498   26.7533 C.3       4 GLC5        0.0000 
@<TRIPOS>BOND
@<TRIPOS>SUBSTRUCTURE
     1 ALC1       40 GROUP        1 X    ALC  0     ROOT ALC X 1
     2 SEC2        1 GROUP        1 X    SEC  0     **** SEC X 2
     3 LYC4       54 GROUP        1 X    LYC  0     **** LYC X 4
     4 GLC5        4 GROUP        1 X    GLC  0     **** GLC X 6
     5 ALP1       42 GROUP        1 Y    ALP  0     ROOT ALP Y 8
     6 SEP2        3 GROUP        1 Y    SEP  0     **** SEP Y 9
     7 LYP4       56 GROUP        1 Y    LYP  0     **** LYP Y 11
     8 GLP5        6 GROUP        1 Y    GLP  0     **** GLP Y 13
     9 ALL1       41 GROUP        1 Z    ALL  0     ROOT ALL Z 15
    10 SEL2        2 GROUP        1 Z    SEL  0     **** SEL Z 16
    11 LYL4       55 GROUP        1 Z    LYL  0     **** LYL Z 18
    12 GLL5        5 GROUP        1 Z    GLL  0     **** GLL Z 20
@<TRIPOS>SET

