#    Name: 3nx4_NAP_2_ligand
#    Modification time : Tue Mar 25 02:53:22 2014

@<TRIPOS>MOLECULE
3nx4_NAP_2_ligand
   73    77     1     0     0
SMALL
NO_CHARGES


@<TRIPOS>ATOM
      1 PA          4.7540   13.7110   25.3330 P.3       1 NAP330      0.0000 
      2 O1A         4.1920   14.2150   26.6060 O.co2     1 NAP330      0.0000 
      3 O2A         4.5770   12.2630   25.1460 O.co2     1 NAP330      0.0000 
      4 O5B         4.0500   14.3870   24.0680 O.3       1 NAP330      0.0000 
      5 C5B         4.3940   15.6440   23.5850 C.3       1 NAP330      0.0000 
      6 C4B         3.2210   16.1270   22.7420 C.3       1 NAP330      0.0000 
      7 O4B         3.5260   16.1400   21.3610 O.3       1 NAP330      0.0000 
      8 C3B         1.9790   15.2490   22.8520 C.3       1 NAP330      0.0000 
      9 O3B         1.2620   15.5540   24.0220 O.3       1 NAP330      0.0000 
     10 C2B         1.2080   15.6840   21.6350 C.3       1 NAP330      0.0000 
     11 O2B         0.5500   16.8620   22.0070 O.3       1 NAP330      0.0000 
     12 C1B         2.3090   16.0440   20.6430 C.3       1 NAP330      0.0000 
     13 N9A         2.4300   15.0200   19.5930 N.pl3     1 NAP330      0.0000 
     14 C8A         2.5750   13.6670   19.7680 C.2       1 NAP330      0.0000 
     15 N7A         2.6640   13.0880   18.5440 N.2       1 NAP330      0.0000 
     16 C5A         2.5900   14.0520   17.5950 C.ar      1 NAP330      0.0000 
     17 C6A         2.6350   14.0140   16.2020 C.ar      1 NAP330      0.0000 
     18 N6A         2.7710   12.8580   15.5620 N.pl3     1 NAP330      0.0000 
     19 N1A         2.5360   15.1880   15.4860 N.ar      1 NAP330      0.0000 
     20 C2A         2.3940   16.3920   16.1520 C.ar      1 NAP330      0.0000 
     21 N3A         2.3500   16.4250   17.5340 N.ar      1 NAP330      0.0000 
     22 C4A         2.4440   15.2730   18.2420 C.ar      1 NAP330      0.0000 
     23 O3          6.3100   14.0570   25.2210 O.3       1 NAP330      0.0000 
     24 PN          7.2970   14.8690   26.1960 P.3       1 NAP330      0.0000 
     25 O1N         7.9180   13.9900   27.2260 O.co2     1 NAP330      0.0000 
     26 O2N         6.6360   16.1410   26.4610 O.co2     1 NAP330      0.0000 
     27 O5D         8.4700   15.0890   25.0820 O.3       1 NAP330      0.0000 
     28 C5D         8.1720   15.8760   23.9470 C.3       1 NAP330      0.0000 
     29 C4D         9.2810   15.7120   22.9120 C.3       1 NAP330      0.0000 
     30 O4D        10.4850   16.2720   23.4090 O.3       1 NAP330      0.0000 
     31 C3D         9.5690   14.2370   22.6680 C.3       1 NAP330      0.0000 
     32 O3D         9.9930   14.0660   21.3350 O.3       1 NAP330      0.0000 
     33 C2D        10.7370   13.9430   23.5800 C.3       1 NAP330      0.0000 
     34 O2D        11.4940   12.8460   23.1200 O.3       1 NAP330      0.0000 
     35 C1D        11.4850   15.2600   23.4720 C.3       1 NAP330      0.0000 
     36 N1N        12.3690   15.5220   24.6130 N.pl3     1 NAP330      0.0000 
     37 C2N        13.6880   15.7690   24.3660 C.ar      1 NAP330      0.0000 
     38 C3N        14.5570   16.0430   25.4140 C.ar      1 NAP330      0.0000 
     39 C7N        15.8970   16.6220   25.0830 C.2       1 NAP330      0.0000 
     40 O7N        15.9810   17.5000   23.9850 O.2       1 NAP330      0.0000 
     41 N7N        16.9510   16.2990   25.8260 N.am      1 NAP330      0.0000 
     42 C4N        14.0760   16.0670   26.7210 C.ar      1 NAP330      0.0000 
     43 C5N        12.7240   15.8160   26.9580 C.ar      1 NAP330      0.0000 
     44 C6N        11.8700   15.5530   25.8910 C.ar      1 NAP330      0.0000 
     45 P2B        -0.8890   17.2350   21.4150 P.3       1 NAP330      0.0000 
     46 O1X        -1.4150   18.4180   22.1770 O.co2     1 NAP330      0.0000 
     47 O2X        -0.7850   17.6190   19.9590 O.co2     1 NAP330      0.0000 
     48 O3X        -1.7670   16.0170   21.5640 O.co2     1 NAP330      0.0000 
     49 H           5.2743   15.6265   22.9429 H         1 NAP330      0.0000 
     50 H           4.5518   16.3754   24.3772 H         1 NAP330      0.0000 
     51 H           2.9354   17.1260   23.0690 H         1 NAP330      0.0000 
     52 H           2.2642   14.2511   22.7414 H         1 NAP330      0.0000 
     53 H           0.6296   14.9299   21.2807 H         1 NAP330      0.0000 
     54 H           2.0508   16.9950   20.1991 H         1 NAP330      0.0000 
     55 H           2.6070   13.2164   20.6135 H         1 NAP330      0.0000 
     56 H           2.7864   12.9071   14.5633 H         1 NAP330      0.0000 
     57 H           2.8457   12.0430   16.1367 H         1 NAP330      0.0000 
     58 H           2.3204   17.2711   15.6143 H         1 NAP330      0.0000 
     59 H           8.1010   16.9430   24.1906 H         1 NAP330      0.0000 
     60 H           7.2292   15.5776   23.4727 H         1 NAP330      0.0000 
     61 H           8.9825   16.1585   21.9953 H         1 NAP330      0.0000 
     62 H           8.7491   13.6687   22.9481 H         1 NAP330      0.0000 
     63 H          10.3672   13.8570   24.5664 H         1 NAP330      0.0000 
     64 H          12.0502   15.2462   22.5512 H         1 NAP330      0.0000 
     65 H          14.0528   15.7546   23.3977 H         1 NAP330      0.0000 
     66 H          16.7751   15.6863   26.5965 H         1 NAP330      0.0000 
     67 H          17.8246   16.6979   25.5474 H         1 NAP330      0.0000 
     68 H          14.7072   16.2667   27.5007 H         1 NAP330      0.0000 
     69 H          12.3614   15.8257   27.9183 H         1 NAP330      0.0000 
     70 H          10.8708   15.3838   26.0687 H         1 NAP330      0.0000 
     71 H           0.9787   14.6684   24.3900 H         1 NAP330      0.0000 
     72 H          10.8494   13.5537   21.3996 H         1 NAP330      0.0000 
     73 H          11.3291   12.1198   23.7874 H         1 NAP330      0.0000 
@<TRIPOS>BOND
     1    2    1 ar   
     2    3    1 ar   
     3    4    1 1    
     4   23    1 1    
     5    5    4 1    
     6    6    5 1    
     7   49    5 1    
     8   50    5 1    
     9    7    6 1    
    10    8    6 1    
    11   51    6 1    
    12   12    7 1    
    13    9    8 1    
    14   10    8 1    
    15   52    8 1    
    16   71    9 1    
    17   11   10 1    
    18   12   10 1    
    19   53   10 1    
    20   45   11 1    
    21   13   12 1    
    22   54   12 1    
    23   14   13 1    
    24   22   13 1    
    25   15   14 2    
    26   55   14 1    
    27   16   15 1    
    28   17   16 ar   
    29   22   16 ar   
    30   18   17 1    
    31   19   17 ar   
    32   56   18 1    
    33   57   18 1    
    34   20   19 ar   
    35   21   20 ar   
    36   58   20 1    
    37   22   21 ar   
    38   24   23 1    
    39   25   24 ar   
    40   26   24 ar   
    41   27   24 1    
    42   28   27 1    
    43   29   28 1    
    44   59   28 1    
    45   60   28 1    
    46   30   29 1    
    47   31   29 1    
    48   61   29 1    
    49   35   30 1    
    50   32   31 1    
    51   33   31 1    
    52   62   31 1    
    53   72   32 1    
    54   34   33 1    
    55   35   33 1    
    56   63   33 1    
    57   73   34 1    
    58   36   35 1    
    59   64   35 1    
    60   37   36 ar   
    61   44   36 ar   
    62   38   37 ar   
    63   65   37 1    
    64   39   38 1    
    65   42   38 ar   
    66   40   39 2    
    67   41   39 am   
    68   66   41 1    
    69   67   41 1    
    70   43   42 ar   
    71   68   42 1    
    72   44   43 ar   
    73   69   43 1    
    74   70   44 1    
    75   46   45 ar   
    76   47   45 ar   
    77   48   45 ar   
@<TRIPOS>SUBSTRUCTURE
     1 NAP330      1 GROUP   
@<TRIPOS>SET

