#    Name: 4jr3_KJR_1_INTS_M
#    Modification time : Tue Mar 25 06:13:47 2014

@<TRIPOS>MOLECULE
4jr3_KJR_1_INTS_M
   75     0     6     0     0
SMALL
NO_CHARGES


@<TRIPOS>ATOM
      1 CA         50.5410   22.7385    8.4700 C.3       2 GLC5        0.0000 
      2 CA         50.0260   23.0730    6.6860 C.3       6 GLL5        0.0000 
      3 CA         51.0560   22.4040   10.2540 C.3       4 GLP5        0.0000 
      4 CA         52.9370   21.4875    2.9550 C.3       2 GLC5        0.0000 
      5 CA         51.0130   21.8170    2.2400 C.3       6 GLL5        0.0000 
      6 CA         54.8610   21.1580    3.6700 C.3       4 GLP5        0.0000 
      7 CA         46.4840   20.7065    0.8285 C.3       2 GLC5        0.0000 
      8 CA         48.4290   21.3560    1.3780 C.3       6 GLL5        0.0000 
      9 CA         44.5390   20.0570    0.2790 C.3       4 GLP5        0.0000 
     10 CA         48.6830   20.1330   -1.0130 C.3       2 GLC5        0.0000 
     11 CA         49.4990   21.0660    0.5280 C.3       6 GLL5        0.0000 
     12 CA         47.8670   19.2000   -2.5540 C.3       4 GLP5        0.0000 
     13 CA         53.7400   20.4015   -3.0000 C.3       2 GLC5        0.0000 
     14 CA         53.6730   21.2640   -1.0110 C.3       6 GLL5        0.0000 
     15 CA         53.8070   19.5390   -4.9890 C.3       4 GLP5        0.0000 
     16 CA         55.5640   20.7060   -0.7900 C.3       2 GLC5        0.0000 
     17 CA         57.4550   20.1480   -0.5690 C.3       4 GLP5        0.0000 
     18 N          55.7315   21.0570   -2.2695 N.am      1 SEC2        0.0000 
     19 N          54.7080   21.8690   -1.6210 N.am      5 SEL2        0.0000 
     20 N          56.7550   20.2450   -2.9180 N.am      3 SEP2        0.0000 
     21 CA         53.8180   23.4115   -2.8190 C.3       2 GLC5        0.0000 
     22 CA         54.8700   23.2490   -1.5180 C.3       6 GLL5        0.0000 
     23 CA         52.7660   23.5740   -4.1200 C.3       4 GLP5        0.0000 
     24 CA         55.6255   22.2435   -3.3075 C.3       2 GLC5        0.0000 
     25 CA         56.3810   21.2380   -5.0970 C.3       4 GLP5        0.0000 
     26 CA         56.4865   22.3860   -1.0735 C.3       2 GLC5        0.0000 
     27 CA         58.1030   21.5230   -0.6290 C.3       4 GLP5        0.0000 
     28 CA         55.3000   22.9840    0.1975 C.3       2 GLC5        0.0000 
     29 CA         55.7300   22.7190    1.9130 C.3       4 GLP5        0.0000 
     30 CA         53.9955   24.0400    1.4835 C.3       2 GLC5        0.0000 
     31 CA         52.2610   25.3610    1.0540 C.3       6 GLL5        0.0000 
     32 CA         49.3720   25.1345    0.7800 C.3       2 GLC5        0.0000 
     33 CA         51.1360   25.6170    2.0440 C.3       6 GLL5        0.0000 
     34 CA         47.6080   24.6520   -0.4840 C.3       4 GLP5        0.0000 
     35 CA         49.9400   27.1410    1.1015 C.3       2 GLC5        0.0000 
     36 CA         48.7440   28.6650    0.1590 C.3       4 GLP5        0.0000 
     37 CA         50.3665   24.8265   -1.7675 C.3       2 GLC5        0.0000 
     38 CA         51.7830   26.1210   -1.2540 C.3       6 GLL5        0.0000 
     39 CA         48.9500   23.5320   -2.2810 C.3       4 GLP5        0.0000 
     40 CA         51.8280   29.9960   -2.6810 C.3       2 GLC5        0.0000 
     41 CA         52.3730   28.3620   -1.9200 C.3       6 GLL5        0.0000 
     42 CA         51.2830   31.6300   -3.4420 C.3       4 GLP5        0.0000 
     43 CA         54.3420   29.8490   -0.2535 C.3       2 GLC5        0.0000 
     44 CA         52.8680   28.6000   -0.6390 C.3       6 GLL5        0.0000 
     45 CA         55.8160   31.0980    0.1320 C.3       4 GLP5        0.0000 
     46 CA         52.0060   30.5915   -0.8880 C.3       2 GLC5        0.0000 
     47 CA         51.1440   32.5830   -1.1370 C.3       4 GLP5        0.0000 
     48 CA         48.0725   23.1363    0.7655 C.3       2 GLC5        0.0000 
     49 CA         48.6450   21.8850    2.6520 C.3       6 GLL5        0.0000 
     50 CA         49.5518   22.3573   -0.7705 C.3       2 GLC5        0.0000 
     51 CA         51.1055   20.0478   -1.7567 C.3       2 GLC5        0.0000 
     52 CA         51.8760   21.0320    0.1690 C.3       6 GLL5        0.0000 
     53 CA         50.1430   19.6710   -3.4650 C.3       4 GLP5        0.0000 
     54 CA         50.9945   18.8890   -2.0207 C.3       2 GLC5        0.0000 
     55 CA         51.7170   18.5950   -0.0900 C.3       6 GLL5        0.0000 
     56 CA         52.3642   17.1668    1.5815 C.3       2 GLC5        0.0000 
     57 CA         50.9340   18.2360    1.0180 C.3       6 GLL5        0.0000 
     58 CA         54.0540   16.7430    2.0870 C.3       4 GLP5        0.0000 
     59 CA         50.1425   16.7557   -2.0063 C.3       2 GLC5        0.0000 
     60 CA         50.6750   15.9900    0.1570 C.3       6 GLL5        0.0000 
     61 CA         49.2190   17.3520   -3.6200 C.3       4 GLP5        0.0000 
     62 CA         52.5600   16.4513    0.8473 C.3       2 GLC5        0.0000 
     63 CA         51.4570   16.3290   -0.9420 C.3       6 GLL5        0.0000 
     64 CA         53.0179   17.5777    0.7333 C.3       2 GLC5        0.0000 
     65 CA         51.9750   17.6190   -1.0630 C.3       6 GLL5        0.0000 
     66 CA         52.9200   23.0140   -2.2676 C.3       2 GLC5        0.0000 
     67 CA         52.7670   21.9520   -0.2920 C.3       6 GLL5        0.0000 
     68 CA         54.4020   22.5865    0.7489 C.3       2 GLC5        0.0000 
     69 CA         52.9280   23.3000   -0.1790 C.3       6 GLL5        0.0000 
     70 CA         52.2870   25.0968   -2.9308 C.3       2 GLC5        0.0000 
     71 CA         50.3782   27.9074   -2.0669 C.3       2 GLC5        0.0000 
     72 CA         48.6660   28.3240   -2.3030 C.3       4 GLP5        0.0000 
     73 CA         50.7274   28.2265   -0.0334 C.3       2 GLC5        0.0000 
     74 CA         54.0992   28.4270   -2.1609 C.3       2 GLC5        0.0000 
     75 CA         55.7130   28.6840   -2.9650 C.3       4 GLP5        0.0000 
@<TRIPOS>BOND
@<TRIPOS>SUBSTRUCTURE
     1 SEC2       18 GROUP        1 X    SEC  0     ROOT SEC X 2
     2 GLC5        1 GROUP        1 X    GLC  0     **** GLC X 6
     3 SEP2       20 GROUP        1 Y    SEP  0     ROOT SEP Y 9
     4 GLP5        3 GROUP        1 Y    GLP  0     **** GLP Y 13
     5 SEL2       19 GROUP        1 Z    SEL  0     ROOT SEL Z 16
     6 GLL5        2 GROUP        1 Z    GLL  0     **** GLL Z 20
@<TRIPOS>SET

