#    Name: 4jr3_KJR_1_ligand
#    Modification time : Tue Mar 25 06:13:47 2014

@<TRIPOS>MOLECULE
4jr3_KJR_1_ligand
   59    63     1     0     0
SMALL
NO_CHARGES


@<TRIPOS>ATOM
      1 C24        50.0260   23.0730    6.6860 C.3       1 KJR1001     0.0000 
      2 C23        49.5430   22.3480    5.4260 C.2       1 KJR1001     0.0000 
      3 O25        48.5880   21.5740    5.4930 O.2       1 KJR1001     0.0000 
      4 N22        50.2520   22.6420    4.3100 N.am      1 KJR1001     0.0000 
      5 C20        49.9530   22.1100    3.1040 C.ar      1 KJR1001     0.0000 
      6 C21        51.0130   21.8170    2.2400 C.ar      1 KJR1001     0.0000 
      7 C19        48.6450   21.8850    2.6520 C.ar      1 KJR1001     0.0000 
      8 C18        48.4290   21.3560    1.3780 C.ar      1 KJR1001     0.0000 
      9 C17        49.4990   21.0660    0.5280 C.ar      1 KJR1001     0.0000 
     10 C16        50.8080   21.2990    0.9520 C.ar      1 KJR1001     0.0000 
     11 C15        51.8760   21.0320    0.1690 C.2       1 KJR1001     0.0000 
     12 C1         52.7670   21.9520   -0.2920 C.ar      1 KJR1001     0.0000 
     13 C14        52.2600   19.8170   -0.2660 C.2       1 KJR1001     0.0000 
     14 C26        51.7170   18.5950   -0.0900 C.ar      1 KJR1001     0.0000 
     15 C27        50.9340   18.2360    1.0180 C.ar      1 KJR1001     0.0000 
     16 C28        50.4150   16.9450    1.1340 C.ar      1 KJR1001     0.0000 
     17 C29        50.6750   15.9900    0.1570 C.ar      1 KJR1001     0.0000 
     18 C30        51.4570   16.3290   -0.9420 C.ar      1 KJR1001     0.0000 
     19 C31        51.9750   17.6190   -1.0630 C.ar      1 KJR1001     0.0000 
     20 O13        53.3460   19.9760   -0.9810 O.3       1 KJR1001     0.0000 
     21 C2         53.6730   21.2640   -1.0110 C.ar      1 KJR1001     0.0000 
     22 N3         54.7080   21.8690   -1.6210 N.ar      1 KJR1001     0.0000 
     23 C4         54.8700   23.2490   -1.5180 C.ar      1 KJR1001     0.0000 
     24 N5         53.9380   23.9550   -0.7790 N.ar      1 KJR1001     0.0000 
     25 C6         52.9280   23.3000   -0.1790 C.ar      1 KJR1001     0.0000 
     26 N          52.0210   24.0090    0.5000 N.pl3     1 KJR1001     0.0000 
     27 CA         52.2610   25.3610    1.0540 C.3       1 KJR1001     0.0000 
     28 C          51.1360   25.6170    2.0440 C.3       1 KJR1001     0.0000 
     29 O          51.7850   26.1120    3.2120 O.3       1 KJR1001     0.0000 
     30 C7         52.2810   26.3510    0.0410 C.ar      1 KJR1001     0.0000 
     31 C8         51.7830   26.1210   -1.2540 C.ar      1 KJR1001     0.0000 
     32 C9         51.8330   27.1180   -2.2290 C.ar      1 KJR1001     0.0000 
     33 C10        52.3730   28.3620   -1.9200 C.ar      1 KJR1001     0.0000 
     34 C11        52.8680   28.6000   -0.6390 C.ar      1 KJR1001     0.0000 
     35 C12        52.8260   27.6010    0.3340 C.ar      1 KJR1001     0.0000 
     36 H          51.0666   23.3103    4.3860 H         1 KJR1001     0.0000 
     37 H          51.9880   21.9883    2.5614 H         1 KJR1001     0.0000 
     38 H          47.8496   22.1095    3.2583 H         1 KJR1001     0.0000 
     39 H          47.4627   21.1761    1.0586 H         1 KJR1001     0.0000 
     40 H          49.3221   20.6822   -0.4068 H         1 KJR1001     0.0000 
     41 H          50.7422   18.9336    1.7507 H         1 KJR1001     0.0000 
     42 H          49.8354   16.7004    1.9503 H         1 KJR1001     0.0000 
     43 H          50.2931   15.0431    0.2462 H         1 KJR1001     0.0000 
     44 H          51.6552   15.6284   -1.6687 H         1 KJR1001     0.0000 
     45 H          52.5575   17.8614   -1.8805 H         1 KJR1001     0.0000 
     46 H          55.6472   23.7160   -1.9717 H         1 KJR1001     0.0000 
     47 H          51.0530   23.6308    0.6838 H         1 KJR1001     0.0000 
     48 H          53.1845   25.3413    1.6204 H         1 KJR1001     0.0000 
     49 H          50.6255   24.6855    2.2250 H         1 KJR1001     0.0000 
     50 H          50.4639   26.3407    1.6133 H         1 KJR1001     0.0000 
     51 H          51.3761   25.2010   -1.4815 H         1 KJR1001     0.0000 
     52 H          51.4716   26.9318   -3.1714 H         1 KJR1001     0.0000 
     53 H          52.4073   29.1009   -2.6299 H         1 KJR1001     0.0000 
     54 H          53.2684   29.5212   -0.4080 H         1 KJR1001     0.0000 
     55 H          53.2002   27.7881    1.2753 H         1 KJR1001     0.0000 
     56 H          50.3182   22.4310    7.3949 H         1 KJR1001     0.0000 
     57 H          50.8034   23.6722    6.4947 H         1 KJR1001     0.0000 
     58 H          49.3077   23.6431    7.0848 H         1 KJR1001     0.0000 
     59 H          51.2648   25.7330    3.9773 H         1 KJR1001     0.0000 
@<TRIPOS>BOND
     1    2    1 1    
     2   56    1 1    
     3   57    1 1    
     4   58    1 1    
     5    3    2 2    
     6    4    2 am   
     7    5    4 1    
     8   36    4 1    
     9    6    5 ar   
    10    7    5 ar   
    11   10    6 ar   
    12   37    6 1    
    13    8    7 ar   
    14   38    7 1    
    15    9    8 ar   
    16   39    8 1    
    17   10    9 ar   
    18   40    9 1    
    19   11   10 1    
    20   12   11 1    
    21   13   11 2    
    22   21   12 ar   
    23   25   12 ar   
    24   14   13 1    
    25   20   13 1    
    26   15   14 ar   
    27   19   14 ar   
    28   16   15 ar   
    29   41   15 1    
    30   17   16 ar   
    31   42   16 1    
    32   18   17 ar   
    33   43   17 1    
    34   19   18 ar   
    35   44   18 1    
    36   45   19 1    
    37   21   20 1    
    38   22   21 ar   
    39   23   22 ar   
    40   24   23 ar   
    41   46   23 1    
    42   25   24 ar   
    43   26   25 1    
    44   27   26 1    
    45   47   26 1    
    46   28   27 1    
    47   30   27 1    
    48   48   27 1    
    49   29   28 1    
    50   49   28 1    
    51   50   28 1    
    52   59   29 1    
    53   31   30 ar   
    54   35   30 ar   
    55   32   31 ar   
    56   51   31 1    
    57   33   32 ar   
    58   52   32 1    
    59   34   33 ar   
    60   53   33 1    
    61   35   34 ar   
    62   54   34 1    
    63   55   35 1    
@<TRIPOS>SUBSTRUCTURE
     1 KJR1001     1 GROUP   
@<TRIPOS>SET

