#    Name: 1lho_AOM_1_INTS_M
#    Modification time : Tue Mar 25 11:07:18 2014

@<TRIPOS>MOLECULE
1lho_AOM_1_INTS_M
   80     0     9     0     0
SMALL
NO_CHARGES


@<TRIPOS>ATOM
      1 CA         22.7505   10.2600   28.9625 C.3       3 GLC5        0.0000 
      2 CA         23.9090    9.9710   30.8320 C.3       9 GLL5        0.0000 
      3 CA         21.5920   10.5490   27.0930 C.3       6 GLP5        0.0000 
      4 CA         22.0130    7.5830   30.9880 C.3       3 GLC5        0.0000 
      5 CA         21.2280    9.0200   32.0830 C.3       9 GLL5        0.0000 
      6 CA         22.7980    6.1460   29.8930 C.3       6 GLP5        0.0000 
      7 CA         22.2430    7.2880   32.8180 C.3       3 GLC5        0.0000 
      8 CA         23.2580    5.5560   33.5530 C.3       6 GLP5        0.0000 
      9 CA         19.0865    6.8945   31.5925 C.3       3 GLC5        0.0000 
     10 CA         19.6640    8.9240   32.0890 C.3       9 GLL5        0.0000 
     11 CA         18.5090    4.8650   31.0960 C.3       6 GLP5        0.0000 
     12 CA         18.0550   13.6875   34.5995 C.3       3 GLC5        0.0000 
     13 CA         18.6810   11.8100   34.4110 C.3       9 GLL5        0.0000 
     14 CA         17.4290   15.5650   34.7880 C.3       6 GLP5        0.0000 
     15 CA         15.4945   11.3165   35.1690 C.3       3 GLC5        0.0000 
     16 CA         17.3040   11.0230   34.2930 C.3       9 GLL5        0.0000 
     17 CA         13.6850   11.6100   36.0450 C.3       6 GLP5        0.0000 
     18 CA         16.4755   10.4165   31.3415 C.3       3 GLC5        0.0000 
     19 CA         17.5510    9.9770   33.1870 C.3       9 GLL5        0.0000 
     20 CA         15.4000   10.8560   29.4960 C.3       6 GLP5        0.0000 
     21 CA         20.2405   10.1195   35.8530 C.3       3 GLC5        0.0000 
     22 CA         19.3570    8.8690   34.6140 C.3       9 GLL5        0.0000 
     23 CA         21.1240   11.3700   37.0920 C.3       6 GLP5        0.0000 
     24 CA         19.4255    7.7355   36.2630 C.3       3 GLC5        0.0000 
     25 CA         19.4940    6.6020   37.9120 C.3       6 GLP5        0.0000 
     26 CA         24.0260    9.4405   35.2040 C.3       3 GLC5        0.0000 
     27 CA         23.8960    9.8600   33.3630 C.3       9 GLL5        0.0000 
     28 CA         24.1560    9.0210   37.0450 C.3       6 GLP5        0.0000 
     29 CA         25.8850    9.5320   33.6440 C.3       3 GLC5        0.0000 
     30 CA         27.8740    9.2040   33.9250 C.3       6 GLP5        0.0000 
     31 CA         24.6800    7.9870   33.9770 C.3       3 GLC5        0.0000 
     32 CA         25.4640    6.1140   34.5910 C.3       6 GLP5        0.0000 
     33 CA         26.6670    9.6875   32.3225 C.3       3 GLC5        0.0000 
     34 CA         25.4600   10.1710   30.7200 C.3       9 GLL5        0.0000 
     35 CA         26.9570    8.8550   30.3375 C.3       3 GLC5        0.0000 
     36 CA         28.4540    7.5390   29.9550 C.3       6 GLP5        0.0000 
     37 CA         27.6765   12.8455   30.9030 C.3       3 GLC5        0.0000 
     38 CA         25.7790   11.6910   30.7630 C.3       9 GLL5        0.0000 
     39 CA         29.5740   14.0000   31.0430 C.3       6 GLP5        0.0000 
     40 CA         25.1550   12.6925   29.2500 C.3       3 GLC5        0.0000 
     41 CA         24.5310   13.6940   27.7370 C.3       6 GLP5        0.0000 
     42 CA         25.7445   13.3400   33.7780 C.3       3 GLC5        0.0000 
     43 CA         25.2450   12.3640   32.0570 C.3       9 GLL5        0.0000 
     44 CA         26.2440   14.3160   35.4990 C.3       6 GLP5        0.0000 
     45 CA         24.6845   13.5875   34.4515 C.3       3 GLC5        0.0000 
     46 CA         23.1250   12.8590   33.4040 C.3       9 GLL5        0.0000 
     47 CA         23.3780   12.3100   35.3190 C.3       3 GLC5        0.0000 
     48 CA         23.6310   11.7610   37.2340 C.3       6 GLP5        0.0000 
     49 N          27.7810   13.1160   30.5350 N.am      2 SEC2        0.0000 
     50 N          27.2040   11.8800   30.6560 N.am      8 SEL2        0.0000 
     51 N          28.3580   14.3520   30.4140 N.am      5 SEP2        0.0000 
     52 O          27.0420   11.6810   29.3300 O.2       1 ALC1        0.0000 
     53 O          27.2040   11.8800   30.6560 O.2       7 ALL1        0.0000 
     54 O          26.8800   11.4820   28.0040 O.2       4 ALP1        0.0000 
     55 N          16.5620    7.5230   34.1320 N.am      2 SEC2        0.0000 
     56 N          16.7000    8.8370   33.4000 N.am      8 SEL2        0.0000 
     57 N          16.4240    6.2090   34.8640 N.am      5 SEP2        0.0000 
     58 O          15.4930    9.3995   33.6085 O.2       1 ALC1        0.0000 
     59 O          16.7000    8.8370   33.4000 O.2       7 ALL1        0.0000 
     60 O          14.2860    9.9620   33.8170 O.2       4 ALP1        0.0000 
     61 CA         24.1608    8.5560   29.6900 C.3       3 GLC5        0.0000 
     62 CA         23.6370    7.0410   28.6040 C.3       6 GLP5        0.0000 
     63 CA         20.1202   11.4228   35.4755 C.3       3 GLC5        0.0000 
     64 CA         19.5520   11.1410   33.3070 C.3       9 GLL5        0.0000 
     65 CA         17.4357   12.0898   36.0240 C.3       3 GLC5        0.0000 
     66 CA         16.8790   12.7630   37.6960 C.3       6 GLP5        0.0000 
     67 CA         23.5033   14.5825   32.6043 C.3       3 GLC5        0.0000 
     68 CA         23.7100   12.1830   32.1350 C.3       9 GLL5        0.0000 
     69 CA         23.5890   16.6440   32.4390 C.3       6 GLP5        0.0000 
     70 CA         21.7422   14.3520   34.5185 C.3       3 GLC5        0.0000 
     71 CA         21.1280   15.9170   35.6300 C.3       6 GLP5        0.0000 
     72 CA         21.2348   11.6740   35.2437 C.3       3 GLC5        0.0000 
     73 CA         21.5880   12.7150   33.4100 C.3       9 GLL5        0.0000 
     74 CA         21.6479   13.5710   31.5219 C.3       3 GLC5        0.0000 
     75 CA         20.7930   14.5240   29.9540 C.3       6 GLP5        0.0000 
     76 CA         20.3488    9.6685   30.1990 C.3       3 GLC5        0.0000 
     77 CA         21.7310   10.5040   32.1260 C.3       9 GLL5        0.0000 
     78 CA         19.6090    9.5990   28.2920 C.3       6 GLP5        0.0000 
     79 CA         20.2771   12.0957   31.2870 C.3       3 GLC5        0.0000 
     80 CA         19.5250   13.3440   29.8390 C.3       6 GLP5        0.0000 
@<TRIPOS>BOND
@<TRIPOS>SUBSTRUCTURE
     1 ALC1       52 GROUP        1 X    ALC  0     ROOT ALC X 1
     2 SEC2       49 GROUP        1 X    SEC  0     **** SEC X 2
     3 GLC5        1 GROUP        1 X    GLC  0     **** GLC X 6
     4 ALP1       54 GROUP        1 Y    ALP  0     ROOT ALP Y 8
     5 SEP2       51 GROUP        1 Y    SEP  0     **** SEP Y 9
     6 GLP5        3 GROUP        1 Y    GLP  0     **** GLP Y 13
     7 ALL1       53 GROUP        1 Z    ALL  0     ROOT ALL Z 15
     8 SEL2       50 GROUP        1 Z    SEL  0     **** SEL Z 16
     9 GLL5        2 GROUP        1 Z    GLL  0     **** GLL Z 20
@<TRIPOS>SET

