#    Name: 1lho_AOM_1_ligand
#    Modification time : Tue Mar 25 11:07:18 2014

@<TRIPOS>MOLECULE
1lho_AOM_1_ligand
   53    56     1     0     0
SMALL
NO_CHARGES


@<TRIPOS>ATOM
      1 C1         23.9090    9.9710   30.8320 C.3       1 AOM301      0.0000 
      2 C10        23.3110   10.6280   32.1130 C.3       1 AOM301      0.0000 
      3 C11        21.2280    9.0200   32.0830 C.3       1 AOM301      0.0000 
      4 C12        19.6640    8.9240   32.0890 C.3       1 AOM301      0.0000 
      5 C13        19.0480    9.6620   33.2930 C.3       1 AOM301      0.0000 
      6 C14        19.5520   11.1410   33.3070 C.3       1 AOM301      0.0000 
      7 C15        18.6810   11.8100   34.4110 C.3       1 AOM301      0.0000 
      8 C16        17.3040   11.0230   34.2930 C.3       1 AOM301      0.0000 
      9 C17        17.5510    9.9770   33.1870 C.3       1 AOM301      0.0000 
     10 C18        19.3570    8.8690   34.6140 C.3       1 AOM301      0.0000 
     11 C19        23.8960    9.8600   33.3630 C.3       1 AOM301      0.0000 
     12 C2         25.4600   10.1710   30.7200 C.3       1 AOM301      0.0000 
     13 C3         25.7790   11.6910   30.7630 C.3       1 AOM301      0.0000 
     14 C4         25.2450   12.3640   32.0570 C.3       1 AOM301      0.0000 
     15 C5         23.7100   12.1830   32.1350 C.3       1 AOM301      0.0000 
     16 C6         23.1250   12.8590   33.4040 C.3       1 AOM301      0.0000 
     17 C7         21.5880   12.7150   33.4100 C.3       1 AOM301      0.0000 
     18 C8         21.1030   11.2410   33.3810 C.3       1 AOM301      0.0000 
     19 C9         21.7310   10.5040   32.1260 C.3       1 AOM301      0.0000 
     20 O3         27.2040   11.8800   30.6560 O.3       1 AOM301      0.0000 
     21 O17        16.7000    8.8370   33.4000 O.3       1 AOM301      0.0000 
     22 H          23.4373   10.4112   29.9550 H         1 AOM301      0.0000 
     23 H          23.6963    8.9034   30.8492 H         1 AOM301      0.0000 
     24 H          21.6047    8.5486   31.1798 H         1 AOM301      0.0000 
     25 H          21.6149    8.4939   32.9510 H         1 AOM301      0.0000 
     26 H          19.3841    7.8736   32.1256 H         1 AOM301      0.0000 
     27 H          19.2891    9.3602   31.1658 H         1 AOM301      0.0000 
     28 H          19.2074   11.5597   32.3388 H         1 AOM301      0.0000 
     29 H          18.5139   12.8152   34.1759 H         1 AOM301      0.0000 
     30 H          19.0932   11.6251   35.3541 H         1 AOM301      0.0000 
     31 H          16.5561   11.7036   33.9939 H         1 AOM301      0.0000 
     32 H          17.1135   10.5455   35.2137 H         1 AOM301      0.0000 
     33 H          17.3753   10.4641   32.2514 H         1 AOM301      0.0000 
     34 H          25.7964    9.7616   29.7859 H         1 AOM301      0.0000 
     35 H          25.9340    9.6828   31.5508 H         1 AOM301      0.0000 
     36 H          25.2726   12.1529   29.9185 H         1 AOM301      0.0000 
     37 H          25.4791   13.4157   32.0299 H         1 AOM301      0.0000 
     38 H          25.7032   11.8958   32.9128 H         1 AOM301      0.0000 
     39 H          23.2570   12.6350   31.2651 H         1 AOM301      0.0000 
     40 H          23.3865   13.9065   33.3972 H         1 AOM301      0.0000 
     41 H          23.5333   12.3769   34.2796 H         1 AOM301      0.0000 
     42 H          21.1775   13.2365   32.5375 H         1 AOM301      0.0000 
     43 H          21.1880   13.1982   34.3090 H         1 AOM301      0.0000 
     44 H          21.4469   10.7359   34.2581 H         1 AOM301      0.0000 
     45 H          21.3491   11.0114   31.2391 H         1 AOM301      0.0000 
     46 H          20.3403    8.7829   34.7741 H         1 AOM301      0.0000 
     47 H          18.9676    9.3196   35.4174 H         1 AOM301      0.0000 
     48 H          18.9821    7.9423   34.5872 H         1 AOM301      0.0000 
     49 H          24.8939    9.9137   33.3982 H         1 AOM301      0.0000 
     50 H          23.5517   10.2349   34.2238 H         1 AOM301      0.0000 
     51 H          23.6550    8.8896   33.3488 H         1 AOM301      0.0000 
     52 H          27.4087   11.7598   29.6846 H         1 AOM301      0.0000 
     53 H          15.8725    9.2072   33.8221 H         1 AOM301      0.0000 
@<TRIPOS>BOND
     1    2    1 1    
     2   12    1 1    
     3   22    1 1    
     4   23    1 1    
     5   11    2 1    
     6   15    2 1    
     7   19    2 1    
     8    4    3 1    
     9   19    3 1    
    10   24    3 1    
    11   25    3 1    
    12    5    4 1    
    13   26    4 1    
    14   27    4 1    
    15    6    5 1    
    16    9    5 1    
    17   10    5 1    
    18    7    6 1    
    19   18    6 1    
    20   28    6 1    
    21    8    7 1    
    22   29    7 1    
    23   30    7 1    
    24    9    8 1    
    25   31    8 1    
    26   32    8 1    
    27   21    9 1    
    28   33    9 1    
    29   46   10 1    
    30   47   10 1    
    31   48   10 1    
    32   49   11 1    
    33   50   11 1    
    34   51   11 1    
    35   13   12 1    
    36   34   12 1    
    37   35   12 1    
    38   14   13 1    
    39   20   13 1    
    40   36   13 1    
    41   15   14 1    
    42   37   14 1    
    43   38   14 1    
    44   16   15 1    
    45   39   15 1    
    46   17   16 1    
    47   40   16 1    
    48   41   16 1    
    49   18   17 1    
    50   42   17 1    
    51   43   17 1    
    52   19   18 1    
    53   44   18 1    
    54   45   19 1    
    55   52   20 1    
    56   53   21 1    
@<TRIPOS>SUBSTRUCTURE
     1 AOM301      1 GROUP   
@<TRIPOS>SET

