#    Name: 4itp_1GD_1_INTS_M
#    Modification time : Tue Mar 25 04:35:54 2014

@<TRIPOS>MOLECULE
4itp_1GD_1_INTS_M
   35     0    12     0     0
SMALL
NO_CHARGES


@<TRIPOS>ATOM
      1 CA         21.5935    6.7725   14.6340 C.3       4 GLC5        0.0000 
      2 CA         20.5970    7.7900   13.4970 C.3      12 GLL5        0.0000 
      3 CA         22.5900    5.7550   15.7710 C.3       8 GLP5        0.0000 
      4 CA         18.5940    0.5150   15.0430 C.3       4 GLC5        0.0000 
      5 CA         17.3040    2.1500   15.5670 C.3      12 GLL5        0.0000 
      6 CA         19.8840   -1.1200   14.5190 C.3       8 GLP5        0.0000 
      7 O          16.7060   -1.4285   16.8930 O.2       1 ALC1        0.0000 
      8 O          15.8770   -0.6040   16.1330 O.2       9 ALL1        0.0000 
      9 O          17.5350   -2.2530   17.6530 O.2       5 ALP1        0.0000 
     10 Zn         15.1850   -1.1775   15.7085 Zn        3 ZIC7        0.0000 
     11 Zn         15.8770   -0.6040   16.1330 Zn       11 ZIL7        0.0000 
     12 Zn         14.4930   -1.7510   15.2840 Zn        7 ZIP7        0.0000 
     13 N          17.1570    0.4700   18.6440 N.am      2 SEC2        0.0000 
     14 N          15.8070    0.8600   18.1860 N.am     10 SEL2        0.0000 
     15 N          18.5070    0.0800   19.1020 N.am      6 SEP2        0.0000 
     16 CA         13.2465    3.1335   15.1755 C.3       4 GLC5        0.0000 
     17 CA         15.2010    3.1300   15.4790 C.3      12 GLL5        0.0000 
     18 CA         11.2920    3.1370   14.8720 C.3       8 GLP5        0.0000 
     19 CA         13.6055    4.8285   15.2420 C.3       4 GLC5        0.0000 
     20 CA         15.6850    4.1890   14.7300 C.3      12 GLL5        0.0000 
     21 CA         11.5260    5.4680   15.7540 C.3       8 GLP5        0.0000 
     22 CA         16.3330    6.9525   14.2370 C.3       4 GLC5        0.0000 
     23 CA         17.5950    5.3690   13.5200 C.3      12 GLL5        0.0000 
     24 CA         15.0710    8.5360   14.9540 C.3       8 GLP5        0.0000 
     25 CA         19.7147   11.0980   16.1065 C.3       4 GLC5        0.0000 
     26 CA         20.3360   11.4830   14.2770 C.3      12 GLL5        0.0000 
     27 CA         18.9030   11.3960   17.8800 C.3       8 GLP5        0.0000 
     28 CA         18.6047   13.1195   14.5035 C.3       4 GLC5        0.0000 
     29 CA         17.2850   14.5190   15.2440 C.3       8 GLP5        0.0000 
     30 CA         16.2894    4.1117   16.9489 C.3       4 GLC5        0.0000 
     31 CA         15.9480    2.0620   15.9240 C.3      12 GLL5        0.0000 
     32 CA         16.9490    4.8310   18.6820 C.3       8 GLP5        0.0000 
     33 CA         17.8158    3.9799   16.4725 C.3       4 GLC5        0.0000 
     34 CA         17.0150    4.2690   14.3800 C.3      12 GLL5        0.0000 
     35 CA         18.3340    4.4850   18.1640 C.3       8 GLP5        0.0000 
@<TRIPOS>BOND
@<TRIPOS>SUBSTRUCTURE
     1 ALC1        7 GROUP        1 X    ALC  0     ROOT ALC X 1
     2 SEC2       13 GROUP        1 X    SEC  0     **** SEC X 2
     3 ZIC7       10 GROUP        1 X    ZIC  0     **** ZIC X 5
     4 GLC5        1 GROUP        1 X    GLC  0     **** GLC X 6
     5 ALP1        9 GROUP        1 Y    ALP  0     ROOT ALP Y 8
     6 SEP2       15 GROUP        1 Y    SEP  0     **** SEP Y 9
     7 ZIP7       12 GROUP        1 Y    ZIP  0     **** ZIP Y 12
     8 GLP5        3 GROUP        1 Y    GLP  0     **** GLP Y 13
     9 ALL1        8 GROUP        1 Z    ALL  0     ROOT ALL Z 15
    10 SEL2       14 GROUP        1 Z    SEL  0     **** SEL Z 16
    11 ZIL7       11 GROUP        1 Z    ZIL  0     **** ZIL Z 19
    12 GLL5        2 GROUP        1 Z    GLL  0     **** GLL Z 20
@<TRIPOS>SET

