#    Name: 4itp_1GD_1_ligand
#    Modification time : Tue Mar 25 04:35:54 2014

@<TRIPOS>MOLECULE
4itp_1GD_1_ligand
   36    37     1     0     0
SMALL
NO_CHARGES


@<TRIPOS>ATOM
      1 C13        20.5970    7.7900   13.4970 C.3       1 1GD304      0.0000 
      2 C15        20.7170   10.1170   14.3890 C.ar      1 1GD304      0.0000 
      3 C17        19.5130   11.9570   13.2490 C.ar      1 1GD304      0.0000 
      4 C20        17.8560    3.2110   14.7970 C.ar      1 1GD304      0.0000 
      5 C21        17.3040    2.1500   15.5670 C.ar      1 1GD304      0.0000 
      6 N1         15.8770   -0.6040   16.1330 N.pl3     1 1GD304      0.0000 
      7 S02        15.3050    0.7690   16.8700 S.o2      1 1GD304      0.0000 
      8 O3         15.8070    0.8600   18.1860 O.2       1 1GD304      0.0000 
      9 O4         13.8790    0.7860   16.7150 O.2       1 1GD304      0.0000 
     10 C5         15.9480    2.0620   15.9240 C.ar      1 1GD304      0.0000 
     11 C6         15.2010    3.1300   15.4790 C.ar      1 1GD304      0.0000 
     12 C7         15.6850    4.1890   14.7300 C.ar      1 1GD304      0.0000 
     13 C8         17.0150    4.2690   14.3800 C.ar      1 1GD304      0.0000 
     14 C9         17.5950    5.3690   13.5200 C.3       1 1GD304      0.0000 
     15 N10        18.6730    6.2000   14.0770 N.am      1 1GD304      0.0000 
     16 C11        19.4410    6.8450   13.0770 C.2       1 1GD304      0.0000 
     17 O12        19.1950    6.7080   11.9160 O.2       1 1GD304      0.0000 
     18 C14        20.2340    9.2400   13.3980 C.ar      1 1GD304      0.0000 
     19 C16        20.3360   11.4830   14.2770 C.ar      1 1GD304      0.0000 
     20 C18        19.0630   11.0260   12.3080 C.ar      1 1GD304      0.0000 
     21 C19        19.4220    9.7100   12.4000 C.ar      1 1GD304      0.0000 
     22 H          21.4631    7.5728   12.8560 H         1 1GD304      0.0000 
     23 H          20.8809    7.5413   14.5294 H         1 1GD304      0.0000 
     24 H          21.2982    9.8020   15.1355 H         1 1GD304      0.0000 
     25 H          19.2560   12.9282   13.1901 H         1 1GD304      0.0000 
     26 H          18.8388    3.2056   14.5524 H         1 1GD304      0.0000 
     27 H          17.9546    1.3905   15.8842 H         1 1GD304      0.0000 
     28 H          16.7627   -0.9393   16.4541 H         1 1GD304      0.0000 
     29 H          14.1621    3.1452   15.7311 H         1 1GD304      0.0000 
     30 H          15.0290    4.9376   14.4270 H         1 1GD304      0.0000 
     31 H          16.7421    6.0342   13.1903 H         1 1GD304      0.0000 
     32 H          17.9455    4.9008   12.5522 H         1 1GD304      0.0000 
     33 H          18.8177    6.2786   15.0223 H         1 1GD304      0.0000 
     34 H          20.6889   12.1501   14.9940 H         1 1GD304      0.0000 
     35 H          18.4511   11.3505   11.5373 H         1 1GD304      0.0000 
     36 H          19.0624    9.0335   11.6792 H         1 1GD304      0.0000 
@<TRIPOS>BOND
     1   16    1 1    
     2   18    1 1    
     3   22    1 1    
     4   23    1 1    
     5   18    2 ar   
     6   19    2 ar   
     7   24    2 1    
     8   19    3 ar   
     9   20    3 ar   
    10   25    3 1    
    11    5    4 ar   
    12   13    4 ar   
    13   26    4 1    
    14   10    5 ar   
    15   27    5 1    
    16    7    6 1    
    17   28    6 1    
    18    8    7 2    
    19    9    7 2    
    20   10    7 1    
    21   11   10 ar   
    22   12   11 ar   
    23   29   11 1    
    24   13   12 ar   
    25   30   12 1    
    26   14   13 1    
    27   15   14 1    
    28   31   14 1    
    29   32   14 1    
    30   16   15 am   
    31   33   15 1    
    32   17   16 2    
    33   21   18 ar   
    34   34   19 1    
    35   21   20 ar   
    36   35   20 1    
    37   36   21 1    
@<TRIPOS>SUBSTRUCTURE
     1 1GD304      1 GROUP   
@<TRIPOS>SET

