#    Name: 1nvf_ADP_3_INTS_M
#    Modification time : Mon Mar 24 19:01:43 2014

@<TRIPOS>MOLECULE
1nvf_ADP_3_INTS_M
   52     0     9     0     0
SMALL
NO_CHARGES


@<TRIPOS>ATOM
      1 N          -4.6020   87.7830   68.6255 N.am      2 SEC2        0.0000 
      2 N          -5.3020   88.9770   68.3340 N.am      8 SEL2        0.0000 
      3 N          -3.9020   86.5890   68.9170 N.am      5 SEP2        0.0000 
      4 N          -4.9685   89.8685   69.2300 N.am      2 SEC2        0.0000 
      5 N          -4.6350   90.7600   70.1260 N.am      5 SEP2        0.0000 
      6 N          -9.0405   90.3995   67.0545 N.am      2 SEC2        0.0000 
      7 N          -7.3490   90.2960   67.3970 N.am      8 SEL2        0.0000 
      8 N         -10.7320   90.5030   66.7120 N.am      5 SEP2        0.0000 
      9 N          -3.7280   86.2305   66.4435 N.am      2 SEC2        0.0000 
     10 N          -3.7020   87.8430   65.9850 N.am      8 SEL2        0.0000 
     11 N          -3.7540   84.6180   66.9020 N.am      5 SEP2        0.0000 
     12 N           0.0275   91.7705   60.2535 N.am      2 SEC2        0.0000 
     13 N          -0.2770   91.3360   61.7060 N.am      8 SEL2        0.0000 
     14 N           0.3320   92.2050   58.8010 N.am      5 SEP2        0.0000 
     15 O           1.2280   90.8160   61.5895 O.2       1 ALC1        0.0000 
     16 O          -0.2770   91.3360   61.7060 O.2       7 ALL1        0.0000 
     17 O           2.7330   90.2960   61.4730 O.2       4 ALP1        0.0000 
     18 O           0.4160   90.1470   61.9060 O.2       1 ALC1        0.0000 
     19 O           1.1090   88.9580   62.1060 O.2       4 ALP1        0.0000 
     20 N          -0.0340   92.3885   67.6225 N.am      2 SEC2        0.0000 
     21 N          -0.6690   93.0940   66.5980 N.am      8 SEL2        0.0000 
     22 N           0.6010   91.6830   68.6470 N.am      5 SEP2        0.0000 
     23 CA         -1.4240   96.8595   66.5875 C.3       3 GLC5        0.0000 
     24 CA          0.1060   95.5770   66.6110 C.3       9 GLL5        0.0000 
     25 CA         -2.9540   98.1420   66.5640 C.3       6 GLP5        0.0000 
     26 O          -0.3750   95.0675   68.9315 O.2       1 ALC1        0.0000 
     27 O           0.3360   95.8240   67.9190 O.2       7 ALL1        0.0000 
     28 O          -1.0860   94.3110   69.9440 O.2       4 ALP1        0.0000 
     29 N           0.9965   97.7665   66.2425 N.am      2 SEC2        0.0000 
     30 N           0.3770   96.6150   65.6830 N.am      8 SEL2        0.0000 
     31 N           1.6160   98.9180   66.8020 N.am      5 SEP2        0.0000 
     32 CA          0.9115   94.3465   64.2065 C.3       3 GLC5        0.0000 
     33 CA          0.0940   96.4230   64.3280 C.3       9 GLL5        0.0000 
     34 CA          1.7290   92.2700   64.0850 C.3       6 GLP5        0.0000 
     35 CA          0.6935   98.2480   65.1785 C.3       3 GLC5        0.0000 
     36 CA          1.2930  100.0730   66.0290 C.3       6 GLP5        0.0000 
     37 CA         -1.4300   97.2825   65.4460 C.3       3 GLC5        0.0000 
     38 CA         -1.8365   96.7415   64.1245 C.3       3 GLC5        0.0000 
     39 CA         -3.7670   97.0600   63.9210 C.3       6 GLP5        0.0000 
     40 CA         -2.2405   95.6850   64.3045 C.3       3 GLC5        0.0000 
     41 CA         -0.7140   94.3100   64.6880 C.3       9 GLL5        0.0000 
     42 CA         -5.5263   92.4762   63.7572 C.3       3 GLC5        0.0000 
     43 CA         -3.9250   91.3480   62.5950 C.3       9 GLL5        0.0000 
     44 CA         -6.6240   94.0420   64.5060 C.3       6 GLP5        0.0000 
     45 CA          0.0383   92.0807   63.4783 C.3       3 GLC5        0.0000 
     46 CA         -1.8850   92.5530   63.1250 C.3       9 GLL5        0.0000 
     47 CA          0.5320   93.7495   67.9708 C.3       3 GLC5        0.0000 
     48 CA         -0.4040   94.3290   66.0580 C.3       9 GLL5        0.0000 
     49 CA          1.2130   92.5460   69.6070 C.3       6 GLP5        0.0000 
     50 CA         -2.2395   94.7268   66.3225 C.3       3 GLC5        0.0000 
     51 CA         -3.9200   95.1340   67.2720 C.3       6 GLP5        0.0000 
     52 CA          0.6488   93.4507   64.7981 C.3       3 GLC5        0.0000 
@<TRIPOS>BOND
@<TRIPOS>SUBSTRUCTURE
     1 ALC1       15 GROUP        1 X    ALC  0     ROOT ALC X 1
     2 SEC2        1 GROUP        1 X    SEC  0     **** SEC X 2
     3 GLC5       23 GROUP        1 X    GLC  0     **** GLC X 6
     4 ALP1       17 GROUP        1 Y    ALP  0     ROOT ALP Y 8
     5 SEP2        3 GROUP        1 Y    SEP  0     **** SEP Y 9
     6 GLP5       25 GROUP        1 Y    GLP  0     **** GLP Y 13
     7 ALL1       16 GROUP        1 Z    ALL  0     ROOT ALL Z 15
     8 SEL2        2 GROUP        1 Z    SEL  0     **** SEL Z 16
     9 GLL5       24 GROUP        1 Z    GLL  0     **** GLL Z 20
@<TRIPOS>SET

