#    Name: 1nvf_ADP_3_ligand
#    Modification time : Mon Mar 24 19:01:43 2014

@<TRIPOS>MOLECULE
1nvf_ADP_3_ligand
   39    41     1     0     0
SMALL
NO_CHARGES


@<TRIPOS>ATOM
      1 PB         -6.4700   89.0220   67.4540 P.3       1 ADP402      0.0000 
      2 O1B        -5.3020   88.9770   68.3340 O.co2     1 ADP402      0.0000 
      3 O2B        -7.3490   90.2960   67.3970 O.co2     1 ADP402      0.0000 
      4 O3B        -7.3760   87.6700   67.6090 O.co2     1 ADP402      0.0000 
      5 PA         -4.7690   88.4370   65.0960 P.3       1 ADP402      0.0000 
      6 O1A        -3.7020   87.8430   65.9850 O.co2     1 ADP402      0.0000 
      7 O2A        -5.2070   87.6580   63.8680 O.co2     1 ADP402      0.0000 
      8 O3A        -6.0690   88.8610   65.9130 O.3       1 ADP402      0.0000 
      9 O5'        -4.2760   89.9060   64.6330 O.3       1 ADP402      0.0000 
     10 C5'        -4.9320   90.4730   63.4220 C.3       1 ADP402      0.0000 
     11 C4'        -3.9250   91.3480   62.5950 C.3       1 ADP402      0.0000 
     12 O4'        -3.3150   92.3830   63.3980 O.3       1 ADP402      0.0000 
     13 C3'        -2.7030   90.6410   61.9680 C.3       1 ADP402      0.0000 
     14 O3'        -2.6480   90.8220   60.5170 O.3       1 ADP402      0.0000 
     15 C2'        -1.4200   91.2300   62.6180 C.3       1 ADP402      0.0000 
     16 O2'        -0.2770   91.3360   61.7060 O.3       1 ADP402      0.0000 
     17 C1'        -1.8850   92.5530   63.1250 C.3       1 ADP402      0.0000 
     18 N9         -1.3490   93.1060   64.4480 N.pl3     1 ADP402      0.0000 
     19 C8         -1.4170   92.4600   65.6960 C.2       1 ADP402      0.0000 
     20 N7         -0.6690   93.0940   66.5980 N.2       1 ADP402      0.0000 
     21 C5         -0.4040   94.3290   66.0580 C.ar      1 ADP402      0.0000 
     22 C6          0.1060   95.5770   66.6110 C.ar      1 ADP402      0.0000 
     23 N6          0.3360   95.8240   67.9190 N.pl3     1 ADP402      0.0000 
     24 N1          0.3770   96.6150   65.6830 N.ar      1 ADP402      0.0000 
     25 C2          0.0940   96.4230   64.3280 C.ar      1 ADP402      0.0000 
     26 N3         -0.4380   95.3180   63.7170 N.ar      1 ADP402      0.0000 
     27 C4         -0.7140   94.3100   64.6880 C.ar      1 ADP402      0.0000 
     28 H          -5.7721   91.1093   63.6985 H         1 ADP402      0.0000 
     29 H          -5.2926   89.6789   62.7690 H         1 ADP402      0.0000 
     30 H          -4.4701   91.8272   61.7743 H         1 ADP402      0.0000 
     31 H          -2.7456   89.5986   62.2313 H         1 ADP402      0.0000 
     32 H          -1.1987   90.6051   63.4751 H         1 ADP402      0.0000 
     33 H          -1.7956   93.3122   62.3653 H         1 ADP402      0.0000 
     34 H          -1.9513   91.6586   65.8395 H         1 ADP402      0.0000 
     35 H           1.0498   96.4945   68.1213 H         1 ADP402      0.0000 
     36 H          -0.2281   95.3145   68.5688 H         1 ADP402      0.0000 
     37 H           0.3309   97.2684   63.6808 H         1 ADP402      0.0000 
     38 H          -1.6892   91.0242   60.3177 H         1 ADP402      0.0000 
     39 H           0.2365   90.4877   61.8351 H         1 ADP402      0.0000 
@<TRIPOS>BOND
     1    2    1 ar   
     2    3    1 ar   
     3    4    1 ar   
     4    8    1 1    
     5    6    5 ar   
     6    7    5 ar   
     7    8    5 1    
     8    9    5 1    
     9   10    9 1    
    10   11   10 1    
    11   28   10 1    
    12   29   10 1    
    13   12   11 1    
    14   13   11 1    
    15   30   11 1    
    16   17   12 1    
    17   14   13 1    
    18   15   13 1    
    19   31   13 1    
    20   38   14 1    
    21   16   15 1    
    22   17   15 1    
    23   32   15 1    
    24   39   16 1    
    25   18   17 1    
    26   33   17 1    
    27   19   18 1    
    28   27   18 1    
    29   20   19 2    
    30   34   19 1    
    31   21   20 1    
    32   22   21 ar   
    33   27   21 ar   
    34   23   22 1    
    35   24   22 ar   
    36   35   23 1    
    37   36   23 1    
    38   25   24 ar   
    39   26   25 ar   
    40   37   25 1    
    41   27   26 ar   
@<TRIPOS>SUBSTRUCTURE
     1 ADP402      1 GROUP   
@<TRIPOS>SET

