#    Name: 4FLJ_1_CAVITY_N1_ALL.mol2
#    Modification time : Mon Mar 10 20:12:33 2014

@<TRIPOS>MOLECULE
4FLJ_1_CAVITY_N1_ALL.mol2
   95     0     6     0     0
SMALL
NO_CHARGES


@<TRIPOS>ATOM
      1 DU         20.4906   -4.8526   19.6135 H         6 CUB7        0.0000 
      2 CZ         21.6159   -8.4280   17.6260 C.ar      4 PHE5        0.0000 
      3 CA         22.1785  -10.2157   16.6323 C.3       5 GLY6        0.0000 
      4 CZ         21.4418  -11.3055   15.9114 C.ar      4 PHE5        0.0000 
      5 N          18.7658   -1.6084   19.5933 N.2       1 ALA2        0.0000 
      6 DU         20.0651   -2.3064   19.3204 H         6 CUB7        0.0000 
      7 N          16.7296   -2.0002   19.1452 N.2       1 ALA2        0.0000 
      8 N          18.0290   -2.6982   18.8724 N.2       1 ALA2        0.0000 
      9 DU         19.3284   -3.3961   18.5996 H         6 CUB7        0.0000 
     10 CA         20.6278   -4.0941   18.3267 C.3       5 GLY6        0.0000 
     11 CA         21.9272   -4.7921   18.0539 C.3       5 GLY6        0.0000 
     12 O          15.9929   -3.0899   18.4243 O.2       1 ALA2        0.0000 
     13 DU         17.2923   -3.7879   18.1515 H         6 CUB7        0.0000 
     14 DU         19.8911   -5.1838   17.6058 H         6 CUB7        0.0000 
     15 O          21.1904   -5.8818   17.3330 O.2       1 ALA2        0.0000 
     16 CZ         22.4898   -6.5798   17.0601 C.ar      4 PHE5        0.0000 
     17 DU         17.8550   -5.5756   17.1578 H         6 CUB7        0.0000 
     18 DU         19.1543   -6.2736   16.8849 H         6 CUB7        0.0000 
     19 DU         20.4537   -6.9715   16.6121 H         6 CUB7        0.0000 
     20 CZ         21.7531   -7.6695   16.3392 C.ar      4 PHE5        0.0000 
     21 DU         19.7170   -8.0613   15.8912 H         6 CUB7        0.0000 
     22 CZ         21.0164   -8.7593   15.6183 C.ar      4 PHE5        0.0000 
     23 CZ         22.3158   -9.4572   15.3455 C.ar      4 PHE5        0.0000 
     24 CZ         20.2796   -9.8490   14.8975 C.ar      4 PHE5        0.0000 
     25 N          18.9030   -0.8499   18.3065 N.2       1 ALA2        0.0000 
     26 CA         20.2024   -1.5479   18.0336 C.3       5 GLY6        0.0000 
     27 N          18.1663   -1.9397   17.5856 N.2       1 ALA2        0.0000 
     28 N          19.4656   -2.6376   17.3127 N.2       1 ALA2        0.0000 
     29 CA         20.7650   -3.3356   17.0399 C.3       5 GLY6        0.0000 
     30 O          17.4295   -3.0294   16.8647 O.2       1 ALA2        0.0000 
     31 DU         18.7289   -3.7274   16.5919 H         6 CUB7        0.0000 
     32 CA         20.0283   -4.4253   16.3190 C.3       5 GLY6        0.0000 
     33 N          21.3277   -5.1233   16.0462 N.2       1 ALA2        0.0000 
     34 CZ         16.6928   -4.1191   16.1438 C.ar      4 PHE5        0.0000 
     35 CZ         17.9922   -4.8171   15.8710 C.ar      4 PHE5        0.0000 
     36 DU         19.2916   -5.5151   15.5981 H         6 CUB7        0.0000 
     37 DU         20.5909   -6.2131   15.3253 H         6 CUB7        0.0000 
     38 CZ         21.8903   -6.9110   15.0524 C.ar      4 PHE5        0.0000 
     39 CZ         23.1897   -7.6090   14.7796 C.ar      4 PHE5        0.0000 
     40 CZ         18.5548   -6.6048   14.8772 C.ar      4 PHE5        0.0000 
     41 O          19.8542   -7.3028   14.6044 O.2       1 ALA2        0.0000 
     42 CZ         21.1536   -8.0008   14.3315 C.ar      4 PHE5        0.0000 
     43 CZ         22.4530   -8.6987   14.0587 C.ar      4 PHE5        0.0000 
     44 N          20.3396   -0.7894   16.7468 N.2       1 ALA2        0.0000 
     45 N          19.6029   -1.8792   16.0259 N.2       1 ALA2        0.0000 
     46 CA         20.9022   -2.5771   15.7531 C.3       5 GLY6        0.0000 
     47 N          18.8661   -2.9689   15.3050 N.2       1 ALA2        0.0000 
     48 N          20.1655   -3.6669   15.0322 N.2       1 ALA2        0.0000 
     49 CZ         18.1294   -4.0586   14.5842 C.ar      4 PHE5        0.0000 
     50 N          19.4288   -4.7566   14.3113 N.2       1 ALA2        0.0000 
     51 N          20.7282   -5.4546   14.0385 N.2       1 ALA2        0.0000 
     52 N          22.0276   -6.1525   13.7656 N.2       1 ALA2        0.0000 
     53 CZ         23.3269   -6.8505   13.4928 C.ar      4 PHE5        0.0000 
     54 CZ         24.6263   -7.5485   13.2200 C.ar      4 PHE5        0.0000 
     55 N          21.2908   -7.2423   13.0447 N.2       1 ALA2        0.0000 
     56 CZ         22.5902   -7.9403   12.7719 C.ar      4 PHE5        0.0000 
     57 CZ         23.8896   -8.6382   12.4991 C.ar      4 PHE5        0.0000 
     58 CA         21.0395   -1.8186   14.4663 C.3       5 GLY6        0.0000 
     59 N          19.0034   -2.2104   14.0182 N.2       1 ALA2        0.0000 
     60 N          20.3027   -2.9084   13.7454 N.2       1 ALA2        0.0000 
     61 N          21.6021   -3.6063   13.4726 N.2       1 ALA2        0.0000 
     62 CZ         24.2009   -5.0023   12.9269 C.ar      4 PHE5        0.0000 
     63 CA         18.2666   -3.3001   13.2973 C.3       5 GLY6        0.0000 
     64 N          19.5660   -3.9981   13.0245 N.2       1 ALA2        0.0000 
     65 N          22.1648   -5.3941   12.4788 N.2       1 ALA2        0.0000 
     66 DU         23.4642   -6.0920   12.2060 H         6 CUB7        0.0000 
     67 CZ         24.7635   -6.7900   11.9331 C.ar      4 PHE5        0.0000 
     68 N          22.7274   -7.1818   11.4851 N.2       1 ALA2        0.0000 
     69 DU         24.0268   -7.8797   11.2123 H         6 CUB7        0.0000 
     70 CA         25.3262   -8.5777   10.9394 C.3       5 GLY6        0.0000 
     71 CA         21.9907   -8.2715   10.7642 C.3       5 GLY6        0.0000 
     72 CZ         23.2901   -8.9695   10.4914 C.ar      4 PHE5        0.0000 
     73 N          23.7755   -2.4561   12.6338 N.2       1 ALA2        0.0000 
     74 NZ         19.1406   -1.4519   12.7314 N.2       3 LYS4        0.0000 
     75 NZ         20.4400   -2.1499   12.4586 N.2       3 LYS4        0.0000 
     76 OD1        21.7394   -2.8479   12.1858 O.3       2 ASP3        0.0000 
     77 N          23.0387   -3.5458   11.9129 N.2       1 ALA2        0.0000 
     78 CZ         24.3381   -4.2438   11.6401 C.ar      4 PHE5        0.0000 
     79 NZ         18.4039   -2.5417   12.0105 N.2       3 LYS4        0.0000 
     80 N          19.7032   -3.2396   11.7377 N.2       1 ALA2        0.0000 
     81 N          21.0026   -3.9376   11.4649 N.2       1 ALA2        0.0000 
     82 N          22.3020   -4.6356   11.1920 N.2       1 ALA2        0.0000 
     83 CZ         23.6014   -5.3335   10.9192 C.ar      4 PHE5        0.0000 
     84 CZ         24.9008   -6.0315   10.6463 C.ar      4 PHE5        0.0000 
     85 CA         22.8647   -6.4233   10.1983 C.3       5 GLY6        0.0000 
     86 CA         24.1640   -7.1213    9.9254 C.3       5 GLY6        0.0000 
     87 NZ         21.8766   -2.0894   10.8990 N.2       3 LYS4        0.0000 
     88 OD1        23.1760   -2.7873   10.6261 O.3       2 ASP3        0.0000 
     89 OD1        24.4753   -3.4853   10.3533 O.3       2 ASP3        0.0000 
     90 NZ         19.8405   -2.4811   10.4509 N.2       3 LYS4        0.0000 
     91 NZ         21.1398   -3.1791   10.1781 N.2       3 LYS4        0.0000 
     92 NZ         22.4392   -3.8771    9.9052 N.2       3 LYS4        0.0000 
     93 CA         23.7386   -4.5751    9.6324 C.3       5 GLY6        0.0000 
     94 CA         25.0380   -5.2730    9.3595 C.3       5 GLY6        0.0000 
     95 CA         21.7025   -4.9668    9.1843 C.3       5 GLY6        0.0000 
@<TRIPOS>BOND
@<TRIPOS>SUBSTRUCTURE
     1 ALA2        5 GROUP   
     2 ASP3       76 GROUP   
     3 LYS4       74 GROUP   
     4 PHE5        2 GROUP   
     5 GLY6        3 GROUP   
     6 CUB7        1 GROUP   
@<TRIPOS>SET

