#    Name: 4flj_Y08_1_INTS_M
#    Modification time : Mon Mar 24 20:20:37 2014

@<TRIPOS>MOLECULE
4flj_Y08_1_INTS_M
   75     0    12     0     0
SMALL
NO_CHARGES


@<TRIPOS>ATOM
      1 O          18.8785   -1.1190   15.1305 O.2       1 ALC1        0.0000 
      2 O          19.4740   -2.4700   14.9510 O.2       9 ALL1        0.0000 
      3 O          18.2830    0.2320   15.3100 O.2       5 ALP1        0.0000 
      4 Zn         23.8525   -1.8270    9.4190 Zn        3 ZIC7        0.0000 
      5 Zn         24.0250   -2.8390    9.7130 Zn       11 ZIL7        0.0000 
      6 Zn         23.6800   -0.8150    9.1250 Zn        7 ZIP7        0.0000 
      7 O          23.0580   -2.2375    8.6220 O.2       1 ALC1        0.0000 
      8 O          24.0250   -2.8390    9.7130 O.2       9 ALL1        0.0000 
      9 O          22.0910   -1.6360    7.5310 O.2       5 ALP1        0.0000 
     10 Zn         22.6335   -0.8925   12.8125 Zn        3 ZIC7        0.0000 
     11 Zn         22.3010   -1.9040   13.2660 Zn       11 ZIL7        0.0000 
     12 Zn         22.9660    0.1190   12.3590 Zn        7 ZIP7        0.0000 
     13 N          22.9395   -2.5385   14.2035 N.am      2 SEC2        0.0000 
     14 N          22.3010   -1.9040   13.2660 N.am     10 SEL2        0.0000 
     15 N          23.5780   -3.1730   15.1410 N.am      6 SEP2        0.0000 
     16 Zn         22.5630   -0.5710   11.5680 Zn        3 ZIC7        0.0000 
     17 Zn         22.1600   -1.2610   10.7770 Zn       11 ZIL7        0.0000 
     18 Zn         22.9200   -1.0380    9.9510 Zn        3 ZIC7        0.0000 
     19 O          21.1460   -0.5725   10.6790 O.2       1 ALC1        0.0000 
     20 O          22.1600   -1.2610   10.7770 O.2       9 ALL1        0.0000 
     21 O          20.1320    0.1160   10.5810 O.2       5 ALP1        0.0000 
     22 N          19.3690   -4.4345   11.2985 N.am      2 SEC2        0.0000 
     23 N          19.3990   -3.0180   11.4410 N.am     10 SEL2        0.0000 
     24 N          19.3390   -5.8510   11.1560 N.am      6 SEP2        0.0000 
     25 CA         24.0635   -4.9330   13.5280 C.3       4 GLC5        0.0000 
     26 CA         23.7430   -5.6660   11.6400 C.3      12 GLL5        0.0000 
     27 CA         24.3840   -4.2000   15.4160 C.3       8 GLP5        0.0000 
     28 CA         23.0540   -5.9495    8.9825 C.3       4 GLC5        0.0000 
     29 CA         23.1570   -4.9100   10.7460 C.3      12 GLL5        0.0000 
     30 CA         22.9510   -6.9890    7.2190 C.3       8 GLP5        0.0000 
     31 CA         21.2935   -5.6250   10.3090 C.3       4 GLC5        0.0000 
     32 CA         19.4300   -6.3400    9.8720 C.3       8 GLP5        0.0000 
     33 CA         22.4415   -2.6360   14.4005 C.3       4 GLC5        0.0000 
     34 CA         21.4930   -2.8320   12.5010 C.3      12 GLL5        0.0000 
     35 CA         23.3900   -2.4400   16.3000 C.3       8 GLP5        0.0000 
     36 CA         19.3780   -4.6335   12.2700 C.3       4 GLC5        0.0000 
     37 CA         19.9910   -2.5100   12.6180 C.3      12 GLL5        0.0000 
     38 CA         18.7650   -6.7570   11.9220 C.3       8 GLP5        0.0000 
     39 CA         23.1365   -9.7490    9.9045 C.3       4 GLC5        0.0000 
     40 CA         22.7950   -7.8340   10.6370 C.3      12 GLL5        0.0000 
     41 CA         23.4780  -11.6640    9.1720 C.3       8 GLP5        0.0000 
     42 CA         22.8730   -7.4115    8.9280 C.3       4 GLC5        0.0000 
     43 CA         21.1125   -7.0870   10.2545 C.3       4 GLC5        0.0000 
     44 CA         21.9790   -9.3235   11.6805 C.3       4 GLC5        0.0000 
     45 CA         21.1630  -10.8130   12.7240 C.3       8 GLP5        0.0000 
     46 CA         20.8780   -7.1060   12.5045 C.3       4 GLC5        0.0000 
     47 CA         22.9910   -7.4550   13.0870 C.3      12 GLL5        0.0000 
     48 CA         23.6875   -5.8275   14.2515 C.3       4 GLC5        0.0000 
     49 CA         22.0770   -9.1340   12.9055 C.3       4 GLC5        0.0000 
     50 CA         26.7980   -7.9455   10.9825 C.3       4 GLC5        0.0000 
     51 CA         25.0510   -7.6840   11.6870 C.3      12 GLL5        0.0000 
     52 CA         28.5450   -8.2070   10.2780 C.3       8 GLP5        0.0000 
     53 CA         26.3525   -6.4615   12.4300 C.3       4 GLC5        0.0000 
     54 CA         27.6540   -5.2390   13.1730 C.3       8 GLP5        0.0000 
     55 CA         23.3375   -6.8140   16.6795 C.3       4 GLC5        0.0000 
     56 CA         21.4610   -5.9860   17.0830 C.3      12 GLL5        0.0000 
     57 CA         25.2140   -7.6420   16.2760 C.3       8 GLP5        0.0000 
     58 CA         22.9225   -5.0930   16.2495 C.3       4 GLC5        0.0000 
     59 CA         16.9795   -3.9215   10.3860 C.3       4 GLC5        0.0000 
     60 CA         18.0430   -2.5000   11.3010 C.3      12 GLL5        0.0000 
     61 CA         15.9160   -5.3430    9.4710 C.3       8 GLP5        0.0000 
     62 CA         18.7365   -4.4200   10.5865 C.3       4 GLC5        0.0000 
     63 CA         16.5015   -2.7670   12.3165 C.3       4 GLC5        0.0000 
     64 CA         14.9600   -3.0340   13.3320 C.3       8 GLP5        0.0000 
     65 CA         16.3590   -1.9860   10.4690 C.3       4 GLC5        0.0000 
     66 CA         14.6750   -1.4720    9.6370 C.3       8 GLP5        0.0000 
     67 CA         25.1883   -4.2205   11.7630 C.3       4 GLC5        0.0000 
     68 CA         26.9570   -4.0990   12.4990 C.3       8 GLP5        0.0000 
     69 CA         24.9724   -7.9655   13.6587 C.3       4 GLC5        0.0000 
     70 CA         25.7630   -8.4350   15.2650 C.3       8 GLP5        0.0000 
     71 CA         21.7135   -3.3031   16.3831 C.3       4 GLC5        0.0000 
     72 CA         20.0460   -3.6950   17.0420 C.3      12 GLL5        0.0000 
     73 CA         23.4286   -3.9750   20.0941 C.3       4 GLC5        0.0000 
     74 CA         22.8830   -4.7670   21.8770 C.3      12 GLL5        0.0000 
     75 CA         24.2190   -2.7290   18.7320 C.3       8 GLP5        0.0000 
@<TRIPOS>BOND
@<TRIPOS>SUBSTRUCTURE
     1 ALC1        1 GROUP        1 X    ALC  0     ROOT ALC X 1
     2 SEC2       13 GROUP        1 X    SEC  0     **** SEC X 2
     3 ZIC7        4 GROUP        1 X    ZIC  0     **** ZIC X 5
     4 GLC5       25 GROUP        1 X    GLC  0     **** GLC X 6
     5 ALP1        3 GROUP        1 Y    ALP  0     ROOT ALP Y 8
     6 SEP2       15 GROUP        1 Y    SEP  0     **** SEP Y 9
     7 ZIP7        6 GROUP        1 Y    ZIP  0     **** ZIP Y 12
     8 GLP5       27 GROUP        1 Y    GLP  0     **** GLP Y 13
     9 ALL1        2 GROUP        1 Z    ALL  0     ROOT ALL Z 15
    10 SEL2       14 GROUP        1 Z    SEL  0     **** SEL Z 16
    11 ZIL7        5 GROUP        1 Z    ZIL  0     **** ZIL Z 19
    12 GLL5       26 GROUP        1 Z    GLL  0     **** GLL Z 20
@<TRIPOS>SET

