#    Name: 4flj_Y08_1_ligand
#    Modification time : Mon Mar 24 20:20:37 2014

@<TRIPOS>MOLECULE
4flj_Y08_1_ligand
   67    68     1     0     0
SMALL
NO_CHARGES


@<TRIPOS>ATOM
      1 N1         19.4740   -2.4700   14.9510 N.am      1 Y08503      0.0000 
      2 O1         24.0250   -2.8390    9.7130 O.3       1 Y08503      0.0000 
      3 N2         20.4650   -4.9930   19.0360 N.am      1 Y08503      0.0000 
      4 O2         22.3010   -1.9040   13.2660 O.3       1 Y08503      0.0000 
      5 O3         22.1600   -1.2610   10.7770 O.3       1 Y08503      0.0000 
      6 O4         19.3710   -4.4770   13.8670 O.2       1 Y08503      0.0000 
      7 O5         20.9290   -3.3250   20.4410 O.2       1 Y08503      0.0000 
      8 O6         19.3990   -3.0180   11.4410 O.3       1 Y08503      0.0000 
      9 C01        23.6340   -7.1610   11.7490 C.3       1 Y08503      0.0000 
     10 C02        23.7430   -5.6660   11.6400 C.2       1 Y08503      0.0000 
     11 C03        23.1570   -4.9100   10.7460 C.2       1 Y08503      0.0000 
     12 C04        23.3890   -3.3960   10.8610 C.3       1 Y08503      0.0000 
     13 C05        22.0400   -2.6760   11.0750 C.3       1 Y08503      0.0000 
     14 C06        21.4930   -2.8320   12.5010 C.3       1 Y08503      0.0000 
     15 C07        19.9910   -2.5100   12.6180 C.3       1 Y08503      0.0000 
     16 C08        22.7950   -7.8340   10.6370 C.3       1 Y08503      0.0000 
     17 C09        22.9910   -7.4550   13.0870 C.3       1 Y08503      0.0000 
     18 C10        25.0510   -7.6840   11.6870 C.3       1 Y08503      0.0000 
     19 C11        19.5700   -3.2460   13.8480 C.2       1 Y08503      0.0000 
     20 C12        18.9480   -3.0440   16.2190 C.3       1 Y08503      0.0000 
     21 C13        20.0460   -3.6950   17.0420 C.3       1 Y08503      0.0000 
     22 C14        20.5770   -4.9630   16.3020 C.3       1 Y08503      0.0000 
     23 C15        21.4610   -5.9860   17.0830 C.3       1 Y08503      0.0000 
     24 C16        20.7580   -6.3070   18.4030 C.3       1 Y08503      0.0000 
     25 C17        19.4290   -4.1580   18.3630 C.3       1 Y08503      0.0000 
     26 C18        21.0370   -4.5180   20.1790 C.2       1 Y08503      0.0000 
     27 C19        21.6800   -5.4510   21.1990 C.3       1 Y08503      0.0000 
     28 C20        23.1070   -5.8990   20.8720 C.3       1 Y08503      0.0000 
     29 C21        22.8830   -4.7670   21.8770 C.3       1 Y08503      0.0000 
     30 C22        18.0430   -2.5000   11.3010 C.3       1 Y08503      0.0000 
     31 H          19.7455   -1.4874   14.9757 H         1 Y08503      0.0000 
     32 H          24.3757   -5.2497   12.3978 H         1 Y08503      0.0000 
     33 H          22.5704   -5.1967    9.9886 H         1 Y08503      0.0000 
     34 H          23.9804   -3.2167   11.7607 H         1 Y08503      0.0000 
     35 H          21.3108   -3.1279   10.3942 H         1 Y08503      0.0000 
     36 H          21.6811   -3.8353   12.8190 H         1 Y08503      0.0000 
     37 H          19.8972   -1.4786   12.7459 H         1 Y08503      0.0000 
     38 H          18.1787   -3.7965   15.9992 H         1 Y08503      0.0000 
     39 H          18.4769   -2.2551   16.8207 H         1 Y08503      0.0000 
     40 H          20.8309   -3.0339   17.2201 H         1 Y08503      0.0000 
     41 H          21.1517   -4.6242   15.4032 H         1 Y08503      0.0000 
     42 H          19.6969   -5.5142   15.8842 H         1 Y08503      0.0000 
     43 H          22.4171   -5.5385   17.2756 H         1 Y08503      0.0000 
     44 H          21.5592   -6.8771   16.4932 H         1 Y08503      0.0000 
     45 H          19.8501   -6.8389   18.1950 H         1 Y08503      0.0000 
     46 H          21.4183   -6.8861   19.0187 H         1 Y08503      0.0000 
     47 H          19.1915   -3.2972   18.9593 H         1 Y08503      0.0000 
     48 H          18.5513   -4.7402   18.1545 H         1 Y08503      0.0000 
     49 H          21.3034   -6.0241   21.7936 H         1 Y08503      0.0000 
     50 H          23.3469   -5.5043   20.0474 H         1 Y08503      0.0000 
     51 H          23.2773   -6.6875   21.3646 H         1 Y08503      0.0000 
     52 H          22.9605   -5.1359   22.7416 H         1 Y08503      0.0000 
     53 H          23.0301   -3.9527   21.4244 H         1 Y08503      0.0000 
     54 H          23.1745   -7.6595    9.7284 H         1 Y08503      0.0000 
     55 H          22.7541   -8.8265   10.7519 H         1 Y08503      0.0000 
     56 H          21.8522   -7.5006   10.6299 H         1 Y08503      0.0000 
     57 H          22.8836   -8.4374   13.2396 H         1 Y08503      0.0000 
     58 H          23.5346   -7.0981   13.8467 H         1 Y08503      0.0000 
     59 H          22.0814   -7.0459   13.1598 H         1 Y08503      0.0000 
     60 H          25.5039   -7.4290   10.8327 H         1 Y08503      0.0000 
     61 H          25.6117   -7.3268   12.4340 H         1 Y08503      0.0000 
     62 H          25.0817   -8.6816   11.7486 H         1 Y08503      0.0000 
     63 H          18.0302   -1.5013   11.2511 H         1 Y08503      0.0000 
     64 H          17.5991   -2.8406   10.4722 H         1 Y08503      0.0000 
     65 H          17.4637   -2.7623   12.0727 H         1 Y08503      0.0000 
     66 H          23.4478   -3.1074    8.9417 H         1 Y08503      0.0000 
     67 H          21.3088   -1.0219   10.3098 H         1 Y08503      0.0000 
@<TRIPOS>BOND
     1   19    1 am   
     2   20    1 1    
     3   31    1 1    
     4   12    2 1    
     5   66    2 1    
     6   24    3 1    
     7   25    3 1    
     8   26    3 am   
     9   14    4 1    
    10   13    5 1    
    11   67    5 1    
    12   19    6 2    
    13   26    7 2    
    14   15    8 1    
    15   30    8 1    
    16   10    9 1    
    17   16    9 1    
    18   17    9 1    
    19   18    9 1    
    20   11   10 2    
    21   32   10 1    
    22   12   11 1    
    23   33   11 1    
    24   13   12 1    
    25   34   12 1    
    26   14   13 1    
    27   35   13 1    
    28   15   14 1    
    29   36   14 1    
    30   19   15 1    
    31   37   15 1    
    32   54   16 1    
    33   55   16 1    
    34   56   16 1    
    35   57   17 1    
    36   58   17 1    
    37   59   17 1    
    38   60   18 1    
    39   61   18 1    
    40   62   18 1    
    41   21   20 1    
    42   38   20 1    
    43   39   20 1    
    44   22   21 1    
    45   25   21 1    
    46   40   21 1    
    47   23   22 1    
    48   41   22 1    
    49   42   22 1    
    50   24   23 1    
    51   43   23 1    
    52   44   23 1    
    53   45   24 1    
    54   46   24 1    
    55   47   25 1    
    56   48   25 1    
    57   27   26 1    
    58   28   27 1    
    59   29   27 1    
    60   49   27 1    
    61   29   28 1    
    62   50   28 1    
    63   51   28 1    
    64   52   29 1    
    65   53   29 1    
    66   63   30 1    
    67   64   30 1    
    68   65   30 1    
@<TRIPOS>SUBSTRUCTURE
     1 Y08503      1 GROUP   
@<TRIPOS>SET

