#    Name: 1sb9_UPG_1_INTS_M
#    Modification time : Tue Mar 25 02:13:27 2014

@<TRIPOS>MOLECULE
1sb9_UPG_1_INTS_M
   78     0    12     0     0
SMALL
NO_CHARGES


@<TRIPOS>ATOM
      1 O          40.9665   13.8205   97.0070 O.2       1 ALC1        0.0000 
      2 O          41.1970   12.9550   96.0400 O.2       9 ALL1        0.0000 
      3 O          40.7360   14.6860   97.9740 O.2       5 ALP1        0.0000 
      4 CA         42.2685    9.4040   95.7730 C.3       4 GLC5        0.0000 
      5 CA         42.4590   11.1970   94.9260 C.3      12 GLL5        0.0000 
      6 CA         42.0780    7.6110   96.6200 C.3       8 GLP5        0.0000 
      7 CA         40.9405    9.3770   95.3100 C.3       4 GLC5        0.0000 
      8 CA         41.3040   10.8750   94.2860 C.3      12 GLL5        0.0000 
      9 CA         40.5770    7.8790   96.3340 C.3       8 GLP5        0.0000 
     10 N          38.5865   14.5165   95.3730 N.am      2 SEC2        0.0000 
     11 N          39.0100   13.2130   95.5790 N.am     10 SEL2        0.0000 
     12 N          38.1630   15.8200   95.1670 N.am      6 SEP2        0.0000 
     13 N          42.4370   12.3330   97.8825 N.am      2 SEC2        0.0000 
     14 N          43.4170   12.7010   96.5240 N.am     10 SEL2        0.0000 
     15 N          41.4570   11.9650   99.2410 N.am      6 SEP2        0.0000 
     16 CA         39.4675   10.0035   95.5565 C.3       4 GLC5        0.0000 
     17 CA         38.9060   11.1250   93.7710 C.3      12 GLL5        0.0000 
     18 CA         40.0290    8.8820   97.3420 C.3       8 GLP5        0.0000 
     19 CA         37.1180   11.2690   94.5030 C.3       4 GLC5        0.0000 
     20 CA         35.3300   11.4130   95.2350 C.3       8 GLP5        0.0000 
     21 N          39.8095   13.3200   92.2515 N.am      2 SEC2        0.0000 
     22 N          38.7890   12.3230   91.6850 N.am     10 SEL2        0.0000 
     23 N          40.8300   14.3170   92.8180 N.am      6 SEP2        0.0000 
     24 CA         39.2325    8.5195   94.7025 C.3       4 GLC5        0.0000 
     25 CA         37.8880    9.1600   93.0710 C.3      12 GLL5        0.0000 
     26 CA         36.9870    9.3105   94.8380 C.3       4 GLC5        0.0000 
     27 CA         36.0860    9.4610   96.6050 C.3       8 GLP5        0.0000 
     28 O          37.0520   10.5085   90.1360 O.2       1 ALC1        0.0000 
     29 O          36.8130   10.6730   91.5920 O.2       9 ALL1        0.0000 
     30 O          37.2910   10.3440   88.6800 O.2       5 ALP1        0.0000 
     31 O          36.3630   11.3115   90.4380 O.2       1 ALC1        0.0000 
     32 O          35.9130   11.9500   89.2840 O.2       5 ALP1        0.0000 
     33 CA         39.1895    7.2010   94.6230 C.3       4 GLC5        0.0000 
     34 CA         38.5880    7.8270   92.8860 C.3      12 GLL5        0.0000 
     35 CA         39.7910    6.5750   96.3600 C.3       8 GLP5        0.0000 
     36 NZ         41.7915    8.6935   90.5855 N.4       3 LYC4        0.0000 
     37 NZ         42.0940    7.4140   91.1040 N.4      11 LYL4        0.0000 
     38 NZ         42.1350   11.1290   90.1250 N.4       7 LYP4        0.0000 
     39 N          41.7915    8.6935   90.5855 N.am      2 SEC2        0.0000 
     40 N          42.0940    7.4140   91.1040 N.am     10 SEL2        0.0000 
     41 N          41.4890    9.9730   90.0670 N.am      6 SEP2        0.0000 
     42 N          41.9320    6.3685   94.3350 N.am      2 SEC2        0.0000 
     43 N          41.1750    5.8770   93.1400 N.am     10 SEL2        0.0000 
     44 N          42.6890    6.8600   95.5300 N.am      6 SEP2        0.0000 
     45 N          40.5425    8.7530   89.4310 N.am      2 SEC2        0.0000 
     46 N          39.5960    7.5330   88.7950 N.am     10 SEL2        0.0000 
     47 N          37.9305    4.6000   90.7255 N.am      2 SEC2        0.0000 
     48 N          38.1030    5.3230   89.3220 N.am     10 SEL2        0.0000 
     49 N          37.7580    3.8770   92.1290 N.am      6 SEP2        0.0000 
     50 N          36.6870    5.7785   90.0030 N.am      2 SEC2        0.0000 
     51 N          35.2710    6.2340   90.6840 N.am      6 SEP2        0.0000 
     52 CA         41.4540    1.1625   89.1330 C.3       4 GLC5        0.0000 
     53 CA         41.9130    3.1750   89.8700 C.3      12 GLL5        0.0000 
     54 CA         40.9950   -0.8500   88.3960 C.3       8 GLP5        0.0000 
     55 CA         42.5210    0.9950   88.8940 C.3       4 GLC5        0.0000 
     56 CA         42.8440    3.1350   88.6610 C.3      12 GLL5        0.0000 
     57 CA         42.1980   -1.1450   89.1270 C.3       8 GLP5        0.0000 
     58 CA         39.8190    0.9325   84.7510 C.3       4 GLC5        0.0000 
     59 CA         40.1060    2.6060   86.0100 C.3      12 GLL5        0.0000 
     60 CA         39.5320   -0.7410   83.4920 C.3       8 GLP5        0.0000 
     61 CA         39.0280    2.9585   84.3430 C.3       4 GLC5        0.0000 
     62 CA         37.9500    3.3110   82.6760 C.3       8 GLP5        0.0000 
     63 CA         40.4805    0.6755   86.5195 C.3       4 GLC5        0.0000 
     64 CA         40.8550   -1.2550   87.0290 C.3       8 GLP5        0.0000 
     65 N          44.4780    3.6385   86.2905 N.am      2 SEC2        0.0000 
     66 N          42.9990    2.7800   86.3300 N.am     10 SEL2        0.0000 
     67 N          45.9570    4.4970   86.2510 N.am      6 SEP2        0.0000 
     68 O          43.1200    1.6470   85.3265 O.2       1 ALC1        0.0000 
     69 O          42.9990    2.7800   86.3300 O.2       9 ALL1        0.0000 
     70 O          43.2410    0.5140   84.3230 O.2       5 ALP1        0.0000 
     71 O          39.1525    1.0235   85.2650 O.2       1 ALC1        0.0000 
     72 O          39.2280    1.5790   86.4620 O.2       9 ALL1        0.0000 
     73 O          39.0770    0.4680   84.0680 O.2       5 ALP1        0.0000 
     74 CA         41.2427    1.0035   87.8615 C.3       4 GLC5        0.0000 
     75 CA         42.1630    2.5150   87.4480 C.3      12 GLL5        0.0000 
     76 CA         41.5666    2.6202   85.0192 C.3       4 GLC5        0.0000 
     77 CA         40.8180    3.1990   87.2060 C.3      12 GLL5        0.0000 
     78 CA         42.3350    2.5090   83.3700 C.3       8 GLP5        0.0000 
@<TRIPOS>BOND
@<TRIPOS>SUBSTRUCTURE
     1 ALC1        1 GROUP        1 X    ALC  0     ROOT ALC X 1
     2 SEC2       10 GROUP        1 X    SEC  0     **** SEC X 2
     3 LYC4       36 GROUP        1 X    LYC  0     **** LYC X 4
     4 GLC5        4 GROUP        1 X    GLC  0     **** GLC X 6
     5 ALP1        3 GROUP        1 Y    ALP  0     ROOT ALP Y 8
     6 SEP2       12 GROUP        1 Y    SEP  0     **** SEP Y 9
     7 LYP4       38 GROUP        1 Y    LYP  0     **** LYP Y 11
     8 GLP5        6 GROUP        1 Y    GLP  0     **** GLP Y 13
     9 ALL1        2 GROUP        1 Z    ALL  0     ROOT ALL Z 15
    10 SEL2       11 GROUP        1 Z    SEL  0     **** SEL Z 16
    11 LYL4       37 GROUP        1 Z    LYL  0     **** LYL Z 18
    12 GLL5        5 GROUP        1 Z    GLL  0     **** GLL Z 20
@<TRIPOS>SET

